49830640
  -OEChem-10052115183D

 42 45  0     1  0  0  0  0  0999 V2000
    2.8388    1.5090    1.6718 F   0  0  0  0  0  0  0  0  0  0  0  0
    1.8628   -1.5876   -0.3447 N   0  0  0  0  0  0  0  0  0  0  0  0
   -2.8377   -1.1562    0.1581 N   0  0  0  0  0  0  0  0  0  0  0  0
   -0.4978   -1.3326   -0.0952 N   0  0  0  0  0  0  0  0  0  0  0  0
   -4.9944   -0.6596    0.3638 N   0  0  0  0  0  0  0  0  0  0  0  0
   -0.7219   -4.1180    0.1442 N   0  0  0  0  0  0  0  0  0  0  0  0
   -0.6510    4.4159   -0.5285 N   0  0  0  0  0  0  0  0  0  0  0  0
    2.0875   -0.1828   -0.4784 C   0  0  1  0  0  0  0  0  0  0  0  0
    3.5267    0.1511   -0.1497 C   0  0  0  0  0  0  0  0  0  0  0  0
   -2.9100    0.2097    0.0590 C   0  0  0  0  0  0  0  0  0  0  0  0
    1.6752    0.2596   -1.8808 C   0  0  0  0  0  0  0  0  0  0  0  0
    0.5776   -2.1428   -0.1556 C   0  0  0  0  0  0  0  0  0  0  0  0
   -1.6872   -1.9397    0.0871 C   0  0  0  0  0  0  0  0  0  0  0  0
   -4.2661    0.4949    0.1906 C   0  0  0  0  0  0  0  0  0  0  0  0
    3.8229    0.9912    0.9236 C   0  0  0  0  0  0  0  0  0  0  0  0
    4.5579   -0.3833   -0.9222 C   0  0  0  0  0  0  0  0  0  0  0  0
   -4.1075   -1.6292    0.3392 C   0  0  0  0  0  0  0  0  0  0  0  0
   -1.9351    1.1901   -0.1287 C   0  0  0  0  0  0  0  0  0  0  0  0
   -4.6933    1.8323    0.1343 C   0  0  0  0  0  0  0  0  0  0  0  0
    0.4676   -3.5110   -0.0380 C   0  0  0  0  0  0  0  0  0  0  0  0
   -1.7973   -3.3078    0.2046 C   0  0  0  0  0  0  0  0  0  0  0  0
   -2.3780    2.5159   -0.1822 C   0  0  0  0  0  0  0  0  0  0  0  0
    5.1502    1.2970    1.2244 C   0  0  0  0  0  0  0  0  0  0  0  0
    5.8852   -0.0774   -0.6215 C   0  0  0  0  0  0  0  0  0  0  0  0
   -3.7320    2.8335   -0.0533 C   0  0  0  0  0  0  0  0  0  0  0  0
    6.1814    0.7627    0.4518 C   0  0  0  0  0  0  0  0  0  0  0  0
   -1.4246    3.5649   -0.3735 C   0  0  0  0  0  0  0  0  0  0  0  0
    1.4513    0.3553    0.2353 H   0  0  0  0  0  0  0  0  0  0  0  0
    2.5599   -2.2264   -0.7156 H   0  0  0  0  0  0  0  0  0  0  0  0
    1.8708    1.3286   -2.0225 H   0  0  0  0  0  0  0  0  0  0  0  0
    0.6096    0.0933   -2.0678 H   0  0  0  0  0  0  0  0  0  0  0  0
    2.2233   -0.2826   -2.6600 H   0  0  0  0  0  0  0  0  0  0  0  0
    4.3502   -1.0406   -1.7621 H   0  0  0  0  0  0  0  0  0  0  0  0
   -4.3760   -2.6701    0.4513 H   0  0  0  0  0  0  0  0  0  0  0  0
   -0.8812    0.9708   -0.2271 H   0  0  0  0  0  0  0  0  0  0  0  0
   -5.7431    2.0892    0.2333 H   0  0  0  0  0  0  0  0  0  0  0  0
    1.3246   -4.1732   -0.0840 H   0  0  0  0  0  0  0  0  0  0  0  0
   -2.7203   -3.8514    0.3516 H   0  0  0  0  0  0  0  0  0  0  0  0
   -4.0624    3.8696   -0.0971 H   0  0  0  0  0  0  0  0  0  0  0  0
    5.3804    1.9510    2.0602 H   0  0  0  0  0  0  0  0  0  0  0  0
    6.6883   -0.4935   -1.2228 H   0  0  0  0  0  0  0  0  0  0  0  0
    7.2148    1.0008    0.6861 H   0  0  0  0  0  0  0  0  0  0  0  0
  1 15  1  0  0  0  0
  2  8  1  0  0  0  0
  2 12  1  0  0  0  0
  2 29  1  0  0  0  0
  3 10  1  0  0  0  0
  3 13  1  0  0  0  0
  3 17  1  0  0  0  0
  4 12  1  0  0  0  0
  4 13  2  0  0  0  0
  5 14  1  0  0  0  0
  5 17  2  0  0  0  0
  6 20  1  0  0  0  0
  6 21  2  0  0  0  0
  7 27  3  0  0  0  0
  8  9  1  0  0  0  0
  8 11  1  0  0  0  0
  8 28  1  0  0  0  0
  9 15  1  0  0  0  0
  9 16  2  0  0  0  0
 10 14  2  0  0  0  0
 10 18  1  0  0  0  0
 11 30  1  0  0  0  0
 11 31  1  0  0  0  0
 11 32  1  0  0  0  0
 12 20  2  0  0  0  0
 13 21  1  0  0  0  0
 14 19  1  0  0  0  0
 15 23  2  0  0  0  0
 16 24  1  0  0  0  0
 16 33  1  0  0  0  0
 17 34  1  0  0  0  0
 18 22  2  0  0  0  0
 18 35  1  0  0  0  0
 19 25  2  0  0  0  0
 19 36  1  0  0  0  0
 20 37  1  0  0  0  0
 21 38  1  0  0  0  0
 22 25  1  0  0  0  0
 22 27  1  0  0  0  0
 23 26  1  0  0  0  0
 23 40  1  0  0  0  0
 24 26  2  0  0  0  0
 24 41  1  0  0  0  0
 25 39  1  0  0  0  0
 26 42  1  0  0  0  0
M  END
> <PUBCHEM_COMPOUND_CID>
49830640

> <PUBCHEM_CONFORMER_RMSD>
0.8

> <PUBCHEM_CONFORMER_DIVERSEORDER>
2
215
22
171
54
58
183
64
100
48
94
257
18
211
252
271
282
43
72
155
20
97
158
101
287
228
281
145
73
1
198
229
87
117
232
106
62
189
201
80
146
192
204
273
288
138
38
93
77
297
302
272
166
119
230
88
6
245
219
118
240
53
180
114
168
122
176
163
151
248
86
184
196
270
109
26
140
85
231
126
284
237
56
108
195
292
217
238
45
55
91
29
9
278
46
301
291
224
90
81
25
190
210
268
102
115
67
104
4
135
75
279
267
299
214
286
66
296
32
178
266
110
225
269
17
36
83
274
103
209
227
21
84
105
12
107
144
177
283
260
165
23
159
197
111
96
264
61
11
218
52
254
124
149
289
10
261
5
213
113
136
98
130
241
235
294
263
285
129
162
182
251
226
99
13
156
24
234
290
142
188
139
49
170
300
37
69
275
193
277
47
79
249
19
133
15
187
242
150
246
160
39
63
82
167
256
280
157
65
128
70
276
208
161
206
125
259
78
154
76
174
71
147
34
191
8
59
74
179
205
236
216
181
51
42
247
57
28
173
186
127
132
60
7
41
92
33
258
16
223
121
194
265
220
200
134
239
293
50
233
244
120
175
3
199
153
295
212
141
253
123
298
152
112
164
169
255
172
68
27
31
221
148
30
202
89
185
250
222
40
243
44
131
95
116
14
207
262
137
143
35
203

> <PUBCHEM_MMFF94_PARTIAL_CHARGES>
37
1 -0.19
10 -0.15
12 0.41
13 0.29
14 0.23
15 0.19
16 -0.15
17 0.04
18 -0.15
19 -0.15
2 -0.87
20 0.16
21 0.16
22 0.07
23 -0.15
24 -0.15
25 -0.15
26 -0.15
27 0.48
29 0.4
3 0.33
33 0.15
34 0.15
35 0.15
36 0.15
37 0.15
38 0.15
39 0.15
4 -0.62
40 0.15
41 0.15
42 0.15
5 -0.57
6 -0.62
7 -0.56
8 0.51
9 -0.14

> <PUBCHEM_EFFECTIVE_ROTOR_COUNT>
4

> <PUBCHEM_PHARMACOPHORE_FEATURES>
10
1 2 cation
1 2 donor
1 6 acceptor
1 7 acceptor
3 3 4 13 cation
3 3 5 17 cation
5 3 5 10 14 17 rings
6 10 14 18 19 22 25 rings
6 4 6 12 13 20 21 rings
6 9 15 16 23 24 26 rings

> <PUBCHEM_HEAVY_ATOM_COUNT>
27

> <PUBCHEM_ATOM_DEF_STEREO_COUNT>
0

> <PUBCHEM_ATOM_UDEF_STEREO_COUNT>
1

> <PUBCHEM_BOND_DEF_STEREO_COUNT>
0

> <PUBCHEM_BOND_UDEF_STEREO_COUNT>
0

> <PUBCHEM_ISOTOPIC_ATOM_COUNT>
0

> <PUBCHEM_COMPONENT_COUNT>
1

> <PUBCHEM_CACTVS_TAUTO_COUNT>
2

> <PUBCHEM_CONFORMER_ID>
02F85AF000000002

> <PUBCHEM_MMFF94_ENERGY>
76.9691

> <PUBCHEM_FEATURE_SELFOVERLAP>
50.896

> <PUBCHEM_SHAPE_FINGERPRINT>
10256941 240 17535999231117427052
10319926 262 18340474643852789058
10411042 1 17834116729353554475
10670039 82 18262249845754388284
1100329 8 18120941856993696407
11135609 187 18192421980174129413
11370993 70 18338795619832894109
11595378 159 18040704853874402824
11725454 13 17846775222013405966
12107183 9 18263070034516884882
12596602 18 17023188292132706416
12838862 33 18337095805681220613
13140716 1 17975705205691115851
13402501 40 18272369780387866232
13561361 72 18339068402366218336
14117953 113 18335139756909538581
17818456 19 18261679263654670102
19611394 137 17970082238733952747
21033648 29 18130217246600742464
21133410 127 17753337457144573756
21279426 13 18271532975378531510
21792961 116 17917444116772000796
21796203 349 17756750572917179385
22122407 14 15647054867267126303
23559900 14 17979631234578542356
25019877 29 17417259865330557343
350125 39 18192717743483166462
3524813 1 18130783494619821432
3882209 13 17262408096148039022
392239 28 18341899592967154641
4046055 25 16839641451341349878
469060 322 18265356004720676865
474144 1 17678193782690069876
50150288 127 16269404678138859033
508706 21 18342166817183964994
5104073 3 18263370200684716251
513202 73 16299496168687222178
550186 7 18342751736317151286
7064713 232 18334018267648849812
7808743 9 18410290354655007122
9981440 41 18261681393779633747

> <PUBCHEM_SHAPE_MULTIPOLES>
518.49
11.93
4.71
1
11.76
0.31
0.06
-4.99
-1.81
-4.38
0.1
1.14
-0.31
1.2

> <PUBCHEM_SHAPE_SELFOVERLAP>
1151.674

> <PUBCHEM_SHAPE_VOLUME>
277.9

> <PUBCHEM_COORDINATE_TYPE>
2
5
10

$$$$
