49831026
  -OEChem-10062121533D

 35 36  0     0  0  0  0  0  0999 V2000
   -1.0356    1.4611    0.0244 S   0  0  0  0  0  0  0  0  0  0  0  0
    0.4055   -2.0926   -0.2308 O   0  0  0  0  0  0  0  0  0  0  0  0
   -4.7013    2.1575    1.1061 O   0  0  0  0  0  0  0  0  0  0  0  0
   -3.6296    2.8270   -0.7831 O   0  0  0  0  0  0  0  0  0  0  0  0
   -1.6979   -1.0418   -0.1881 N   0  0  0  0  0  0  0  0  0  0  0  0
    2.5635   -0.3156   -0.0482 N   0  0  0  0  0  0  0  0  0  0  0  0
   -5.3153   -1.3672   -0.2892 N   0  0  0  0  0  0  0  0  0  0  0  0
   -2.5036   -2.2463   -0.3018 C   0  0  0  0  0  0  0  0  0  0  0  0
   -2.2488    0.2236   -0.0984 C   0  0  0  0  0  0  0  0  0  0  0  0
   -0.3045   -1.0989   -0.1655 C   0  0  0  0  0  0  0  0  0  0  0  0
    0.2208    0.2846   -0.0451 C   0  0  0  0  0  0  0  0  0  0  0  0
   -3.1097   -2.6357    1.0306 C   0  0  0  0  0  0  0  0  0  0  0  0
    1.5265    0.5580    0.0015 C   0  0  0  0  0  0  0  0  0  0  0  0
   -3.5550    0.5171   -0.1020 C   0  0  0  0  0  0  0  0  0  0  0  0
    3.9409   -0.0449    0.0001 C   0  0  0  0  0  0  0  0  0  0  0  0
    4.8602   -1.0918   -0.0660 C   0  0  0  0  0  0  0  0  0  0  0  0
    4.3893    1.2709    0.1146 C   0  0  0  0  0  0  0  0  0  0  0  0
   -3.9423    1.9470    0.0041 C   0  0  0  0  0  0  0  0  0  0  0  0
    6.2282   -0.8229   -0.0178 C   0  0  0  0  0  0  0  0  0  0  0  0
    5.7571    1.5398    0.1628 C   0  0  0  0  0  0  0  0  0  0  0  0
    6.6766    0.4929    0.0967 C   0  0  0  0  0  0  0  0  0  0  0  0
   -4.5250   -0.5216   -0.2050 C   0  0  0  0  0  0  0  0  0  0  0  0
   -1.8312   -3.0684   -0.5838 H   0  0  0  0  0  0  0  0  0  0  0  0
   -3.1774   -2.1932   -1.1603 H   0  0  0  0  0  0  0  0  0  0  0  0
   -2.3265   -3.0797    1.6593 H   0  0  0  0  0  0  0  0  0  0  0  0
   -3.5171   -1.8207    1.6333 H   0  0  0  0  0  0  0  0  0  0  0  0
   -3.8715   -3.4108    0.8981 H   0  0  0  0  0  0  0  0  0  0  0  0
    1.8077    1.6002    0.0898 H   0  0  0  0  0  0  0  0  0  0  0  0
    2.3182   -1.2964   -0.1313 H   0  0  0  0  0  0  0  0  0  0  0  0
    4.5244   -2.1219   -0.1553 H   0  0  0  0  0  0  0  0  0  0  0  0
    3.7265    2.1267    0.1705 H   0  0  0  0  0  0  0  0  0  0  0  0
    6.9441   -1.6380   -0.0692 H   0  0  0  0  0  0  0  0  0  0  0  0
    6.1074    2.5641    0.2519 H   0  0  0  0  0  0  0  0  0  0  0  0
    7.7416    0.7023    0.1343 H   0  0  0  0  0  0  0  0  0  0  0  0
   -4.9676    3.0975    1.1943 H   0  0  0  0  0  0  0  0  0  0  0  0
  1  9  1  0  0  0  0
  1 11  1  0  0  0  0
  2 10  2  0  0  0  0
  3 18  1  0  0  0  0
  3 35  1  0  0  0  0
  4 18  2  0  0  0  0
  5  8  1  0  0  0  0
  5  9  1  0  0  0  0
  5 10  1  0  0  0  0
  6 13  1  0  0  0  0
  6 15  1  0  0  0  0
  6 29  1  0  0  0  0
  7 22  3  0  0  0  0
  8 12  1  0  0  0  0
  8 23  1  0  0  0  0
  8 24  1  0  0  0  0
  9 14  2  3  0  0  0
 10 11  1  0  0  0  0
 11 13  2  3  0  0  0
 12 25  1  0  0  0  0
 12 26  1  0  0  0  0
 12 27  1  0  0  0  0
 13 28  1  0  0  0  0
 14 18  1  0  0  0  0
 14 22  1  0  0  0  0
 15 16  2  0  0  0  0
 15 17  1  0  0  0  0
 16 19  1  0  0  0  0
 16 30  1  0  0  0  0
 17 20  2  0  0  0  0
 17 31  1  0  0  0  0
 19 21  2  0  0  0  0
 19 32  1  0  0  0  0
 20 21  1  0  0  0  0
 20 33  1  0  0  0  0
 21 34  1  0  0  0  0
M  END
> <PUBCHEM_COMPOUND_CID>
49831026

> <PUBCHEM_CONFORMER_RMSD>
0.6

> <PUBCHEM_CONFORMER_DIVERSEORDER>
1
13
19
20
12
18
2
8
17
4
10
6
15
3
16
11
14
7
9
5

> <PUBCHEM_MMFF94_PARTIAL_CHARGES>
29
1 -0.2
10 0.62
11 0.12
13 -0.05
14 0.08
15 0.1
16 -0.15
17 -0.15
18 0.71
19 -0.15
2 -0.57
20 -0.15
21 -0.15
22 0.49
28 0.15
29 0.4
3 -0.65
30 0.15
31 0.15
32 0.15
33 0.15
34 0.15
35 0.5
4 -0.57
5 -0.47
6 -0.6
7 -0.56
8 0.3
9 0.21

> <PUBCHEM_EFFECTIVE_ROTOR_COUNT>
4

> <PUBCHEM_PHARMACOPHORE_FEATURES>
9
1 2 acceptor
1 3 acceptor
1 4 acceptor
1 6 cation
1 6 donor
1 7 acceptor
3 3 4 18 anion
5 1 5 9 10 11 rings
6 15 16 17 19 20 21 rings

> <PUBCHEM_HEAVY_ATOM_COUNT>
22

> <PUBCHEM_ATOM_DEF_STEREO_COUNT>
0

> <PUBCHEM_ATOM_UDEF_STEREO_COUNT>
0

> <PUBCHEM_BOND_DEF_STEREO_COUNT>
0

> <PUBCHEM_BOND_UDEF_STEREO_COUNT>
2

> <PUBCHEM_ISOTOPIC_ATOM_COUNT>
0

> <PUBCHEM_COMPONENT_COUNT>
1

> <PUBCHEM_CACTVS_TAUTO_COUNT>
3

> <PUBCHEM_CONFORMER_ID>
02F85C7200000001

> <PUBCHEM_MMFF94_ENERGY>
74.559

> <PUBCHEM_FEATURE_SELFOVERLAP>
45.729

> <PUBCHEM_SHAPE_FINGERPRINT>
10411042 1 17977947114258967367
10595046 47 18336545031880533334
11315181 36 18186802521460161188
11405975 8 18408882932664061152
12107183 9 17902502684798313026
12236239 1 18113898252282653128
12390115 104 18200606812769638873
12403259 415 17917984001453388632
12616971 3 16950005842155035420
13073987 5 18410291406737566618
13140716 1 18122352547723656859
13167823 11 18335699468800113026
14790565 3 18409450297690907596
15042514 8 18194403518732779135
15183329 4 18409727331718809552
15196674 1 18411981351914535806
15778101 99 18271811164431103313
17844677 252 18339367456633112352
19489759 90 18334856125594850793
20281389 69 18335417959310884528
20645477 70 17274833415587661998
21033648 29 17845922009616765704
21236236 1 18413107264669441509
21267235 1 18409453621816480487
21279426 13 18269558239225015606
21315764 268 18339354270799021380
220451 1 17894351060636117314
22224240 67 18338527327208600473
23402539 116 18271802406670845108
23557571 272 18342179972816706700
23559900 14 18339633567968622897
23569943 247 17097197339322725394
3004659 81 18409449168700064698
335352 9 18410571817126656727
34797466 226 17703237325256245108
350125 39 18412826923722560465
3545911 37 18412826898174146828
4073 2 18114185280968939898
4214541 1 18411136935448010684
5104073 3 18409443709458937752
5283173 99 18411697664961622272
542803 24 17821451253386304220
559249 180 18337949000491322746
6327066 14 18117550722700389501
7226269 152 18131071485078036792
77779 3 18410574011712493716
9996256 80 18343018908409434055

> <PUBCHEM_SHAPE_MULTIPOLES>
424.05
15.24
2.59
0.73
18.97
0.04
0.08
2.27
0.66
-3.51
0.17
-0.43
0.01
0.22

> <PUBCHEM_SHAPE_SELFOVERLAP>
895.429

> <PUBCHEM_SHAPE_VOLUME>
237.1

> <PUBCHEM_COORDINATE_TYPE>
2
5
10

$$$$
