2868501
  -OEChem-10062121563D

 51 55  0     0  0  0  0  0  0999 V2000
    3.2501    2.3086    0.7319 O   0  0  0  0  0  0  0  0  0  0  0  0
   -1.6172    0.7167    1.5562 O   0  0  0  0  0  0  0  0  0  0  0  0
   -8.1749   -1.3351    2.2296 O   0  0  0  0  0  0  0  0  0  0  0  0
   -9.0596   -0.9394    0.1735 O   0  0  0  0  0  0  0  0  0  0  0  0
    3.9680    0.2181    0.2307 N   0  0  0  0  0  0  0  0  0  0  0  0
   -2.9214    0.9039   -0.3989 N   0  0  0  0  0  0  0  0  0  0  0  0
   -2.5885    1.2685   -1.6801 N   0  0  0  0  0  0  0  0  0  0  0  0
    4.9113   -1.7655   -0.1801 N   0  0  0  0  0  0  0  0  0  0  0  0
    2.2374   -3.9167   -1.5434 N   0  0  0  0  0  0  0  0  0  0  0  0
    1.6400    0.7466   -0.1819 C   0  0  0  0  0  0  0  0  0  0  0  0
    3.7880   -1.0758   -0.2357 C   0  0  0  0  0  0  0  0  0  0  0  0
    1.4596   -0.6257   -0.6719 C   0  0  0  0  0  0  0  0  0  0  0  0
    5.3010    0.3327    0.6019 C   0  0  0  0  0  0  0  0  0  0  0  0
    2.9768    1.1996    0.3021 C   0  0  0  0  0  0  0  0  0  0  0  0
   -0.6722    1.4496   -0.5399 C   0  0  0  0  0  0  0  0  0  0  0  0
    2.5021   -1.4873   -0.6903 C   0  0  0  0  0  0  0  0  0  0  0  0
    0.6760    1.6816   -0.1234 C   0  0  0  0  0  0  0  0  0  0  0  0
    5.8533   -0.9165    0.3319 C   0  0  0  0  0  0  0  0  0  0  0  0
   -1.2601    1.6119   -1.7349 C   0  0  0  0  0  0  0  0  0  0  0  0
   -1.7617    0.9798    0.3734 C   0  0  0  0  0  0  0  0  0  0  0  0
    0.0721   -1.0089   -1.1428 C   0  0  0  0  0  0  0  0  0  0  0  0
    6.0677    1.3785    1.1357 C   0  0  0  0  0  0  0  0  0  0  0  0
   -4.1866    0.4603   -0.0709 C   0  0  0  0  0  0  0  0  0  0  0  0
    7.2141   -1.1528    0.5942 C   0  0  0  0  0  0  0  0  0  0  0  0
   -0.6761    2.1121   -3.0092 C   0  0  0  0  0  0  0  0  0  0  0  0
    7.4205    1.1283    1.3920 C   0  0  0  0  0  0  0  0  0  0  0  0
    7.9867   -0.1165    1.1262 C   0  0  0  0  0  0  0  0  0  0  0  0
   -5.2156    0.4756   -1.0237 C   0  0  0  0  0  0  0  0  0  0  0  0
   -4.4634   -0.0136    1.2196 C   0  0  0  0  0  0  0  0  0  0  0  0
    2.3560   -2.8278   -1.1612 C   0  0  0  0  0  0  0  0  0  0  0  0
   -6.4941    0.0265   -0.6930 C   0  0  0  0  0  0  0  0  0  0  0  0
   -5.7420   -0.4627    1.5502 C   0  0  0  0  0  0  0  0  0  0  0  0
   -6.7573   -0.4426    0.5938 C   0  0  0  0  0  0  0  0  0  0  0  0
   -8.0900   -0.9119    0.9386 C   0  0  0  0  0  0  0  0  0  0  0  0
    0.8615    2.6746    0.2776 H   0  0  0  0  0  0  0  0  0  0  0  0
   -3.2480    1.7187   -2.3009 H   0  0  0  0  0  0  0  0  0  0  0  0
   -0.2072   -0.5138   -2.0704 H   0  0  0  0  0  0  0  0  0  0  0  0
   -0.6655   -1.0122   -0.3435 H   0  0  0  0  0  0  0  0  0  0  0  0
    0.0487   -2.0629   -1.4498 H   0  0  0  0  0  0  0  0  0  0  0  0
    5.6467    2.3541    1.3495 H   0  0  0  0  0  0  0  0  0  0  0  0
    7.6610   -2.1206    0.3896 H   0  0  0  0  0  0  0  0  0  0  0  0
   -0.7806    1.3608   -3.7986 H   0  0  0  0  0  0  0  0  0  0  0  0
    0.3885    2.3452   -2.9089 H   0  0  0  0  0  0  0  0  0  0  0  0
   -1.1891    3.0239   -3.3318 H   0  0  0  0  0  0  0  0  0  0  0  0
    8.0394    1.9206    1.8058 H   0  0  0  0  0  0  0  0  0  0  0  0
    9.0399   -0.2849    1.3342 H   0  0  0  0  0  0  0  0  0  0  0  0
   -5.0630    0.8268   -2.0398 H   0  0  0  0  0  0  0  0  0  0  0  0
   -3.7156   -0.0561    2.0024 H   0  0  0  0  0  0  0  0  0  0  0  0
   -7.2715    0.0490   -1.4522 H   0  0  0  0  0  0  0  0  0  0  0  0
   -5.9038   -0.8207    2.5631 H   0  0  0  0  0  0  0  0  0  0  0  0
   -9.0771   -1.6499    2.4519 H   0  0  0  0  0  0  0  0  0  0  0  0
  1 14  2  0  0  0  0
  2 20  2  0  0  0  0
  3 34  1  0  0  0  0
  3 51  1  0  0  0  0
  4 34  2  0  0  0  0
  5 11  1  0  0  0  0
  5 13  1  0  0  0  0
  5 14  1  0  0  0  0
  6  7  1  0  0  0  0
  6 20  1  0  0  0  0
  6 23  1  0  0  0  0
  7 19  1  0  0  0  0
  7 36  1  0  0  0  0
  8 11  2  0  0  0  0
  8 18  1  0  0  0  0
  9 30  3  0  0  0  0
 10 12  1  0  0  0  0
 10 14  1  0  0  0  0
 10 17  2  3  0  0  0
 11 16  1  0  0  0  0
 12 16  2  0  0  0  0
 12 21  1  0  0  0  0
 13 18  1  0  0  0  0
 13 22  2  0  0  0  0
 15 17  1  0  0  0  0
 15 19  2  0  0  0  0
 15 20  1  0  0  0  0
 16 30  1  0  0  0  0
 17 35  1  0  0  0  0
 18 24  2  0  0  0  0
 19 25  1  0  0  0  0
 21 37  1  0  0  0  0
 21 38  1  0  0  0  0
 21 39  1  0  0  0  0
 22 26  1  0  0  0  0
 22 40  1  0  0  0  0
 23 28  2  0  0  0  0
 23 29  1  0  0  0  0
 24 27  1  0  0  0  0
 24 41  1  0  0  0  0
 25 42  1  0  0  0  0
 25 43  1  0  0  0  0
 25 44  1  0  0  0  0
 26 27  2  0  0  0  0
 26 45  1  0  0  0  0
 27 46  1  0  0  0  0
 28 31  1  0  0  0  0
 28 47  1  0  0  0  0
 29 32  2  0  0  0  0
 29 48  1  0  0  0  0
 31 33  2  0  0  0  0
 31 49  1  0  0  0  0
 32 33  1  0  0  0  0
 32 50  1  0  0  0  0
 33 34  1  0  0  0  0
M  END
> <PUBCHEM_COMPOUND_CID>
2868501

> <PUBCHEM_CONFORMER_RMSD>
0.8

> <PUBCHEM_CONFORMER_DIVERSEORDER>
1
2

> <PUBCHEM_MMFF94_PARTIAL_CHARGES>
45
1 -0.57
10 0.01
11 0.14
12 -0.14
13 -0.15
14 0.56
15 0.01
16 0.11
17 -0.15
18 0.23
19 -0.04
2 -0.57
20 0.62
21 0.14
22 -0.15
23 0.12
24 -0.15
25 0.14
26 -0.15
27 -0.15
28 -0.15
29 -0.15
3 -0.65
30 0.49
31 -0.15
32 -0.15
33 0.09
34 0.63
35 0.15
36 0.4
4 -0.57
40 0.15
41 0.15
45 0.15
46 0.15
47 0.15
48 0.15
49 0.15
5 0.29
50 0.15
51 0.5
6 -0.16
7 -0.52
8 -0.57
9 -0.56

> <PUBCHEM_EFFECTIVE_ROTOR_COUNT>
3

> <PUBCHEM_PHARMACOPHORE_FEATURES>
12
1 1 acceptor
1 2 acceptor
1 3 acceptor
1 4 acceptor
1 7 donor
1 9 acceptor
3 3 4 34 anion
5 5 8 11 13 18 rings
5 6 7 15 19 20 rings
6 13 18 22 24 26 27 rings
6 23 28 29 31 32 33 rings
6 5 10 11 12 14 16 rings

> <PUBCHEM_HEAVY_ATOM_COUNT>
34

> <PUBCHEM_ATOM_DEF_STEREO_COUNT>
0

> <PUBCHEM_ATOM_UDEF_STEREO_COUNT>
0

> <PUBCHEM_BOND_DEF_STEREO_COUNT>
0

> <PUBCHEM_BOND_UDEF_STEREO_COUNT>
1

> <PUBCHEM_ISOTOPIC_ATOM_COUNT>
0

> <PUBCHEM_COMPONENT_COUNT>
1

> <PUBCHEM_CACTVS_TAUTO_COUNT>
6

> <PUBCHEM_CONFORMER_ID>
002BC51500000001

> <PUBCHEM_MMFF94_ENERGY>
123.1078

> <PUBCHEM_FEATURE_SELFOVERLAP>
61.17

> <PUBCHEM_SHAPE_FINGERPRINT>
10 15 18334007316352552808
10258939 38 18261107426791778080
106641 1 18412542133067897416
10670039 82 13407066004105194223
10930396 42 17749655390192012304
11115154 58 13334730220181374735
11421498 54 16988280864152114458
11607047 141 15696901158113635966
11828532 37 16878239665621446337
12202916 173 18040154024387808667
12236239 1 16917345926735209564
12664476 115 11024110937252871843
12741549 16 18334570239782919941
13383668 1 17968083210166418803
13402501 40 18334295353237620282
13540713 4 18122058706834410124
13782708 43 18042967567279517430
13811026 1 17821725053077160885
14028597 1 17060343993775158994
14068700 675 15863787287919762212
14294032 229 14476956754100650737
14849402 71 17489016180265729240
15188451 53 16370441146851135742
15510800 12 18041575684580391251
16992610 120 14836127706254509504
18335252 114 10881398755260963171
19303781 99 17532096188836296499
19315958 150 18130510743555320415
20105231 36 18272657810397540838
2026 5 17967250902045852587
20505436 4 16056875832277800974
20554085 129 12895357689746153621
21130935 74 18190175698728112346
21267235 1 18272650105241320996
21521721 280 17988917903851512368
21623969 137 18413106139372133878
21781051 124 18335431166804792374
22149856 69 18270412593776605465
22224240 67 18131064952870252226
22956985 138 17901099721306024234
23559900 14 16515693285384403916
23576562 1 8069443916599836507
2747138 104 18410580573699919976
2838139 119 11314310525612835655
3004659 81 15502373461021053769
3178227 256 18272650169064684248
3383291 50 17822016432581071723
4093350 32 16128380350724391806
4340502 62 18060703904925647847
4461854 278 18343867740113798838
474113 269 8502111647401086032
5104073 3 18196655094532211152
5758199 1 17704351087200081850
58260988 521 18408882919890111038
59682541 35 18411979186950416674
6009941 240 18262514785424260453
6081469 158 17312818277724597287
6126387 218 18341331120735264841
6376802 90 17753882814610906173
6523845 18 18341058441709100350
6703917 75 12967134951352690505
86090 222 18335718108695044427
9689198 14 13973962120978334706
9962374 69 18264202677273831767

> <PUBCHEM_SHAPE_MULTIPOLES>
651.32
23.6
2.39
1.79
19.43
1.27
-0.54
7.49
14.2
-2.09
-1.31
1.25
-0.27
3.04

> <PUBCHEM_SHAPE_SELFOVERLAP>
1471.882

> <PUBCHEM_SHAPE_VOLUME>
340.5

> <PUBCHEM_COORDINATE_TYPE>
2
5
10

$$$$
