201327
  -OEChem-10052115143D

 26 28  0     0  0  0  0  0  0999 V2000
   -1.2153    2.7970   -0.0030 O   0  0  0  0  0  0  0  0  0  0  0  0
    0.1336   -1.3349   -0.0020 N   0  0  0  0  0  0  0  0  0  0  0  0
    0.6937    1.6427    0.0002 N   0  0  0  0  0  0  0  0  0  0  0  0
    1.3966   -0.7432   -0.0006 C   0  0  0  0  0  0  0  0  0  0  0  0
   -1.1762   -0.8476   -0.0014 C   0  0  0  0  0  0  0  0  0  0  0  0
    1.6521    0.6219    0.0010 C   0  0  0  0  0  0  0  0  0  0  0  0
   -1.5666    0.4919    0.0001 C   0  0  0  0  0  0  0  0  0  0  0  0
   -0.6786    1.6817   -0.0011 C   0  0  0  0  0  0  0  0  0  0  0  0
    2.5059   -1.6254   -0.0008 C   0  0  0  0  0  0  0  0  0  0  0  0
   -2.1928   -1.8402   -0.0009 C   0  0  0  0  0  0  0  0  0  0  0  0
    2.9914    1.0749    0.0020 C   0  0  0  0  0  0  0  0  0  0  0  0
   -2.9536    0.7913    0.0020 C   0  0  0  0  0  0  0  0  0  0  0  0
    3.8232   -1.1700    0.0000 C   0  0  0  0  0  0  0  0  0  0  0  0
   -3.5492   -1.5284    0.0009 C   0  0  0  0  0  0  0  0  0  0  0  0
    4.0675    0.1908    0.0013 C   0  0  0  0  0  0  0  0  0  0  0  0
   -3.9317   -0.2023    0.0022 C   0  0  0  0  0  0  0  0  0  0  0  0
    0.1768   -2.3511   -0.0041 H   0  0  0  0  0  0  0  0  0  0  0  0
    1.0975    2.5777    0.0003 H   0  0  0  0  0  0  0  0  0  0  0  0
    2.3407   -2.7026   -0.0018 H   0  0  0  0  0  0  0  0  0  0  0  0
   -1.9177   -2.8951   -0.0017 H   0  0  0  0  0  0  0  0  0  0  0  0
    3.2106    2.1421    0.0029 H   0  0  0  0  0  0  0  0  0  0  0  0
   -3.3109    1.8197    0.0031 H   0  0  0  0  0  0  0  0  0  0  0  0
    4.6465   -1.8772   -0.0004 H   0  0  0  0  0  0  0  0  0  0  0  0
   -4.2936   -2.3180    0.0013 H   0  0  0  0  0  0  0  0  0  0  0  0
    5.0854    0.5674    0.0019 H   0  0  0  0  0  0  0  0  0  0  0  0
   -4.9833    0.0667    0.0036 H   0  0  0  0  0  0  0  0  0  0  0  0
  1  8  2  0  0  0  0
  2  4  1  0  0  0  0
  2  5  1  0  0  0  0
  2 17  1  0  0  0  0
  3  6  1  0  0  0  0
  3  8  1  0  0  0  0
  3 18  1  0  0  0  0
  4  6  1  0  0  0  0
  4  9  2  0  0  0  0
  5  7  1  0  0  0  0
  5 10  2  0  0  0  0
  6 11  2  0  0  0  0
  7  8  1  0  0  0  0
  7 12  2  0  0  0  0
  9 13  1  0  0  0  0
  9 19  1  0  0  0  0
 10 14  1  0  0  0  0
 10 20  1  0  0  0  0
 11 15  1  0  0  0  0
 11 21  1  0  0  0  0
 12 16  1  0  0  0  0
 12 22  1  0  0  0  0
 13 15  2  0  0  0  0
 13 23  1  0  0  0  0
 14 16  2  0  0  0  0
 14 24  1  0  0  0  0
 15 25  1  0  0  0  0
 16 26  1  0  0  0  0
M  END
> <PUBCHEM_COMPOUND_CID>
201327

> <PUBCHEM_CONFORMER_RMSD>
0.4

> <PUBCHEM_CONFORMER_DIVERSEORDER>
1

> <PUBCHEM_MMFF94_PARTIAL_CHARGES>
26
1 -0.57
10 -0.15
11 -0.15
12 -0.15
13 -0.15
14 -0.15
15 -0.15
16 -0.15
17 0.4
18 0.37
19 0.15
2 -0.6
20 0.15
21 0.15
22 0.15
23 0.15
24 0.15
25 0.15
26 0.15
3 -0.55
4 0.1
5 0.1
6 0.12
7 0.09
8 0.54
9 -0.15

> <PUBCHEM_EFFECTIVE_ROTOR_COUNT>
0.4

> <PUBCHEM_PHARMACOPHORE_FEATURES>
7
1 1 acceptor
1 2 cation
1 2 donor
1 3 donor
6 4 6 9 11 13 15 rings
6 5 7 10 12 14 16 rings
7 2 3 4 5 6 7 8 rings

> <PUBCHEM_HEAVY_ATOM_COUNT>
16

> <PUBCHEM_ATOM_DEF_STEREO_COUNT>
0

> <PUBCHEM_ATOM_UDEF_STEREO_COUNT>
0

> <PUBCHEM_BOND_DEF_STEREO_COUNT>
0

> <PUBCHEM_BOND_UDEF_STEREO_COUNT>
0

> <PUBCHEM_ISOTOPIC_ATOM_COUNT>
0

> <PUBCHEM_COMPONENT_COUNT>
1

> <PUBCHEM_CACTVS_TAUTO_COUNT>
5

> <PUBCHEM_CONFORMER_ID>
0003126F00000001

> <PUBCHEM_MMFF94_ENERGY>
73.5802

> <PUBCHEM_FEATURE_SELFOVERLAP>
35.533

> <PUBCHEM_SHAPE_FINGERPRINT>
10608611 8 18411696573865543776
10616163 171 18412266112235669166
10618630 7 18409449197767764812
10967382 1 18266740366568025158
11132069 177 18412539916294943362
11471102 20 18410288137987840534
11543360 7 15575003921701531683
12032990 46 18410015467736375491
13140716 1 18411140255294090155
13221675 6 18411136930941949358
13583140 156 14261348012281394831
14115302 16 17967823772539621031
14144814 61 18411419496835137042
15196674 1 18410855468718109383
15442244 35 18193274083840589458
15536298 74 18342739649994258360
16945 1 18338517413336838662
17802600 8 18412820270628022602
17804303 29 18342179942546064124
18186145 218 17676481756938037542
18522853 276 18412260644847478074
19107657 46 18411699893701177414
193761 8 17906170650950792359
200 152 18059848493938820487
20510252 161 18271806757256399288
20871998 184 18201718418618813927
21029758 11 18341324574524597597
21267235 1 18410302422970302851
21501502 16 18338239250202036368
221490 88 17975135654088234339
2334 1 18338799047306668423
23402539 116 18342166778329117734
23463225 33 18410013260006926508
23557571 272 18272661133873513366
23559900 14 18340481176144286512
2748010 2 18339357594902598749
2871803 45 18335698330127292958
3312278 4 18408886243535226443
335352 9 18194401095710958141
34934 24 18339353153911877799
5104073 3 18411138047580628330
537710 114 18337397131273833501
7364860 26 18124877021282375593
8809292 202 18333454256764795962
9709674 26 18340492175139281006

> <PUBCHEM_SHAPE_MULTIPOLES>
313.44
7.06
2.26
0.6
1.36
0.73
0
-1.93
0.01
-0.57
0
0
-0.02
0

> <PUBCHEM_SHAPE_SELFOVERLAP>
696.38

> <PUBCHEM_SHAPE_VOLUME>
163.9

> <PUBCHEM_COORDINATE_TYPE>
2
5
10

$$$$
