24905188
  -OEChem-10052115163D

 38 41  0     0  0  0  0  0  0999 V2000
    2.4067    1.0260    0.0407 N   0  0  0  0  0  0  0  0  0  0  0  0
    1.1222    1.4017   -0.1025 N   0  0  0  0  0  0  0  0  0  0  0  0
    3.7361   -0.9889    0.2291 N   0  0  0  0  0  0  0  0  0  0  0  0
   -5.0863    0.2340   -0.4659 N   0  0  0  0  0  0  0  0  0  0  0  0
    2.3516   -2.9951    0.1343 N   0  0  0  0  0  0  0  0  0  0  0  0
   -0.0207   -2.9144   -0.1162 N   0  0  0  0  0  0  0  0  0  0  0  0
    3.4379    2.0331    0.1232 C   0  0  0  0  0  0  0  0  0  0  0  0
    0.4607    0.2398   -0.1427 C   0  0  0  0  0  0  0  0  0  0  0  0
    1.3122   -0.8746   -0.0263 C   0  0  0  0  0  0  0  0  0  0  0  0
    2.5770   -0.3256    0.0919 C   0  0  0  0  0  0  0  0  0  0  0  0
   -0.9684    0.2367   -0.2914 C   0  0  0  0  0  0  0  0  0  0  0  0
    3.2518    2.9303    1.3494 C   0  0  0  0  0  0  0  0  0  0  0  0
    3.5129    2.8684   -1.1573 C   0  0  0  0  0  0  0  0  0  0  0  0
   -3.1810    0.2614    0.6945 C   0  0  0  0  0  0  0  0  0  0  0  0
   -1.7803    0.2649    0.8482 C   0  0  0  0  0  0  0  0  0  0  0  0
    1.2203   -2.2622   -0.0017 C   0  0  0  0  0  0  0  0  0  0  0  0
   -3.7156    0.2301   -0.5953 C   0  0  0  0  0  0  0  0  0  0  0  0
   -1.5298    0.2052   -1.5664 C   0  0  0  0  0  0  0  0  0  0  0  0
   -2.9164    0.2015   -1.7436 C   0  0  0  0  0  0  0  0  0  0  0  0
   -4.2778    0.2839    1.6007 C   0  0  0  0  0  0  0  0  0  0  0  0
   -5.4355    0.2664    0.8575 C   0  0  0  0  0  0  0  0  0  0  0  0
    3.5224   -2.3225    0.2398 C   0  0  0  0  0  0  0  0  0  0  0  0
    4.3960    1.5113    0.2359 H   0  0  0  0  0  0  0  0  0  0  0  0
    4.0871    3.6321    1.4451 H   0  0  0  0  0  0  0  0  0  0  0  0
    3.2066    2.3324    2.2665 H   0  0  0  0  0  0  0  0  0  0  0  0
    2.3270    3.5147    1.2875 H   0  0  0  0  0  0  0  0  0  0  0  0
    3.6545    2.2263   -2.0337 H   0  0  0  0  0  0  0  0  0  0  0  0
    4.3535    3.5689   -1.1130 H   0  0  0  0  0  0  0  0  0  0  0  0
    2.5982    3.4504   -1.3157 H   0  0  0  0  0  0  0  0  0  0  0  0
   -1.3455    0.2887    1.8446 H   0  0  0  0  0  0  0  0  0  0  0  0
   -0.8943    0.1826   -2.4498 H   0  0  0  0  0  0  0  0  0  0  0  0
   -3.3525    0.1771   -2.7366 H   0  0  0  0  0  0  0  0  0  0  0  0
   -4.2268    0.3103    2.6806 H   0  0  0  0  0  0  0  0  0  0  0  0
   -5.7395    0.2155   -1.2370 H   0  0  0  0  0  0  0  0  0  0  0  0
   -6.4754    0.2741    1.1523 H   0  0  0  0  0  0  0  0  0  0  0  0
    4.4081   -2.9394    0.3474 H   0  0  0  0  0  0  0  0  0  0  0  0
   -0.8803   -2.3953   -0.2181 H   0  0  0  0  0  0  0  0  0  0  0  0
   -0.0426   -3.9252   -0.0934 H   0  0  0  0  0  0  0  0  0  0  0  0
  1  2  1  0  0  0  0
  1  7  1  0  0  0  0
  1 10  1  0  0  0  0
  2  8  2  0  0  0  0
  3 10  2  0  0  0  0
  3 22  1  0  0  0  0
  4 17  1  0  0  0  0
  4 21  1  0  0  0  0
  4 34  1  0  0  0  0
  5 16  1  0  0  0  0
  5 22  2  0  0  0  0
  6 16  1  0  0  0  0
  6 37  1  0  0  0  0
  6 38  1  0  0  0  0
  7 12  1  0  0  0  0
  7 13  1  0  0  0  0
  7 23  1  0  0  0  0
  8  9  1  0  0  0  0
  8 11  1  0  0  0  0
  9 10  1  0  0  0  0
  9 16  2  0  0  0  0
 11 15  2  0  0  0  0
 11 18  1  0  0  0  0
 12 24  1  0  0  0  0
 12 25  1  0  0  0  0
 12 26  1  0  0  0  0
 13 27  1  0  0  0  0
 13 28  1  0  0  0  0
 13 29  1  0  0  0  0
 14 15  1  0  0  0  0
 14 17  2  0  0  0  0
 14 20  1  0  0  0  0
 15 30  1  0  0  0  0
 17 19  1  0  0  0  0
 18 19  2  0  0  0  0
 18 31  1  0  0  0  0
 19 32  1  0  0  0  0
 20 21  2  0  0  0  0
 20 33  1  0  0  0  0
 21 35  1  0  0  0  0
 22 36  1  0  0  0  0
M  END
> <PUBCHEM_COMPOUND_CID>
24905188

> <PUBCHEM_CONFORMER_RMSD>
0.6

> <PUBCHEM_CONFORMER_DIVERSEORDER>
1
3
6
4
5
2

> <PUBCHEM_MMFF94_PARTIAL_CHARGES>
27
1 0.31
10 0.11
11 0.05
15 -0.15
16 0.41
17 -0.15
18 -0.15
19 -0.15
2 -0.71
20 -0.15
21 -0.3
22 0.47
3 -0.57
30 0.15
31 0.15
32 0.15
33 0.15
34 0.27
35 0.15
36 0.15
37 0.4
38 0.4
4 0.03
5 -0.62
6 -0.9
7 0.26
8 0.23

> <PUBCHEM_EFFECTIVE_ROTOR_COUNT>
2

> <PUBCHEM_PHARMACOPHORE_FEATURES>
12
1 2 acceptor
1 4 cation
1 4 donor
1 6 cation
1 6 donor
3 1 3 10 cation
3 3 5 22 cation
3 7 12 13 hydrophobe
5 1 2 8 9 10 rings
5 4 14 17 20 21 rings
6 11 14 15 17 18 19 rings
6 3 5 9 10 16 22 rings

> <PUBCHEM_HEAVY_ATOM_COUNT>
22

> <PUBCHEM_ATOM_DEF_STEREO_COUNT>
0

> <PUBCHEM_ATOM_UDEF_STEREO_COUNT>
0

> <PUBCHEM_BOND_DEF_STEREO_COUNT>
0

> <PUBCHEM_BOND_UDEF_STEREO_COUNT>
0

> <PUBCHEM_ISOTOPIC_ATOM_COUNT>
0

> <PUBCHEM_COMPONENT_COUNT>
1

> <PUBCHEM_CACTVS_TAUTO_COUNT>
9

> <PUBCHEM_CONFORMER_ID>
017C05E400000001

> <PUBCHEM_MMFF94_ENERGY>
46.0142

> <PUBCHEM_FEATURE_SELFOVERLAP>
61.267

> <PUBCHEM_SHAPE_FINGERPRINT>
10165383 225 18263656219779289948
1100329 8 18412259545652972130
12035758 1 18335123294890106378
12107183 9 17694230971940945025
12236239 1 17703786994627091127
12390115 104 17907024220309857404
12403259 415 17894911806817635229
12553582 1 18197491827572022358
12616971 3 18060136518835427517
12644460 14 18409730660091662840
12892183 10 18338530694246429113
12895836 83 17608955401439103108
13140716 1 18337945813984220658
13533116 47 18412267225212044971
13583140 156 18271528710460019801
13631057 29 17911792789496947927
13955234 65 18410855456107664122
14386348 63 17604155826750564491
14739800 52 16844710041405412800
14790565 3 17902242435149890380
14955137 171 18271532979473278774
15342168 16 18263367060694513197
15842332 3 17774705537552492487
15961568 22 16371298829997561500
1813 80 17914344476637932126
18186145 218 18412825815309716524
18785283 64 18260550043621926316
19784866 34 18199181974296125400
200 152 18270391695035214687
204376 136 18264490757230053837
20645477 70 18334287648182147319
20739085 24 18335432239628978284
21033648 29 17967801748126967605
21065201 7 16443345326166601137
21756936 100 17985832764044323980
22079108 93 18127414664528901569
22122407 14 18130241358985642249
22182313 1 17968640645455197996
2255824 54 18341613694300606086
23557571 272 16950564333742519109
23559900 14 16443347533326428854
31174 14 18334576789554233534
312423 11 18201170849133534273
3286 77 18188777132389829551
38570 142 18057343853537657500
4340502 62 18340492274244938011
4409770 3 15392359239512684455
458136 41 18336270136498340652
474 4 18199462336791890920
495365 180 18410007753890651193
5104073 3 18410015451105035995
59755656 520 18198624522264586540
6034566 193 17755024438102868948
6049 1 17895471410696225045
621550 34 18113617902286940805
633830 44 17987239013520014332
7495541 125 17822296747404694162
77492 1 17703501134530872039
81228 2 17041748800245028832
8272917 22 18341057332795101941
9981440 41 15834488855394821328
9999458 23 18260833700489782182

> <PUBCHEM_SHAPE_MULTIPOLES>
422.86
9.53
2.98
1.27
8.88
0.77
-0.16
-3.01
1.68
-5.75
0.23
1
-0.55
-0.18

> <PUBCHEM_SHAPE_SELFOVERLAP>
949.53

> <PUBCHEM_SHAPE_VOLUME>
222.2

> <PUBCHEM_COORDINATE_TYPE>
2
5
10

$$$$
