52942235
  -OEChem-10052115143D

 38 40  0     0  0  0  0  0  0999 V2000
    3.7341    0.2765   -2.4636 Cl  0  0  0  0  0  0  0  0  0  0  0  0
    5.5980    1.2786    0.4427 O   0  0  0  0  0  0  0  0  0  0  0  0
   -2.6824    1.0283    0.0188 N   0  0  0  0  0  0  0  0  0  0  0  0
   -1.3911    1.4032    0.0787 N   0  0  0  0  0  0  0  0  0  0  0  0
   -4.0227   -0.9862   -0.0691 N   0  0  0  0  0  0  0  0  0  0  0  0
   -2.6369   -2.9935   -0.0431 N   0  0  0  0  0  0  0  0  0  0  0  0
   -0.2535   -2.9142    0.0582 N   0  0  0  0  0  0  0  0  0  0  0  0
    5.5903   -1.0137    0.3833 N   0  0  0  0  0  0  0  0  0  0  0  0
   -3.7157    2.0361   -0.0122 C   0  0  0  0  0  0  0  0  0  0  0  0
   -2.8567   -0.3234   -0.0099 C   0  0  0  0  0  0  0  0  0  0  0  0
   -1.5875   -0.8732    0.0344 C   0  0  0  0  0  0  0  0  0  0  0  0
   -0.7294    0.2408    0.0879 C   0  0  0  0  0  0  0  0  0  0  0  0
   -3.6011    2.9218   -1.2554 C   0  0  0  0  0  0  0  0  0  0  0  0
   -3.7147    2.8832    1.2626 C   0  0  0  0  0  0  0  0  0  0  0  0
    0.7107    0.2369    0.1440 C   0  0  0  0  0  0  0  0  0  0  0  0
   -1.4986   -2.2612    0.0160 C   0  0  0  0  0  0  0  0  0  0  0  0
    1.4550    0.2561   -1.0355 C   0  0  0  0  0  0  0  0  0  0  0  0
    1.3601    0.2133    1.3783 C   0  0  0  0  0  0  0  0  0  0  0  0
   -3.8114   -2.3201   -0.0813 C   0  0  0  0  0  0  0  0  0  0  0  0
    2.8488    0.2521   -0.9808 C   0  0  0  0  0  0  0  0  0  0  0  0
    2.7540    0.2089    1.4329 C   0  0  0  0  0  0  0  0  0  0  0  0
    3.4983    0.2285    0.2534 C   0  0  0  0  0  0  0  0  0  0  0  0
    4.9524    0.2211    0.3596 C   0  0  0  0  0  0  0  0  0  0  0  0
   -4.6792    1.5147   -0.0638 H   0  0  0  0  0  0  0  0  0  0  0  0
   -2.6740    3.5057   -1.2530 H   0  0  0  0  0  0  0  0  0  0  0  0
   -4.4402    3.6236   -1.3085 H   0  0  0  0  0  0  0  0  0  0  0  0
   -3.6100    2.3156   -2.1680 H   0  0  0  0  0  0  0  0  0  0  0  0
   -3.8056    2.2494    2.1516 H   0  0  0  0  0  0  0  0  0  0  0  0
   -4.5556    3.5848    1.2611 H   0  0  0  0  0  0  0  0  0  0  0  0
   -2.7916    3.4649    1.3619 H   0  0  0  0  0  0  0  0  0  0  0  0
    0.9480    0.2739   -1.9985 H   0  0  0  0  0  0  0  0  0  0  0  0
    0.7944    0.1975    2.3068 H   0  0  0  0  0  0  0  0  0  0  0  0
   -4.7026   -2.9367   -0.1282 H   0  0  0  0  0  0  0  0  0  0  0  0
    3.2474    0.1901    2.4014 H   0  0  0  0  0  0  0  0  0  0  0  0
    0.6111   -2.3955    0.1027 H   0  0  0  0  0  0  0  0  0  0  0  0
   -0.2340   -3.9251    0.0432 H   0  0  0  0  0  0  0  0  0  0  0  0
    6.5997   -1.0783    0.4622 H   0  0  0  0  0  0  0  0  0  0  0  0
    5.0767   -1.8872    0.3237 H   0  0  0  0  0  0  0  0  0  0  0  0
  1 20  1  0  0  0  0
  2 23  2  0  0  0  0
  3  4  1  0  0  0  0
  3  9  1  0  0  0  0
  3 10  1  0  0  0  0
  4 12  2  0  0  0  0
  5 10  2  0  0  0  0
  5 19  1  0  0  0  0
  6 16  1  0  0  0  0
  6 19  2  0  0  0  0
  7 16  1  0  0  0  0
  7 35  1  0  0  0  0
  7 36  1  0  0  0  0
  8 23  1  0  0  0  0
  8 37  1  0  0  0  0
  8 38  1  0  0  0  0
  9 13  1  0  0  0  0
  9 14  1  0  0  0  0
  9 24  1  0  0  0  0
 10 11  1  0  0  0  0
 11 12  1  0  0  0  0
 11 16  2  0  0  0  0
 12 15  1  0  0  0  0
 13 25  1  0  0  0  0
 13 26  1  0  0  0  0
 13 27  1  0  0  0  0
 14 28  1  0  0  0  0
 14 29  1  0  0  0  0
 14 30  1  0  0  0  0
 15 17  2  0  0  0  0
 15 18  1  0  0  0  0
 17 20  1  0  0  0  0
 17 31  1  0  0  0  0
 18 21  2  0  0  0  0
 18 32  1  0  0  0  0
 19 33  1  0  0  0  0
 20 22  2  0  0  0  0
 21 22  1  0  0  0  0
 21 34  1  0  0  0  0
 22 23  1  0  0  0  0
M  END
> <PUBCHEM_COMPOUND_CID>
52942235

> <PUBCHEM_CONFORMER_RMSD>
0.6

> <PUBCHEM_CONFORMER_DIVERSEORDER>
1
5
20
15
16
12
8
19
2
17
4
6
18
13
9
3
11
10
7
14

> <PUBCHEM_MMFF94_PARTIAL_CHARGES>
28
1 -0.18
10 0.11
12 0.23
15 0.05
16 0.41
17 -0.15
18 -0.15
19 0.47
2 -0.57
20 0.18
21 -0.15
22 0.09
23 0.54
3 0.31
31 0.15
32 0.15
33 0.15
34 0.15
35 0.4
36 0.4
37 0.37
38 0.37
4 -0.71
5 -0.57
6 -0.62
7 -0.9
8 -0.8
9 0.26

> <PUBCHEM_EFFECTIVE_ROTOR_COUNT>
3

> <PUBCHEM_PHARMACOPHORE_FEATURES>
11
1 2 acceptor
1 4 acceptor
1 7 cation
1 7 donor
1 8 donor
3 3 5 10 cation
3 5 6 19 cation
3 9 13 14 hydrophobe
5 3 4 10 11 12 rings
6 15 17 18 20 21 22 rings
6 5 6 10 11 16 19 rings

> <PUBCHEM_HEAVY_ATOM_COUNT>
23

> <PUBCHEM_ATOM_DEF_STEREO_COUNT>
0

> <PUBCHEM_ATOM_UDEF_STEREO_COUNT>
0

> <PUBCHEM_BOND_DEF_STEREO_COUNT>
0

> <PUBCHEM_BOND_UDEF_STEREO_COUNT>
0

> <PUBCHEM_ISOTOPIC_ATOM_COUNT>
0

> <PUBCHEM_COMPONENT_COUNT>
1

> <PUBCHEM_CACTVS_TAUTO_COUNT>
10

> <PUBCHEM_CONFORMER_ID>
0327D59B00000001

> <PUBCHEM_MMFF94_ENERGY>
61.51

> <PUBCHEM_FEATURE_SELFOVERLAP>
56.099

> <PUBCHEM_SHAPE_FINGERPRINT>
10319926 262 18270664430048780466
10411042 1 17906168804648358627
105312 117 18189889825720883837
11049842 53 18120400703735572102
11315181 36 18187924023700385408
11582403 64 16623428824936636441
11796584 16 18270401590861956462
12107183 9 18047743811588678554
12236239 1 17749103422026393498
12390115 104 18200326416003910025
12500047 106 18412537687370394954
12788726 201 18191603044945795407
13140716 1 18122630715491212155
13167823 11 18334289886277028538
13583140 156 17988630922557922802
14294032 229 18263358102379411437
14386348 63 17632305622055053662
14508225 48 18195511818005327565
15042514 8 18265336295200852499
15375358 24 17775566416734495452
16752209 62 18336819870906171651
17844677 252 18340772632562073040
200 152 16660633098611703486
20510252 161 18271525385859836329
20645477 56 18411985741218553825
20645477 70 16415207728442782156
21033648 29 17346305016935118664
21033650 10 18191330259157390676
21065201 7 18412546518071296210
21279426 13 18200035019768958966
22182313 1 17704084992443171382
22224240 67 18270694061213473417
23402539 116 18340760546291857215
23557571 272 18201161035302171824
23559900 14 18269545208030410856
23598291 2 17676492773845293156
283562 15 18411976992892411443
312423 11 17822584913776752948
34797466 226 18058463169765894900
350125 39 18410856594522105425
4214541 1 18410853265790393744
474 4 16879637213926158020
5104073 3 18411131433937537000
5265222 85 18270971271303236310
559249 180 18335976464041765506
573450 72 18334288773642849138
59755656 215 18343301444907848167
59755656 520 18200029530779428041
6327066 14 18043519530796598389
633830 44 17772753762785335397
77492 1 17676203593386036096
81228 2 18338519763411865651
9709674 26 18273220798245830478
9862522 239 17823129026225504781

> <PUBCHEM_SHAPE_MULTIPOLES>
439.44
10.49
2.98
1.35
9.8
0.71
0.52
-2.87
-0.1
-5.58
0.02
1.3
-0.59
-0.14

> <PUBCHEM_SHAPE_SELFOVERLAP>
954.457

> <PUBCHEM_SHAPE_VOLUME>
241.7

> <PUBCHEM_COORDINATE_TYPE>
2
5
10

$$$$
