24905227
  -OEChem-10052115143D

 44 48  0     0  0  0  0  0  0999 V2000
    6.9577   -0.8610   -0.0012 O   0  0  0  0  0  0  0  0  0  0  0  0
   -2.6971   -0.2847   -0.0207 N   0  0  0  0  0  0  0  0  0  0  0  0
   -1.4805   -0.8319    0.1594 N   0  0  0  0  0  0  0  0  0  0  0  0
   -3.7282    1.8902   -0.2827 N   0  0  0  0  0  0  0  0  0  0  0  0
   -2.0793    3.6859   -0.2004 N   0  0  0  0  0  0  0  0  0  0  0  0
    0.2536    3.2820    0.1028 N   0  0  0  0  0  0  0  0  0  0  0  0
    4.8667   -0.5223    0.9021 N   0  0  0  0  0  0  0  0  0  0  0  0
   -3.9121   -1.1809   -0.1087 C   0  0  0  0  0  0  0  0  0  0  0  0
   -4.1614   -2.0461    1.1443 C   0  0  0  0  0  0  0  0  0  0  0  0
   -3.8327   -2.1683   -1.2868 C   0  0  0  0  0  0  0  0  0  0  0  0
   -4.0603   -3.4933    0.6758 C   0  0  0  0  0  0  0  0  0  0  0  0
   -4.5033   -3.4343   -0.7754 C   0  0  0  0  0  0  0  0  0  0  0  0
   -2.6759    1.0757   -0.1050 C   0  0  0  0  0  0  0  0  0  0  0  0
   -1.3495    1.4461    0.0298 C   0  0  0  0  0  0  0  0  0  0  0  0
   -0.6642    0.2273    0.1893 C   0  0  0  0  0  0  0  0  0  0  0  0
    0.7479    0.0354    0.3704 C   0  0  0  0  0  0  0  0  0  0  0  0
   -1.0642    2.8064   -0.0231 C   0  0  0  0  0  0  0  0  0  0  0  0
    1.5757   -0.1333   -0.7416 C   0  0  0  0  0  0  0  0  0  0  0  0
    1.2876    0.0189    1.6573 C   0  0  0  0  0  0  0  0  0  0  0  0
   -3.3304    3.1804   -0.3175 C   0  0  0  0  0  0  0  0  0  0  0  0
    2.9501   -0.3196   -0.5674 C   0  0  0  0  0  0  0  0  0  0  0  0
    3.4835   -0.3348    0.7267 C   0  0  0  0  0  0  0  0  0  0  0  0
    2.6578   -0.1661    1.8396 C   0  0  0  0  0  0  0  0  0  0  0  0
    3.8490   -0.4994   -1.7049 C   0  0  0  0  0  0  0  0  0  0  0  0
    5.1614   -0.6762   -1.5151 C   0  0  0  0  0  0  0  0  0  0  0  0
    5.7482   -0.6961   -0.1472 C   0  0  0  0  0  0  0  0  0  0  0  0
   -4.7613   -0.5011   -0.2491 H   0  0  0  0  0  0  0  0  0  0  0  0
   -5.1762   -1.8553    1.5146 H   0  0  0  0  0  0  0  0  0  0  0  0
   -3.4689   -1.8377    1.9660 H   0  0  0  0  0  0  0  0  0  0  0  0
   -2.7956   -2.3868   -1.5670 H   0  0  0  0  0  0  0  0  0  0  0  0
   -4.3343   -1.7753   -2.1771 H   0  0  0  0  0  0  0  0  0  0  0  0
   -4.6793   -4.1672    1.2749 H   0  0  0  0  0  0  0  0  0  0  0  0
   -3.0207   -3.8360    0.7399 H   0  0  0  0  0  0  0  0  0  0  0  0
   -4.2017   -4.3210   -1.3401 H   0  0  0  0  0  0  0  0  0  0  0  0
   -5.5937   -3.3394   -0.8384 H   0  0  0  0  0  0  0  0  0  0  0  0
    1.1520   -0.1195   -1.7443 H   0  0  0  0  0  0  0  0  0  0  0  0
    0.6522    0.1500    2.5302 H   0  0  0  0  0  0  0  0  0  0  0  0
   -4.1190    3.9118   -0.4584 H   0  0  0  0  0  0  0  0  0  0  0  0
    3.0676   -0.1769    2.8459 H   0  0  0  0  0  0  0  0  0  0  0  0
    1.0301    2.6510    0.2359 H   0  0  0  0  0  0  0  0  0  0  0  0
    0.4168    4.2790    0.0588 H   0  0  0  0  0  0  0  0  0  0  0  0
    3.4333   -0.4868   -2.7065 H   0  0  0  0  0  0  0  0  0  0  0  0
    5.2307   -0.5298    1.8507 H   0  0  0  0  0  0  0  0  0  0  0  0
    5.8357   -0.8103   -2.3535 H   0  0  0  0  0  0  0  0  0  0  0  0
  1 26  2  0  0  0  0
  2  3  1  0  0  0  0
  2  8  1  0  0  0  0
  2 13  1  0  0  0  0
  3 15  2  0  0  0  0
  4 13  2  0  0  0  0
  4 20  1  0  0  0  0
  5 17  1  0  0  0  0
  5 20  2  0  0  0  0
  6 17  1  0  0  0  0
  6 40  1  0  0  0  0
  6 41  1  0  0  0  0
  7 22  1  0  0  0  0
  7 26  1  0  0  0  0
  7 43  1  0  0  0  0
  8  9  1  0  0  0  0
  8 10  1  0  0  0  0
  8 27  1  0  0  0  0
  9 11  1  0  0  0  0
  9 28  1  0  0  0  0
  9 29  1  0  0  0  0
 10 12  1  0  0  0  0
 10 30  1  0  0  0  0
 10 31  1  0  0  0  0
 11 12  1  0  0  0  0
 11 32  1  0  0  0  0
 11 33  1  0  0  0  0
 12 34  1  0  0  0  0
 12 35  1  0  0  0  0
 13 14  1  0  0  0  0
 14 15  1  0  0  0  0
 14 17  2  0  0  0  0
 15 16  1  0  0  0  0
 16 18  2  0  0  0  0
 16 19  1  0  0  0  0
 18 21  1  0  0  0  0
 18 36  1  0  0  0  0
 19 23  2  0  0  0  0
 19 37  1  0  0  0  0
 20 38  1  0  0  0  0
 21 22  2  0  0  0  0
 21 24  1  0  0  0  0
 22 23  1  0  0  0  0
 23 39  1  0  0  0  0
 24 25  2  0  0  0  0
 24 42  1  0  0  0  0
 25 26  1  0  0  0  0
 25 44  1  0  0  0  0
M  END
> <PUBCHEM_COMPOUND_CID>
24905227

> <PUBCHEM_CONFORMER_RMSD>
0.6

> <PUBCHEM_CONFORMER_DIVERSEORDER>
2
3
16
8
15
7
6
11
9
13
12
10
4
5
14
1

> <PUBCHEM_MMFF94_PARTIAL_CHARGES>
30
1 -0.57
13 0.11
15 0.23
16 0.05
17 0.41
18 -0.15
19 -0.15
2 0.31
20 0.47
21 0.03
22 0.12
23 -0.15
24 -0.18
25 -0.14
26 0.62
3 -0.71
36 0.15
37 0.15
38 0.15
39 0.15
4 -0.57
40 0.4
41 0.4
42 0.15
43 0.37
44 0.15
5 -0.62
6 -0.9
7 -0.55
8 0.26

> <PUBCHEM_EFFECTIVE_ROTOR_COUNT>
3

> <PUBCHEM_PHARMACOPHORE_FEATURES>
12
1 1 acceptor
1 3 acceptor
1 6 cation
1 6 donor
1 7 donor
3 2 4 13 cation
3 4 5 20 cation
5 2 3 13 14 15 rings
5 8 9 10 11 12 rings
6 16 18 19 21 22 23 rings
6 4 5 13 14 17 20 rings
6 7 21 22 24 25 26 rings

> <PUBCHEM_HEAVY_ATOM_COUNT>
26

> <PUBCHEM_ATOM_DEF_STEREO_COUNT>
0

> <PUBCHEM_ATOM_UDEF_STEREO_COUNT>
0

> <PUBCHEM_BOND_DEF_STEREO_COUNT>
0

> <PUBCHEM_BOND_UDEF_STEREO_COUNT>
0

> <PUBCHEM_ISOTOPIC_ATOM_COUNT>
0

> <PUBCHEM_COMPONENT_COUNT>
1

> <PUBCHEM_CACTVS_TAUTO_COUNT>
14

> <PUBCHEM_CONFORMER_ID>
017C060B00000002

> <PUBCHEM_MMFF94_ENERGY>
66.949

> <PUBCHEM_FEATURE_SELFOVERLAP>
61.203

> <PUBCHEM_SHAPE_FINGERPRINT>
10411042 1 18266177413026797623
10595046 47 18333454244839645462
11056379 131 18410014303726307319
11545043 162 18273493464407893874
11796584 16 18198062470292042046
12236239 1 17604152502340408352
12363563 72 18265050417797916491
12553582 1 18335420231512179755
12616971 3 17023188167731602904
12623949 98 17487060221582467942
12714826 92 18273496766958059139
12788726 201 18260261924441780499
13140716 1 18339077194448895425
13540713 4 18268130128429644337
13583140 156 17917140607663528190
13782708 43 18131632284107560158
14114206 34 17894897564996244751
14117953 113 18271804670915578935
14251757 5 18333728018792256135
15250474 111 18115855318340184826
15842332 3 17605261905003236250
15876981 60 18333739013312916180
16087824 20 18337389333053835493
17138139 8 17459742829505349226
17686467 74 18334856173894876664
17844677 252 18412547621962300480
1813 80 18198345246216094679
18222031 100 18198620124117984871
18927931 339 18411703192457931791
19427546 20 18334013873865806700
20101258 96 18336271223257188857
20505436 4 17606971589623655200
20511986 3 17386560241962077708
20775438 99 17256513648761512571
21033648 29 17488726901216844520
21033650 10 18119837749797951454
21065201 7 18341889646060053010
21792961 116 17632019642527886422
23402539 116 18260268525627016438
23557571 272 18271805687857001944
23559900 14 18341886373036848176
255183 451 18051414273560821047
3504750 166 17681250198141454554
621550 5 17989211481244515512
6673363 416 18267599073541965812
6700243 42 17914368781773406396
7471813 234 18261113036261491340
7495541 125 17988644138283147018
7970288 3 18266458896124827951

> <PUBCHEM_SHAPE_MULTIPOLES>
499.31
12.4
3.86
1.33
14.33
2.1
0.11
-9.56
-1.82
-8.04
-0.41
1.02
-0.55
0.43

> <PUBCHEM_SHAPE_SELFOVERLAP>
1119.271

> <PUBCHEM_SHAPE_VOLUME>
263.4

> <PUBCHEM_COORDINATE_TYPE>
2
5
10

$$$$
