44565013
  -OEChem-10062122023D

 46 50  0     0  0  0  0  0  0999 V2000
    2.9564   -2.1809    0.8989 S   0  0  0  0  0  0  0  0  0  0  0  0
    1.7469   -0.7918   -0.9066 N   0  0  0  0  0  0  0  0  0  0  0  0
   -3.2989   -1.9011   -0.2912 N   0  0  0  0  0  0  0  0  0  0  0  0
   -2.3224    2.7122   -0.0008 N   0  0  0  0  0  0  0  0  0  0  0  0
   -2.7934    0.3820   -0.1399 N   0  0  0  0  0  0  0  0  0  0  0  0
    0.9469    2.2006    1.0526 N   0  0  0  0  0  0  0  0  0  0  0  0
   -0.2261    1.6617    0.6786 N   0  0  0  0  0  0  0  0  0  0  0  0
   -4.9770   -0.3599   -0.8393 N   0  0  0  0  0  0  0  0  0  0  0  0
    0.3308   -2.4173    0.2456 C   0  0  0  0  0  0  0  0  0  0  0  0
    1.5786   -1.7385   -0.0131 C   0  0  0  0  0  0  0  0  0  0  0  0
   -2.0800   -2.4903    0.1043 C   0  0  0  0  0  0  0  0  0  0  0  0
   -0.8745   -1.8345   -0.1458 C   0  0  0  0  0  0  0  0  0  0  0  0
    3.8879   -1.0113    0.0404 C   0  0  0  0  0  0  0  0  0  0  0  0
    3.0666   -0.3644   -0.8878 C   0  0  0  0  0  0  0  0  0  0  0  0
    0.3308   -3.6559    0.8870 C   0  0  0  0  0  0  0  0  0  0  0  0
   -2.0801   -3.7290    0.7457 C   0  0  0  0  0  0  0  0  0  0  0  0
   -0.8746   -4.3117    1.1373 C   0  0  0  0  0  0  0  0  0  0  0  0
    5.2478   -0.6894    0.1784 C   0  0  0  0  0  0  0  0  0  0  0  0
    3.6284    0.6399   -1.7056 C   0  0  0  0  0  0  0  0  0  0  0  0
   -3.7098   -0.5611   -0.4304 C   0  0  0  0  0  0  0  0  0  0  0  0
   -0.9859    2.7318    0.4300 C   0  0  0  0  0  0  0  0  0  0  0  0
   -3.2202    1.6537   -0.2838 C   0  0  0  0  0  0  0  0  0  0  0  0
    0.9529    3.5646    1.0484 C   0  0  0  0  0  0  0  0  0  0  0  0
   -0.3034    3.9443    0.6433 C   0  0  0  0  0  0  0  0  0  0  0  0
    5.7788    0.3081   -0.6432 C   0  0  0  0  0  0  0  0  0  0  0  0
    4.9815    0.9654   -1.5735 C   0  0  0  0  0  0  0  0  0  0  0  0
   -4.4928    1.9935   -0.6956 C   0  0  0  0  0  0  0  0  0  0  0  0
    2.1419    4.3446    1.4276 C   0  0  0  0  0  0  0  0  0  0  0  0
   -5.3368    0.9348   -0.9620 C   0  0  0  0  0  0  0  0  0  0  0  0
   -0.8514   -0.8946   -0.6878 H   0  0  0  0  0  0  0  0  0  0  0  0
    1.2330   -4.1765    1.1930 H   0  0  0  0  0  0  0  0  0  0  0  0
   -3.0125   -4.2506    0.9460 H   0  0  0  0  0  0  0  0  0  0  0  0
   -4.0676   -2.5572   -0.3919 H   0  0  0  0  0  0  0  0  0  0  0  0
   -0.8753   -5.2789    1.6315 H   0  0  0  0  0  0  0  0  0  0  0  0
    5.8763   -1.1983    0.9028 H   0  0  0  0  0  0  0  0  0  0  0  0
    3.0142    1.1603   -2.4349 H   0  0  0  0  0  0  0  0  0  0  0  0
   -2.7585    3.6219   -0.1457 H   0  0  0  0  0  0  0  0  0  0  0  0
   -0.6670    4.9550    0.5218 H   0  0  0  0  0  0  0  0  0  0  0  0
    6.8290    0.5727   -0.5523 H   0  0  0  0  0  0  0  0  0  0  0  0
    5.4117    1.7390   -2.2036 H   0  0  0  0  0  0  0  0  0  0  0  0
    1.7042    1.5748    1.2976 H   0  0  0  0  0  0  0  0  0  0  0  0
   -4.8264    3.0175   -0.8085 H   0  0  0  0  0  0  0  0  0  0  0  0
    1.9569    5.4192    1.3300 H   0  0  0  0  0  0  0  0  0  0  0  0
    2.9930    4.0905    0.7873 H   0  0  0  0  0  0  0  0  0  0  0  0
    2.4214    4.1441    2.4670 H   0  0  0  0  0  0  0  0  0  0  0  0
   -6.3566    1.1031   -1.2913 H   0  0  0  0  0  0  0  0  0  0  0  0
  1 10  1  0  0  0  0
  1 13  1  0  0  0  0
  2 10  2  0  0  0  0
  2 14  1  0  0  0  0
  3 11  1  0  0  0  0
  3 20  1  0  0  0  0
  3 33  1  0  0  0  0
  4 21  1  0  0  0  0
  4 22  1  0  0  0  0
  4 37  1  0  0  0  0
  5 20  1  0  0  0  0
  5 22  2  0  0  0  0
  6  7  1  0  0  0  0
  6 23  1  0  0  0  0
  6 41  1  0  0  0  0
  7 21  2  0  0  0  0
  8 20  2  0  0  0  0
  8 29  1  0  0  0  0
  9 10  1  0  0  0  0
  9 12  2  0  0  0  0
  9 15  1  0  0  0  0
 11 12  1  0  0  0  0
 11 16  2  0  0  0  0
 12 30  1  0  0  0  0
 13 14  1  0  0  0  0
 13 18  2  0  0  0  0
 14 19  2  0  0  0  0
 15 17  2  0  0  0  0
 15 31  1  0  0  0  0
 16 17  1  0  0  0  0
 16 32  1  0  0  0  0
 17 34  1  0  0  0  0
 18 25  1  0  0  0  0
 18 35  1  0  0  0  0
 19 26  1  0  0  0  0
 19 36  1  0  0  0  0
 21 24  1  0  0  0  0
 22 27  1  0  0  0  0
 23 24  2  0  0  0  0
 23 28  1  0  0  0  0
 24 38  1  0  0  0  0
 25 26  2  0  0  0  0
 25 39  1  0  0  0  0
 26 40  1  0  0  0  0
 27 29  2  0  0  0  0
 27 42  1  0  0  0  0
 28 43  1  0  0  0  0
 28 44  1  0  0  0  0
 28 45  1  0  0  0  0
 29 46  1  0  0  0  0
M  END
> <PUBCHEM_COMPOUND_CID>
44565013

> <PUBCHEM_CONFORMER_RMSD>
1

> <PUBCHEM_CONFORMER_DIVERSEORDER>
1
124
42
70
138
125
24
60
63
28
81
31
12
69
137
29
15
92
84
2
30
66
75
100
140
47
82
58
74
11
133
33
25
77
7
72
37
97
131
150
5
54
101
57
123
112
141
61
110
117
46
71
80
13
127
143
16
153
98
129
86
73
36
115
155
20
67
22
147
38
48
52
96
104
4
88
142
56
55
119
44
118
68
17
154
85
91
103
14
35
136
3
43
51
95
19
59
134
128
132
152
76
78
6
157
23
111
126
89
107
144
148
120
94
135
8
122
109
102
106
121
41
62
113
18
151
90
156
105
64
65
39
114
146
139
10
116
93
130
50
108
145
34
87
45
9
79
27
40
26
83
21
149
53
32
49
99

> <PUBCHEM_MMFF94_PARTIAL_CHARGES>
43
1 -0.08
10 0.33
11 0.1
12 -0.15
13 0.04
14 0.23
15 -0.15
16 -0.15
17 -0.15
18 -0.15
19 -0.15
2 -0.57
20 0.72
21 0.37
22 0.41
23 -0.33
24 -0.15
25 -0.15
26 -0.15
27 -0.15
28 0.18
29 0.16
3 -0.6
30 0.15
31 0.15
32 0.15
33 0.4
34 0.15
35 0.15
36 0.15
37 0.4
38 0.15
39 0.15
4 -0.58
40 0.15
41 0.27
42 0.15
46 0.15
5 -0.62
6 0.3
7 -0.71
8 -0.62
9 0.05

> <PUBCHEM_EFFECTIVE_ROTOR_COUNT>
5

> <PUBCHEM_PHARMACOPHORE_FEATURES>
11
1 2 acceptor
1 3 donor
1 4 donor
1 6 donor
3 4 7 21 cation
4 3 5 8 20 cation
5 1 2 10 13 14 rings
5 6 7 21 23 24 rings
6 13 14 18 19 25 26 rings
6 5 8 20 22 27 29 rings
6 9 11 12 15 16 17 rings

> <PUBCHEM_HEAVY_ATOM_COUNT>
29

> <PUBCHEM_ATOM_DEF_STEREO_COUNT>
0

> <PUBCHEM_ATOM_UDEF_STEREO_COUNT>
0

> <PUBCHEM_BOND_DEF_STEREO_COUNT>
0

> <PUBCHEM_BOND_UDEF_STEREO_COUNT>
0

> <PUBCHEM_ISOTOPIC_ATOM_COUNT>
0

> <PUBCHEM_COMPONENT_COUNT>
1

> <PUBCHEM_CACTVS_TAUTO_COUNT>
57

> <PUBCHEM_CONFORMER_ID>
02A8021500000001

> <PUBCHEM_MMFF94_ENERGY>
81.7972

> <PUBCHEM_FEATURE_SELFOVERLAP>
55.894

> <PUBCHEM_SHAPE_FINGERPRINT>
10032420 55 18338785724297394357
10675989 125 17326609203207262845
108634 29 18342749502976348406
1100329 8 18411138056117898993
12107183 9 18040986294945777066
12788726 201 18341334384039854816
13402501 40 18341890822416939725
13617811 41 18263071146602658541
14251757 5 18336272331073764842
14394314 77 18268994189491590737
14647877 51 18126001804877529528
14765038 42 18057622992046696521
14787075 74 18411696548074518077
14790565 3 17119172028096922153
14931854 50 18411134693501326885
14932702 115 18194702559919859548
15351339 4 18336821987966209899
15420108 30 16825585888035170130
15439362 3 18267577082391693841
15968369 26 18125425665164496772
16112460 7 18200606885678906825
17492 54 18410294683660469757
17818456 19 18336539405569048978
19319366 153 18262795147592796319
20531524 4 18050568748707247056
20642791 35 18267856358967102135
20715895 44 17611174967190623309
20764821 26 18338516464170444793
23559900 14 18270110343911812744
238918 7 17335612498267809392
3178227 256 18337408067289367073
3493558 16 17970926663668534398
463206 1 18411991277363203256
474144 1 17824246129775438370
5047190 48 16467266683003377536
5047190 69 18341323471161348504
508706 21 18193550301312683745
5171179 24 17983295129640121882
6823239 73 18271234014862043280
7097593 13 14661880792359913585
7226269 152 18410856560214958542
9980921 221 18051725203760299878
9981440 41 18187650163437518675

> <PUBCHEM_SHAPE_MULTIPOLES>
565.79
10.27
6.06
1.26
2.27
0.89
-0.1
2
-4.97
-1.7
3.62
0.84
0.46
0.48

> <PUBCHEM_SHAPE_SELFOVERLAP>
1248.162

> <PUBCHEM_SHAPE_VOLUME>
304.9

> <PUBCHEM_COORDINATE_TYPE>
2
5
10

$$$$
