49830472
  -OEChem-10052115183D

 48 52  0     0  0  0  0  0  0999 V2000
   -5.0612    5.2623    0.3520 F   0  0  0  0  0  0  0  0  0  0  0  0
   -5.3646   -0.9709   -0.3618 O   0  0  0  0  0  0  0  0  0  0  0  0
    3.9807   -0.4896    0.9567 N   0  0  0  0  0  0  0  0  0  0  0  0
   -2.5369   -4.1300   -0.4411 N   0  0  0  0  0  0  0  0  0  0  0  0
   -3.3775   -3.0822   -0.4252 N   0  0  0  0  0  0  0  0  0  0  0  0
   -3.0313   -0.7407   -0.1475 N   0  0  0  0  0  0  0  0  0  0  0  0
    3.6465   -2.3093   -0.1408 N   0  0  0  0  0  0  0  0  0  0  0  0
    4.5869   -1.4543    0.2459 N   0  0  0  0  0  0  0  0  0  0  0  0
   -1.2101   -2.4140   -0.1190 C   0  0  0  0  0  0  0  0  0  0  0  0
   -1.2212   -3.7969   -0.2622 C   0  0  0  0  0  0  0  0  0  0  0  0
    1.1858   -2.5167    0.1331 C   0  0  0  0  0  0  0  0  0  0  0  0
    0.0129   -1.7529    0.0829 C   0  0  0  0  0  0  0  0  0  0  0  0
   -2.5667   -2.0399   -0.2295 C   0  0  0  0  0  0  0  0  0  0  0  0
    2.4478   -1.8613    0.3404 C   0  0  0  0  0  0  0  0  0  0  0  0
   -0.0638   -4.5770   -0.2155 C   0  0  0  0  0  0  0  0  0  0  0  0
    1.1459   -3.9045   -0.0137 C   0  0  0  0  0  0  0  0  0  0  0  0
    4.7413    0.5968    1.5196 C   0  0  0  0  0  0  0  0  0  0  0  0
    2.6389   -0.6992    1.0449 C   0  0  0  0  0  0  0  0  0  0  0  0
    5.1129    1.6531    0.5087 C   0  0  0  0  0  0  0  0  0  0  0  0
   -4.3616   -0.2805   -0.2149 C   0  0  0  0  0  0  0  0  0  0  0  0
    6.1682    1.4320   -0.3762 C   0  0  0  0  0  0  0  0  0  0  0  0
    4.4004    2.8512    0.4587 C   0  0  0  0  0  0  0  0  0  0  0  0
   -4.5469    1.1867   -0.0654 C   0  0  0  0  0  0  0  0  0  0  0  0
    6.5110    2.4088   -1.3110 C   0  0  0  0  0  0  0  0  0  0  0  0
    4.7430    3.8280   -0.4762 C   0  0  0  0  0  0  0  0  0  0  0  0
    5.7985    3.6068   -1.3609 C   0  0  0  0  0  0  0  0  0  0  0  0
   -5.7461    1.6903    0.4388 C   0  0  0  0  0  0  0  0  0  0  0  0
   -3.5218    2.0601   -0.4285 C   0  0  0  0  0  0  0  0  0  0  0  0
   -5.9202    3.0669    0.5795 C   0  0  0  0  0  0  0  0  0  0  0  0
   -3.6958    3.4368   -0.2878 C   0  0  0  0  0  0  0  0  0  0  0  0
   -4.8950    3.9402    0.2162 C   0  0  0  0  0  0  0  0  0  0  0  0
    0.0257   -0.6717    0.1841 H   0  0  0  0  0  0  0  0  0  0  0  0
   -0.0971   -5.6548   -0.3290 H   0  0  0  0  0  0  0  0  0  0  0  0
    2.0588   -4.4957    0.0299 H   0  0  0  0  0  0  0  0  0  0  0  0
    5.6446    0.1737    1.9764 H   0  0  0  0  0  0  0  0  0  0  0  0
    4.1557    1.0308    2.3391 H   0  0  0  0  0  0  0  0  0  0  0  0
    1.9785   -0.0319    1.5817 H   0  0  0  0  0  0  0  0  0  0  0  0
   -2.9274   -5.0538   -0.5791 H   0  0  0  0  0  0  0  0  0  0  0  0
   -2.2967   -0.0625    0.0310 H   0  0  0  0  0  0  0  0  0  0  0  0
    6.7356    0.5058   -0.3452 H   0  0  0  0  0  0  0  0  0  0  0  0
    3.5747    3.0355    1.1408 H   0  0  0  0  0  0  0  0  0  0  0  0
    7.3335    2.2371   -1.9993 H   0  0  0  0  0  0  0  0  0  0  0  0
    4.1879    4.7607   -0.5156 H   0  0  0  0  0  0  0  0  0  0  0  0
    6.0654    4.3675   -2.0887 H   0  0  0  0  0  0  0  0  0  0  0  0
   -6.5555    1.0272    0.7328 H   0  0  0  0  0  0  0  0  0  0  0  0
   -2.5860    1.7151   -0.8577 H   0  0  0  0  0  0  0  0  0  0  0  0
   -6.8531    3.4595    0.9733 H   0  0  0  0  0  0  0  0  0  0  0  0
   -2.9010    4.1180   -0.5774 H   0  0  0  0  0  0  0  0  0  0  0  0
  1 31  1  0  0  0  0
  2 20  2  0  0  0  0
  3  8  1  0  0  0  0
  3 17  1  0  0  0  0
  3 18  1  0  0  0  0
  4  5  1  0  0  0  0
  4 10  1  0  0  0  0
  4 38  1  0  0  0  0
  5 13  2  0  0  0  0
  6 13  1  0  0  0  0
  6 20  1  0  0  0  0
  6 39  1  0  0  0  0
  7  8  2  0  0  0  0
  7 14  1  0  0  0  0
  9 10  2  0  0  0  0
  9 12  1  0  0  0  0
  9 13  1  0  0  0  0
 10 15  1  0  0  0  0
 11 12  2  0  0  0  0
 11 14  1  0  0  0  0
 11 16  1  0  0  0  0
 12 32  1  0  0  0  0
 14 18  2  0  0  0  0
 15 16  2  0  0  0  0
 15 33  1  0  0  0  0
 16 34  1  0  0  0  0
 17 19  1  0  0  0  0
 17 35  1  0  0  0  0
 17 36  1  0  0  0  0
 18 37  1  0  0  0  0
 19 21  2  0  0  0  0
 19 22  1  0  0  0  0
 20 23  1  0  0  0  0
 21 24  1  0  0  0  0
 21 40  1  0  0  0  0
 22 25  2  0  0  0  0
 22 41  1  0  0  0  0
 23 27  2  0  0  0  0
 23 28  1  0  0  0  0
 24 26  2  0  0  0  0
 24 42  1  0  0  0  0
 25 26  1  0  0  0  0
 25 43  1  0  0  0  0
 26 44  1  0  0  0  0
 27 29  1  0  0  0  0
 27 45  1  0  0  0  0
 28 30  2  0  0  0  0
 28 46  1  0  0  0  0
 29 31  2  0  0  0  0
 29 47  1  0  0  0  0
 30 31  1  0  0  0  0
 30 48  1  0  0  0  0
M  END
> <PUBCHEM_COMPOUND_CID>
49830472

> <PUBCHEM_CONFORMER_RMSD>
0.8

> <PUBCHEM_CONFORMER_DIVERSEORDER>
1
50
108
84
43
91
52
99
65
64
55
54
49
79
53
89
48
67
82
45
71
63
124
8
122
15
86
107
85
34
62
88
40
113
81
87
61
132
58
22
75
116
120
100
33
66
72
47
14
27
110
101
80
130
51
36
42
6
77
74
104
28
41
92
69
12
106
96
59
24
83
30
126
25
103
18
102
105
111
73
133
68
29
97
98
16
44
78
127
118
70
123
2
109
17
129
115
3
46
60
93
57
7
121
94
131
76
112
19
37
117
13
38
35
90
39
4
56
128
31
95
125
11
119
26
23
32
5
9
10
114
20
21

> <PUBCHEM_MMFF94_PARTIAL_CHARGES>
45
1 -0.19
10 -0.15
11 0.05
12 -0.15
13 0.35
14 0.17
15 -0.15
16 -0.15
17 0.4
18 -0.3
19 -0.14
2 -0.57
20 0.54
21 -0.15
22 -0.15
23 0.09
24 -0.15
25 -0.15
26 -0.15
27 -0.15
28 -0.15
29 -0.15
3 0.31
30 -0.15
31 0.19
32 0.15
33 0.15
34 0.15
37 0.15
38 0.27
39 0.37
4 0.3
40 0.15
41 0.15
42 0.15
43 0.15
44 0.15
45 0.15
46 0.15
47 0.15
48 0.15
5 -0.71
6 -0.49
7 -0.23
8 -0.42

> <PUBCHEM_EFFECTIVE_ROTOR_COUNT>
6

> <PUBCHEM_PHARMACOPHORE_FEATURES>
8
1 2 acceptor
1 4 donor
1 6 donor
5 3 7 8 14 18 rings
5 4 5 9 10 13 rings
6 19 21 22 24 25 26 rings
6 23 27 28 29 30 31 rings
6 9 10 11 12 15 16 rings

> <PUBCHEM_HEAVY_ATOM_COUNT>
31

> <PUBCHEM_ATOM_DEF_STEREO_COUNT>
0

> <PUBCHEM_ATOM_UDEF_STEREO_COUNT>
0

> <PUBCHEM_BOND_DEF_STEREO_COUNT>
0

> <PUBCHEM_BOND_UDEF_STEREO_COUNT>
0

> <PUBCHEM_ISOTOPIC_ATOM_COUNT>
0

> <PUBCHEM_COMPONENT_COUNT>
1

> <PUBCHEM_CACTVS_TAUTO_COUNT>
24

> <PUBCHEM_CONFORMER_ID>
02F85A4800000001

> <PUBCHEM_MMFF94_ENERGY>
71.7496

> <PUBCHEM_FEATURE_SELFOVERLAP>
40.69

> <PUBCHEM_SHAPE_FINGERPRINT>
100830 2 18261401104182507980
10883706 163 18260822692272539317
10917259 128 18050556637855047616
10917259 69 18409733972514391468
11059845 2 18123435424948553122
11273773 38 18410855421700959272
11410812 94 18120392093307962380
11761917 142 18124868208801210800
11828042 163 18269283361987874236
11828042 53 18265906933605482020
11973864 155 18056501481327892601
12107183 9 18263346041889548946
12173638 115 17907338431897026289
13627167 48 18270983279103179192
13885169 86 18339646646576484489
13944108 23 17980765935190151824
14251764 75 18410859845427135729
14347329 18 18339918329090765362
14790565 3 18410854352031874192
14849402 71 18122061996590214186
14932702 115 18131630114589770912
15274700 147 17396723332970518980
15320467 1 18339076107115677281
15400415 2 18339920407613155049
155225 5 18194963169834487736
16708801 149 18340188713982317993
16990350 14 18410570652758223586
18393751 57 18334299760723691179
19053607 189 18339069389644265761
19302320 297 18192713341104330112
20691028 202 18340201904117066313
21859007 373 17912917577413280472
22033318 11 18041827447210621512
23516275 100 17117183548153664545
23569914 152 10348284561899172894
245318 6 18186814590102498972
24893989 43 11855545746770948909
3146121 3 18412824665382438353
3146122 72 17538263061931399333
437795 96 17898841345390974637
50080093 196 17823129202287761744
5047190 36 18187093848924116532
5047190 48 18408600340352749524
5219985 13 18342173354050804183
53794403 172 18267306430420261023
550186 7 18129384967506321046
550186 72 18050565441651254239
57591035 28 17548714989103847614
5951187 136 18127982914229438590
59584819 99 16613649515872300297
6036956 94 18408878543439937749
6058803 2 18264465413082825498
6176135 31 18266169535403052281
6608658 132 17911226535996342430
6673363 416 17327753193948165172
6700243 42 14259908747888524857
7808743 9 18411131476233659722
9849439 229 18408889512221876527

> <PUBCHEM_SHAPE_MULTIPOLES>
594.94
17.31
7.88
0.95
6.73
0.7
0.05
24.49
-1.02
-5.13
-1.01
1.23
0.41
-2.77

> <PUBCHEM_SHAPE_SELFOVERLAP>
1330.576

> <PUBCHEM_SHAPE_VOLUME>
316.1

> <PUBCHEM_COORDINATE_TYPE>
2
5
10

$$$$
