11338257
  -OEChem-10052115193D

 49 52  0     0  0  0  0  0  0999 V2000
    6.2703   -1.8083   -1.7022 F   0  0  0  0  0  0  0  0  0  0  0  0
    2.6911    0.6997    0.8252 O   0  0  0  0  0  0  0  0  0  0  0  0
   -6.4594    1.1282   -0.7500 N   0  0  0  0  0  0  0  0  0  0  0  0
   -5.5612    1.5977   -1.6319 N   0  0  0  0  0  0  0  0  0  0  0  0
   -3.2169    1.2152   -1.8479 N   0  0  0  0  0  0  0  0  0  0  0  0
    1.7550   -1.0363   -0.4395 N   0  0  0  0  0  0  0  0  0  0  0  0
    4.0385   -0.6916   -0.4852 N   0  0  0  0  0  0  0  0  0  0  0  0
   -4.5796    0.1961   -0.1122 C   0  0  0  0  0  0  0  0  0  0  0  0
   -3.7479   -0.6109    0.6818 C   0  0  0  0  0  0  0  0  0  0  0  0
   -5.9345    0.2814    0.1886 C   0  0  0  0  0  0  0  0  0  0  0  0
   -2.3378   -0.7199    0.3943 C   0  0  0  0  0  0  0  0  0  0  0  0
   -4.4189    1.0286   -1.2406 C   0  0  0  0  0  0  0  0  0  0  0  0
   -4.3177   -1.3059    1.7560 C   0  0  0  0  0  0  0  0  0  0  0  0
   -6.5225   -0.4030    1.2545 C   0  0  0  0  0  0  0  0  0  0  0  0
   -5.6815   -1.2024    2.0358 C   0  0  0  0  0  0  0  0  0  0  0  0
   -1.8733   -1.7132   -0.4708 C   0  0  0  0  0  0  0  0  0  0  0  0
   -1.4322    0.1677    0.9799 C   0  0  0  0  0  0  0  0  0  0  0  0
   -7.8395    1.5400   -0.8648 C   0  0  0  0  0  0  0  0  0  0  0  0
    0.3917   -0.9308   -0.1617 C   0  0  0  0  0  0  0  0  0  0  0  0
   -0.5102   -1.8186   -0.7484 C   0  0  0  0  0  0  0  0  0  0  0  0
   -0.0691    0.0624    0.7024 C   0  0  0  0  0  0  0  0  0  0  0  0
    5.3352   -0.1752   -0.2532 C   0  0  0  0  0  0  0  0  0  0  0  0
    2.8206   -0.2417    0.0492 C   0  0  0  0  0  0  0  0  0  0  0  0
    6.7660    1.4190    0.8278 C   0  0  0  0  0  0  0  0  0  0  0  0
    5.4888    0.9072    0.5975 C   0  0  0  0  0  0  0  0  0  0  0  0
    6.4230   -0.7607   -0.8799 C   0  0  0  0  0  0  0  0  0  0  0  0
    7.8716    0.8403    0.2045 C   0  0  0  0  0  0  0  0  0  0  0  0
    7.7002   -0.2495   -0.6492 C   0  0  0  0  0  0  0  0  0  0  0  0
    6.9500    2.5846    1.7402 C   0  0  0  0  0  0  0  0  0  0  0  0
   -3.7007   -1.9395    2.3902 H   0  0  0  0  0  0  0  0  0  0  0  0
   -7.5815   -0.3241    1.4736 H   0  0  0  0  0  0  0  0  0  0  0  0
   -6.0986   -1.7526    2.8756 H   0  0  0  0  0  0  0  0  0  0  0  0
   -2.5626   -2.4132   -0.9372 H   0  0  0  0  0  0  0  0  0  0  0  0
   -1.7758    0.9480    1.6553 H   0  0  0  0  0  0  0  0  0  0  0  0
   -7.9499    2.2226   -1.7115 H   0  0  0  0  0  0  0  0  0  0  0  0
   -8.4524    0.6493   -1.0239 H   0  0  0  0  0  0  0  0  0  0  0  0
   -8.1258    2.0467    0.0601 H   0  0  0  0  0  0  0  0  0  0  0  0
   -0.1650   -2.5971   -1.4241 H   0  0  0  0  0  0  0  0  0  0  0  0
    0.5634    0.7869    1.1951 H   0  0  0  0  0  0  0  0  0  0  0  0
   -3.1297    1.8205   -2.6588 H   0  0  0  0  0  0  0  0  0  0  0  0
   -2.3475    0.7871   -1.5558 H   0  0  0  0  0  0  0  0  0  0  0  0
    2.0141   -1.7842   -1.0779 H   0  0  0  0  0  0  0  0  0  0  0  0
    3.9948   -1.4859   -1.1189 H   0  0  0  0  0  0  0  0  0  0  0  0
    4.6805    1.4024    1.1142 H   0  0  0  0  0  0  0  0  0  0  0  0
    8.8728    1.2270    0.3756 H   0  0  0  0  0  0  0  0  0  0  0  0
    8.5609   -0.7004   -1.1343 H   0  0  0  0  0  0  0  0  0  0  0  0
    6.2240    3.3720    1.5107 H   0  0  0  0  0  0  0  0  0  0  0  0
    6.8193    2.2720    2.7811 H   0  0  0  0  0  0  0  0  0  0  0  0
    7.9476    3.0251    1.6386 H   0  0  0  0  0  0  0  0  0  0  0  0
  1 26  1  0  0  0  0
  2 23  2  0  0  0  0
  3  4  1  0  0  0  0
  3 10  1  0  0  0  0
  3 18  1  0  0  0  0
  4 12  2  0  0  0  0
  5 12  1  0  0  0  0
  5 40  1  0  0  0  0
  5 41  1  0  0  0  0
  6 19  1  0  0  0  0
  6 23  1  0  0  0  0
  6 42  1  0  0  0  0
  7 22  1  0  0  0  0
  7 23  1  0  0  0  0
  7 43  1  0  0  0  0
  8  9  2  0  0  0  0
  8 10  1  0  0  0  0
  8 12  1  0  0  0  0
  9 11  1  0  0  0  0
  9 13  1  0  0  0  0
 10 14  2  0  0  0  0
 11 16  2  0  0  0  0
 11 17  1  0  0  0  0
 13 15  2  0  0  0  0
 13 30  1  0  0  0  0
 14 15  1  0  0  0  0
 14 31  1  0  0  0  0
 15 32  1  0  0  0  0
 16 20  1  0  0  0  0
 16 33  1  0  0  0  0
 17 21  2  0  0  0  0
 17 34  1  0  0  0  0
 18 35  1  0  0  0  0
 18 36  1  0  0  0  0
 18 37  1  0  0  0  0
 19 20  2  0  0  0  0
 19 21  1  0  0  0  0
 20 38  1  0  0  0  0
 21 39  1  0  0  0  0
 22 25  1  0  0  0  0
 22 26  2  0  0  0  0
 24 25  2  0  0  0  0
 24 27  1  0  0  0  0
 24 29  1  0  0  0  0
 25 44  1  0  0  0  0
 26 28  1  0  0  0  0
 27 28  2  0  0  0  0
 27 45  1  0  0  0  0
 28 46  1  0  0  0  0
 29 47  1  0  0  0  0
 29 48  1  0  0  0  0
 29 49  1  0  0  0  0
M  END
> <PUBCHEM_COMPOUND_CID>
11338257

> <PUBCHEM_CONFORMER_RMSD>
0.8

> <PUBCHEM_CONFORMER_DIVERSEORDER>
2
9
11
8
16
10
1
15
7
6
14
12
13
5
3
4

> <PUBCHEM_MMFF94_PARTIAL_CHARGES>
40
1 -0.19
10 -0.15
12 0.37
13 -0.15
14 -0.15
15 -0.15
16 -0.15
17 -0.15
18 0.26
19 0.12
2 -0.57
20 -0.15
21 -0.15
22 0.12
23 0.69
24 -0.14
25 -0.15
26 0.19
27 -0.15
28 -0.15
29 0.14
3 0.31
30 0.15
31 0.15
32 0.15
33 0.15
34 0.15
38 0.15
39 0.15
4 -0.71
40 0.4
41 0.4
42 0.37
43 0.37
44 0.15
45 0.15
46 0.15
5 -0.88
6 -0.55
7 -0.55

> <PUBCHEM_EFFECTIVE_ROTOR_COUNT>
5

> <PUBCHEM_PHARMACOPHORE_FEATURES>
9
1 2 acceptor
1 5 donor
1 6 donor
1 7 donor
3 4 5 12 cation
5 3 4 8 10 12 rings
6 11 16 17 19 20 21 rings
6 22 24 25 26 27 28 rings
6 8 9 10 13 14 15 rings

> <PUBCHEM_HEAVY_ATOM_COUNT>
29

> <PUBCHEM_ATOM_DEF_STEREO_COUNT>
0

> <PUBCHEM_ATOM_UDEF_STEREO_COUNT>
0

> <PUBCHEM_BOND_DEF_STEREO_COUNT>
0

> <PUBCHEM_BOND_UDEF_STEREO_COUNT>
0

> <PUBCHEM_ISOTOPIC_ATOM_COUNT>
0

> <PUBCHEM_COMPONENT_COUNT>
1

> <PUBCHEM_CACTVS_TAUTO_COUNT>
12

> <PUBCHEM_CONFORMER_ID>
00AD021100000002

> <PUBCHEM_MMFF94_ENERGY>
87.5846

> <PUBCHEM_FEATURE_SELFOVERLAP>
45.812

> <PUBCHEM_SHAPE_FINGERPRINT>
10 15 18259983790427360282
10066227 112 18272650169090947416
10299344 5 15626507185450964284
10319926 262 17676206917785818449
10411042 1 17243599761288654555
10554248 39 17275111630799998988
11007060 377 18339076107252814579
11135926 11 17847067657493675863
11315181 36 15123789587612558531
12082328 90 16989129760032268855
12236239 1 15285360622011424123
125118 31 18259988193344286884
13533116 47 17060063610595931622
13668630 136 10303815388737348168
13911987 19 18059569166683147567
14251764 18 15213021561602472946
14856354 85 14476957905030326381
14933364 13 17894915131043018918
15119646 104 16056606413464245966
15183329 4 16415758626491071620
15276724 80 17489871518639162112
15328684 2 15936676091669921908
15419008 47 18334856121622669892
15461852 350 18409447020995228415
15849732 13 18409169921830114902
19377110 9 15285350713574489872
20157964 124 17846502535272654902
20281389 69 18412263952267695162
21033648 29 18334569165855212992
21150785 3 16415477164193508469
21859007 373 18334286544623901300
23081809 10 16128660738895079834
23522609 53 15840730576693930394
23559900 14 17417521531532210034
23576562 1 18199737206726014109
2838139 119 17489591164421562032
3004659 81 13398626165117913650
3663271 9 16298382474787161280
397830 11 18193283111914450794
4073 2 16588034497624452042
44280117 145 18337675342946090647
504843 32 17846214522343806399
5758199 1 15502378932877675104
58260988 114 12324827747099123137
58902169 19 16056880252010605528
636775 72 18260545577310652485

> <PUBCHEM_SHAPE_MULTIPOLES>
558.76
25.92
1.82
1.59
23.45
0.35
0.18
9.91
0.2
0.45
-0.08
-1.23
0.16
4.72

> <PUBCHEM_SHAPE_SELFOVERLAP>
1239.281

> <PUBCHEM_SHAPE_VOLUME>
301.3

> <PUBCHEM_COORDINATE_TYPE>
2
5
10

$$$$
