49830858
  -OEChem-10062121553D

 37 39  0     0  0  0  0  0  0999 V2000
    2.4488    3.2095    0.1665 O   0  0  0  0  0  0  0  0  0  0  0  0
    1.6271    0.5100    0.0858 N   0  0  0  0  0  0  0  0  0  0  0  0
    3.8331    1.3287   -0.1492 N   0  0  0  0  0  0  0  0  0  0  0  0
    3.0992   -3.4043   -0.3843 N   0  0  0  0  0  0  0  0  0  0  0  0
   -0.4483   -3.8502    0.0525 N   0  0  0  0  0  0  0  0  0  0  0  0
   -0.5851   -0.2108    0.3308 C   0  0  0  0  0  0  0  0  0  0  0  0
   -2.7647    0.3813   -0.5731 C   0  0  0  0  0  0  0  0  0  0  0  0
   -3.2792    0.4679    0.7426 C   0  0  0  0  0  0  0  0  0  0  0  0
    0.8029   -0.5611    0.1200 C   0  0  0  0  0  0  0  0  0  0  0  0
   -1.4154    0.0408   -0.7619 C   0  0  0  0  0  0  0  0  0  0  0  0
   -1.0910   -0.1257    1.6246 C   0  0  0  0  0  0  0  0  0  0  0  0
   -2.4290    0.2114    1.8306 C   0  0  0  0  0  0  0  0  0  0  0  0
    1.2276   -1.8716   -0.0282 C   0  0  0  0  0  0  0  0  0  0  0  0
   -3.6148    0.6380   -1.6610 C   0  0  0  0  0  0  0  0  0  0  0  0
   -4.6285    0.8087    0.9314 C   0  0  0  0  0  0  0  0  0  0  0  0
    2.5855   -2.0976   -0.2242 C   0  0  0  0  0  0  0  0  0  0  0  0
    2.9401    0.2513   -0.1064 C   0  0  0  0  0  0  0  0  0  0  0  0
    3.4648   -1.0212   -0.2653 C   0  0  0  0  0  0  0  0  0  0  0  0
   -4.9528    0.9752   -1.4550 C   0  0  0  0  0  0  0  0  0  0  0  0
   -5.4588    1.0604   -0.1613 C   0  0  0  0  0  0  0  0  0  0  0  0
    0.3014   -2.9651    0.0164 C   0  0  0  0  0  0  0  0  0  0  0  0
    3.5454    2.6905   -0.0153 C   0  0  0  0  0  0  0  0  0  0  0  0
    4.7917    3.5340   -0.1162 C   0  0  0  0  0  0  0  0  0  0  0  0
   -1.0134   -0.0270   -1.7722 H   0  0  0  0  0  0  0  0  0  0  0  0
   -0.4567   -0.3185    2.4867 H   0  0  0  0  0  0  0  0  0  0  0  0
   -2.8030    0.2722    2.8505 H   0  0  0  0  0  0  0  0  0  0  0  0
   -3.2411    0.5773   -2.6811 H   0  0  0  0  0  0  0  0  0  0  0  0
   -5.0453    0.8812    1.9338 H   0  0  0  0  0  0  0  0  0  0  0  0
    4.5287   -1.1787   -0.4175 H   0  0  0  0  0  0  0  0  0  0  0  0
   -5.5996    1.1713   -2.3052 H   0  0  0  0  0  0  0  0  0  0  0  0
   -6.5005    1.3230   -0.0016 H   0  0  0  0  0  0  0  0  0  0  0  0
    4.8098    1.0818   -0.2954 H   0  0  0  0  0  0  0  0  0  0  0  0
    2.4884   -4.2091   -0.3593 H   0  0  0  0  0  0  0  0  0  0  0  0
    4.0919   -3.5386   -0.5251 H   0  0  0  0  0  0  0  0  0  0  0  0
    4.5308    4.5924   -0.0300 H   0  0  0  0  0  0  0  0  0  0  0  0
    5.4823    3.2713    0.6901 H   0  0  0  0  0  0  0  0  0  0  0  0
    5.2764    3.3664   -1.0822 H   0  0  0  0  0  0  0  0  0  0  0  0
  1 22  2  0  0  0  0
  2  9  1  0  0  0  0
  2 17  2  0  0  0  0
  3 17  1  0  0  0  0
  3 22  1  0  0  0  0
  3 32  1  0  0  0  0
  4 16  1  0  0  0  0
  4 33  1  0  0  0  0
  4 34  1  0  0  0  0
  5 21  3  0  0  0  0
  6  9  1  0  0  0  0
  6 10  2  0  0  0  0
  6 11  1  0  0  0  0
  7  8  1  0  0  0  0
  7 10  1  0  0  0  0
  7 14  2  0  0  0  0
  8 12  1  0  0  0  0
  8 15  2  0  0  0  0
  9 13  2  0  0  0  0
 10 24  1  0  0  0  0
 11 12  2  0  0  0  0
 11 25  1  0  0  0  0
 12 26  1  0  0  0  0
 13 16  1  0  0  0  0
 13 21  1  0  0  0  0
 14 19  1  0  0  0  0
 14 27  1  0  0  0  0
 15 20  1  0  0  0  0
 15 28  1  0  0  0  0
 16 18  2  0  0  0  0
 17 18  1  0  0  0  0
 18 29  1  0  0  0  0
 19 20  2  0  0  0  0
 19 30  1  0  0  0  0
 20 31  1  0  0  0  0
 22 23  1  0  0  0  0
 23 35  1  0  0  0  0
 23 36  1  0  0  0  0
 23 37  1  0  0  0  0
M  END
> <PUBCHEM_COMPOUND_CID>
49830858

> <PUBCHEM_CONFORMER_RMSD>
0.6

> <PUBCHEM_CONFORMER_DIVERSEORDER>
2
10
7
15
9
8
13
12
14
5
11
6
16
3
4
1

> <PUBCHEM_MMFF94_PARTIAL_CHARGES>
31
1 -0.57
10 -0.15
11 -0.15
12 -0.15
13 0.07
14 -0.15
15 -0.15
16 0.1
17 0.43
18 -0.15
19 -0.15
2 -0.62
20 -0.15
21 0.48
22 0.57
23 0.06
24 0.15
25 0.15
26 0.15
27 0.15
28 0.15
29 0.15
3 -0.55
30 0.15
31 0.15
32 0.37
33 0.4
34 0.4
4 -0.9
5 -0.56
9 0.31

> <PUBCHEM_EFFECTIVE_ROTOR_COUNT>
3

> <PUBCHEM_PHARMACOPHORE_FEATURES>
8
1 1 acceptor
1 3 donor
1 4 cation
1 4 donor
1 5 acceptor
6 2 9 13 16 17 18 rings
6 6 7 8 10 11 12 rings
6 7 8 14 15 19 20 rings

> <PUBCHEM_HEAVY_ATOM_COUNT>
23

> <PUBCHEM_ATOM_DEF_STEREO_COUNT>
0

> <PUBCHEM_ATOM_UDEF_STEREO_COUNT>
0

> <PUBCHEM_BOND_DEF_STEREO_COUNT>
0

> <PUBCHEM_BOND_UDEF_STEREO_COUNT>
0

> <PUBCHEM_ISOTOPIC_ATOM_COUNT>
0

> <PUBCHEM_COMPONENT_COUNT>
1

> <PUBCHEM_CACTVS_TAUTO_COUNT>
13

> <PUBCHEM_CONFORMER_ID>
02F85BCA00000002

> <PUBCHEM_MMFF94_ENERGY>
78.9495

> <PUBCHEM_FEATURE_SELFOVERLAP>
40.621

> <PUBCHEM_SHAPE_FINGERPRINT>
10411042 1 17906736895614245302
11582403 64 17533186826121927187
11725454 13 17749657558801745707
12236239 1 17560516188357822355
12403259 415 18186812391200204921
12730499 353 18335709346823687953
12769317 202 18412537743232071216
12788726 201 17060065783690881793
13134695 92 18192154789635659078
13631057 29 17912916468821205199
15324884 4 17895211986187171587
15342168 16 18337676411527738557
16752209 62 16414054285253457079
17980427 23 18055882547166369818
1813 80 17699299759063048062
19930381 70 18410009936034996901
200 152 18128532657432724091
20645477 70 18263928739427265915
21033648 29 17386003949534850597
21033650 10 15266800861017553235
21065201 7 16298680395114397211
21709351 56 18126285242506036231
22122407 14 18126866923403563313
2255824 54 18270680857381354222
23557571 272 17313966176754571723
23559900 14 18337111155166433971
283562 15 17616543852868843250
350125 39 17762910157330427256
474 4 18341894108298958440
495365 180 18408035208576735400
6034566 193 18046354303236865644
6327066 14 18191300688113009236
633830 44 17987257580626042361
7399639 24 18114181934909451277
7471813 234 17986949652903778784
77492 1 17560239115812209075
8272917 22 18341898437467561911
9981440 41 18124305262920496178

> <PUBCHEM_SHAPE_MULTIPOLES>
447.54
10.08
3.83
1.23
5.44
1.03
0.16
-7.99
-1.78
-6.84
-0.29
1.72
-0.19
0.52

> <PUBCHEM_SHAPE_SELFOVERLAP>
988.91

> <PUBCHEM_SHAPE_VOLUME>
237.6

> <PUBCHEM_COORDINATE_TYPE>
2
5
10

$$$$
