25206346
  -OEChem-10062121563D

 64 68  0     0  0  0  0  0  0999 V2000
    2.6745   -2.2174    0.0826 Cl  0  0  0  0  0  0  0  0  0  0  0  0
   -5.4606    0.5905   -1.3879 S   0  0  0  0  0  0  0  0  0  0  0  0
    3.7564    4.0746    1.3145 F   0  0  0  0  0  0  0  0  0  0  0  0
   -6.9608   -2.7349    1.5598 O   0  0  0  0  0  0  0  0  0  0  0  0
    5.2632   -3.5616   -0.5272 O   0  0  0  0  0  0  0  0  0  0  0  0
    1.7404    0.3245   -1.4282 O   0  0  0  0  0  0  0  0  0  0  0  0
   -6.8577   -1.3799   -0.3710 N   0  0  0  0  0  0  0  0  0  0  0  0
   -5.0205   -0.5000    0.9167 N   0  0  0  0  0  0  0  0  0  0  0  0
   -3.3771    2.2003   -0.8672 N   0  0  0  0  0  0  0  0  0  0  0  0
   -1.5221    3.5771   -0.3178 N   0  0  0  0  0  0  0  0  0  0  0  0
    3.0066    1.8449   -0.1581 N   0  0  0  0  0  0  0  0  0  0  0  0
    5.1278   -1.7649    2.3202 N   0  0  0  0  0  0  0  0  0  0  0  0
   -8.5508   -3.1314   -0.1109 C   0  0  0  0  0  0  0  0  0  0  0  0
   -8.4318   -3.7678   -1.4646 C   0  0  0  0  0  0  0  0  0  0  0  0
   -8.4939   -4.6259   -0.2351 C   0  0  0  0  0  0  0  0  0  0  0  0
   -7.3734   -2.4023    0.4572 C   0  0  0  0  0  0  0  0  0  0  0  0
   -5.8004   -0.5400   -0.1418 C   0  0  0  0  0  0  0  0  0  0  0  0
   -4.0732    0.4957    0.7481 C   0  0  0  0  0  0  0  0  0  0  0  0
   -4.1670    1.1911   -0.4528 C   0  0  0  0  0  0  0  0  0  0  0  0
   -3.0486    0.8769    1.6327 C   0  0  0  0  0  0  0  0  0  0  0  0
   -2.4116    2.5230    0.0227 C   0  0  0  0  0  0  0  0  0  0  0  0
   -2.2037    1.9160    1.2518 C   0  0  0  0  0  0  0  0  0  0  0  0
   -0.1728    3.7008    0.0979 C   0  0  0  0  0  0  0  0  0  0  0  0
    0.7532    2.7118   -0.2336 C   0  0  0  0  0  0  0  0  0  0  0  0
   -1.9307    4.4929   -1.3887 C   0  0  0  0  0  0  0  0  0  0  0  0
    2.0812    2.8346    0.1753 C   0  0  0  0  0  0  0  0  0  0  0  0
    0.2290    4.8126    0.8383 C   0  0  0  0  0  0  0  0  0  0  0  0
    5.7561   -3.8112    0.7872 C   0  0  0  0  0  0  0  0  0  0  0  0
    2.4829    3.9465    0.9157 C   0  0  0  0  0  0  0  0  0  0  0  0
    1.5568    4.9354    1.2472 C   0  0  0  0  0  0  0  0  0  0  0  0
    3.9933   -0.1682   -1.1232 C   0  0  0  0  0  0  0  0  0  0  0  0
    5.1874   -2.2590   -0.9225 C   0  0  0  0  0  0  0  0  0  0  0  0
    2.7940    0.6850   -0.9146 C   0  0  0  0  0  0  0  0  0  0  0  0
    4.0381   -1.4986   -0.7059 C   0  0  0  0  0  0  0  0  0  0  0  0
    7.2742   -3.9705    0.7121 C   0  0  0  0  0  0  0  0  0  0  0  0
    5.1011   -5.0873    1.3146 C   0  0  0  0  0  0  0  0  0  0  0  0
    5.0974    0.4014   -1.7574 C   0  0  0  0  0  0  0  0  0  0  0  0
    6.2915   -1.6892   -1.5566 C   0  0  0  0  0  0  0  0  0  0  0  0
    6.2464   -0.3589   -1.9739 C   0  0  0  0  0  0  0  0  0  0  0  0
    5.4052   -2.6666    1.6444 C   0  0  0  0  0  0  0  0  0  0  0  0
   -9.5130   -2.7063    0.1559 H   0  0  0  0  0  0  0  0  0  0  0  0
   -7.4862   -3.7200   -1.9908 H   0  0  0  0  0  0  0  0  0  0  0  0
   -9.3020   -3.7463   -2.1093 H   0  0  0  0  0  0  0  0  0  0  0  0
   -9.4054   -5.1824   -0.0544 H   0  0  0  0  0  0  0  0  0  0  0  0
   -7.5891   -5.1411    0.0631 H   0  0  0  0  0  0  0  0  0  0  0  0
   -7.3244   -1.2285   -1.2618 H   0  0  0  0  0  0  0  0  0  0  0  0
   -2.9194    0.3795    2.5884 H   0  0  0  0  0  0  0  0  0  0  0  0
   -1.4217    2.2239    1.9384 H   0  0  0  0  0  0  0  0  0  0  0  0
    0.3807    1.8768   -0.8103 H   0  0  0  0  0  0  0  0  0  0  0  0
   -1.8165    4.0098   -2.3657 H   0  0  0  0  0  0  0  0  0  0  0  0
   -1.3349    5.4131   -1.3999 H   0  0  0  0  0  0  0  0  0  0  0  0
   -2.9765    4.7982   -1.2664 H   0  0  0  0  0  0  0  0  0  0  0  0
   -0.4836    5.5883    1.1071 H   0  0  0  0  0  0  0  0  0  0  0  0
    1.8697    5.8003    1.8247 H   0  0  0  0  0  0  0  0  0  0  0  0
    3.9495    2.0017    0.1922 H   0  0  0  0  0  0  0  0  0  0  0  0
    7.5518   -4.7193   -0.0385 H   0  0  0  0  0  0  0  0  0  0  0  0
    7.7773   -3.0384    0.4332 H   0  0  0  0  0  0  0  0  0  0  0  0
    7.6902   -4.2800    1.6780 H   0  0  0  0  0  0  0  0  0  0  0  0
    5.3281   -5.9383    0.6621 H   0  0  0  0  0  0  0  0  0  0  0  0
    4.0089   -4.9924    1.3313 H   0  0  0  0  0  0  0  0  0  0  0  0
    5.4356   -5.3282    2.3296 H   0  0  0  0  0  0  0  0  0  0  0  0
    5.0777    1.4344   -2.0954 H   0  0  0  0  0  0  0  0  0  0  0  0
    7.1865   -2.2745   -1.7469 H   0  0  0  0  0  0  0  0  0  0  0  0
    7.1042    0.0831   -2.4721 H   0  0  0  0  0  0  0  0  0  0  0  0
  1 34  1  0  0  0  0
  2 17  1  0  0  0  0
  2 19  1  0  0  0  0
  3 29  1  0  0  0  0
  4 16  2  0  0  0  0
  5 28  1  0  0  0  0
  5 32  1  0  0  0  0
  6 33  2  0  0  0  0
  7 16  1  0  0  0  0
  7 17  1  0  0  0  0
  7 46  1  0  0  0  0
  8 17  2  0  0  0  0
  8 18  1  0  0  0  0
  9 19  1  0  0  0  0
  9 21  2  0  0  0  0
 10 21  1  0  0  0  0
 10 23  1  0  0  0  0
 10 25  1  0  0  0  0
 11 26  1  0  0  0  0
 11 33  1  0  0  0  0
 11 55  1  0  0  0  0
 12 40  3  0  0  0  0
 13 14  1  0  0  0  0
 13 15  1  0  0  0  0
 13 16  1  0  0  0  0
 13 41  1  0  0  0  0
 14 15  1  0  0  0  0
 14 42  1  0  0  0  0
 14 43  1  0  0  0  0
 15 44  1  0  0  0  0
 15 45  1  0  0  0  0
 18 19  2  0  0  0  0
 18 20  1  0  0  0  0
 20 22  2  0  0  0  0
 20 47  1  0  0  0  0
 21 22  1  0  0  0  0
 22 48  1  0  0  0  0
 23 24  2  0  0  0  0
 23 27  1  0  0  0  0
 24 26  1  0  0  0  0
 24 49  1  0  0  0  0
 25 50  1  0  0  0  0
 25 51  1  0  0  0  0
 25 52  1  0  0  0  0
 26 29  2  0  0  0  0
 27 30  2  0  0  0  0
 27 53  1  0  0  0  0
 28 35  1  0  0  0  0
 28 36  1  0  0  0  0
 28 40  1  0  0  0  0
 29 30  1  0  0  0  0
 30 54  1  0  0  0  0
 31 33  1  0  0  0  0
 31 34  2  0  0  0  0
 31 37  1  0  0  0  0
 32 34  1  0  0  0  0
 32 38  2  0  0  0  0
 35 56  1  0  0  0  0
 35 57  1  0  0  0  0
 35 58  1  0  0  0  0
 36 59  1  0  0  0  0
 36 60  1  0  0  0  0
 36 61  1  0  0  0  0
 37 39  2  0  0  0  0
 37 62  1  0  0  0  0
 38 39  1  0  0  0  0
 38 63  1  0  0  0  0
 39 64  1  0  0  0  0
M  END
> <PUBCHEM_COMPOUND_CID>
25206346

> <PUBCHEM_CONFORMER_RMSD>
1.4

> <PUBCHEM_CONFORMER_DIVERSEORDER>
1
49
84
67
95
12
19
96
97
56
31
59
29
72
32
73
80
91
69
18
8
68
11
60
44
77
53
10
37
76
41
71
66
16
75
54
48
36
64
88
81
7
50
39
3
83
82
79
90
27
15
22
63
13
51
74
14
42
24
43
46
86
45
40
57
21
92
94
23
28
55
25
85
33
65
89
35
34
38
20
26
17
52
70
47
5
30
87
93
61
4
58
9
78
6
2
62

> <PUBCHEM_MMFF94_PARTIAL_CHARGES>
53
1 -0.18
10 -0.57
11 -0.55
12 -0.56
13 -0.1
14 -0.2
15 -0.2
16 0.63
17 0.44
18 0.23
19 0.3
2 -0.08
20 -0.15
21 0.41
22 -0.15
23 0.1
24 -0.15
25 0.37
26 0.12
27 -0.15
28 0.48
29 0.19
3 -0.19
30 -0.15
31 0.09
32 0.08
33 0.54
34 0.18
37 -0.15
38 -0.15
39 -0.15
4 -0.57
40 0.36
41 0.1
42 0.1
43 0.1
44 0.1
45 0.1
46 0.37
47 0.15
48 0.15
49 0.15
5 -0.36
53 0.15
54 0.15
55 0.37
6 -0.57
62 0.15
63 0.15
64 0.15
7 -0.49
8 -0.57
9 -0.57

> <PUBCHEM_EFFECTIVE_ROTOR_COUNT>
10.6

> <PUBCHEM_PHARMACOPHORE_FEATURES>
12
1 11 donor
1 12 acceptor
1 4 acceptor
1 5 acceptor
1 6 acceptor
1 7 donor
3 28 35 36 hydrophobe
3 9 10 21 cation
5 2 8 17 18 19 rings
6 23 24 26 27 29 30 rings
6 31 32 34 37 38 39 rings
6 9 18 19 20 21 22 rings

> <PUBCHEM_HEAVY_ATOM_COUNT>
40

> <PUBCHEM_ATOM_DEF_STEREO_COUNT>
0

> <PUBCHEM_ATOM_UDEF_STEREO_COUNT>
0

> <PUBCHEM_BOND_DEF_STEREO_COUNT>
0

> <PUBCHEM_BOND_UDEF_STEREO_COUNT>
0

> <PUBCHEM_ISOTOPIC_ATOM_COUNT>
0

> <PUBCHEM_COMPONENT_COUNT>
1

> <PUBCHEM_CACTVS_TAUTO_COUNT>
6

> <PUBCHEM_CONFORMER_ID>
01809E4A00000001

> <PUBCHEM_MMFF94_ENERGY>
148.5092

> <PUBCHEM_FEATURE_SELFOVERLAP>
60.987

> <PUBCHEM_SHAPE_FINGERPRINT>
10622 236 18043816369023462400
11409948 41 17983283014651048495
11478447 30 18262226742546106595
11607047 403 18199736120173135104
117089 54 18338244855445587711
11966995 16 18261384599160902743
12124843 1 17894917295485555799
13383668 1 18190162659044007656
13560911 43 18343022206986443870
13782708 43 18334011696918378189
13944108 23 8646505015411252982
13947947 140 18336555919649678287
15351339 4 18040998423474238562
15530120 55 17387434366943964092
15538507 32 18339644563670963023
16990366 60 18411133628175324466
17324776 126 18263358084234678362
19315092 285 18060149768530610953
19319366 153 18337118977188110332
19841028 212 18271811289396448931
20775438 99 18049434044339182515
208703 8 18409442553564770711
22956985 138 18411132529176257080
23569943 247 18410015404182317819
24893989 43 17414729966251976959
24983565 74 17986388009175155087
2835820 82 18339644572719515203
32027 91 18411695479097750381
3504750 166 17614844016275903922
45266715 3 18189052152447335344
49967989 163 17835529215648188428
50009960 94 18336249194095705355
6201460 15 18045498608534478162
6441014 3 18267022760932117891
6697151 62 18058713759485671453
9831232 110 18119246410380047477
9980921 52 17987222517368289263

> <PUBCHEM_SHAPE_MULTIPOLES>
774.13
24.24
8.61
1.75
34.35
1.72
-0.05
-45.89
2.76
-0.97
-2.58
-1.72
-0.29
-1.54

> <PUBCHEM_SHAPE_SELFOVERLAP>
1669.344

> <PUBCHEM_SHAPE_VOLUME>
431.3

> <PUBCHEM_COORDINATE_TYPE>
2
5
10

$$$$
