16122934
  -OEChem-10052115183D

 48 51  0     0  0  0  0  0  0999 V2000
    7.1030    1.2618   -1.6504 S   0  0  0  0  0  0  0  0  0  0  0  0
    3.4709    1.7526    1.3050 O   0  0  0  0  0  0  0  0  0  0  0  0
   -3.7905   -0.6017   -1.1815 O   0  0  0  0  0  0  0  0  0  0  0  0
    2.5950    0.5393   -0.4847 N   0  0  0  0  0  0  0  0  0  0  0  0
   -2.8777    0.6121    0.6026 N   0  0  0  0  0  0  0  0  0  0  0  0
   -5.1623    0.2907    0.4890 N   0  0  0  0  0  0  0  0  0  0  0  0
    8.0591   -0.9797   -0.5733 N   0  0  0  0  0  0  0  0  0  0  0  0
    6.6931   -2.2139    1.0045 N   0  0  0  0  0  0  0  0  0  0  0  0
    4.5183   -1.5128    1.6444 N   0  0  0  0  0  0  0  0  0  0  0  0
    4.9673    0.8854   -0.2748 C   0  0  0  0  0  0  0  0  0  0  0  0
    5.8297   -0.2099    0.0459 C   0  0  0  0  0  0  0  0  0  0  0  0
    1.2049    0.5568   -0.2082 C   0  0  0  0  0  0  0  0  0  0  0  0
    7.0299   -0.1133   -0.6464 C   0  0  0  0  0  0  0  0  0  0  0  0
    3.6451    1.1152    0.2517 C   0  0  0  0  0  0  0  0  0  0  0  0
   -1.5093    0.5928    0.3313 C   0  0  0  0  0  0  0  0  0  0  0  0
    5.5339    1.7552   -1.1810 C   0  0  0  0  0  0  0  0  0  0  0  0
    5.6924   -1.3143    0.8931 C   0  0  0  0  0  0  0  0  0  0  0  0
    0.3355   -0.0801   -1.0762 C   0  0  0  0  0  0  0  0  0  0  0  0
    0.7499    1.2114    0.9230 C   0  0  0  0  0  0  0  0  0  0  0  0
   -1.0325   -0.0619   -0.8043 C   0  0  0  0  0  0  0  0  0  0  0  0
   -0.6180    1.2296    1.1949 C   0  0  0  0  0  0  0  0  0  0  0  0
   -6.4548   -0.1093    0.0752 C   0  0  0  0  0  0  0  0  0  0  0  0
   -8.8273   -0.1434    0.4297 C   0  0  0  0  0  0  0  0  0  0  0  0
   -7.5531    0.2501    0.8389 C   0  0  0  0  0  0  0  0  0  0  0  0
   -3.9344    0.0321   -0.1410 C   0  0  0  0  0  0  0  0  0  0  0  0
   -6.5950   -0.8510   -1.0863 C   0  0  0  0  0  0  0  0  0  0  0  0
   -8.9853   -0.8907   -0.7374 C   0  0  0  0  0  0  0  0  0  0  0  0
   -7.8691   -1.2444   -1.4954 C   0  0  0  0  0  0  0  0  0  0  0  0
    7.8027   -1.9936    0.2724 C   0  0  0  0  0  0  0  0  0  0  0  0
  -10.0213    0.2353    1.2395 C   0  0  0  0  0  0  0  0  0  0  0  0
    2.8553    0.0338   -1.3295 H   0  0  0  0  0  0  0  0  0  0  0  0
    5.1058    2.6588   -1.5932 H   0  0  0  0  0  0  0  0  0  0  0  0
    0.6981   -0.5924   -1.9631 H   0  0  0  0  0  0  0  0  0  0  0  0
    1.3694    1.7267    1.6407 H   0  0  0  0  0  0  0  0  0  0  0  0
   -1.6562   -0.5770   -1.5209 H   0  0  0  0  0  0  0  0  0  0  0  0
   -0.9771    1.7435    2.0832 H   0  0  0  0  0  0  0  0  0  0  0  0
   -3.1486    1.1093    1.4474 H   0  0  0  0  0  0  0  0  0  0  0  0
   -7.4287    0.8344    1.7472 H   0  0  0  0  0  0  0  0  0  0  0  0
   -5.1275    0.8324    1.3490 H   0  0  0  0  0  0  0  0  0  0  0  0
   -5.7853   -1.1650   -1.7275 H   0  0  0  0  0  0  0  0  0  0  0  0
   -9.9728   -1.2017   -1.0679 H   0  0  0  0  0  0  0  0  0  0  0  0
   -7.9936   -1.8261   -2.4044 H   0  0  0  0  0  0  0  0  0  0  0  0
    8.5913   -2.7302    0.3795 H   0  0  0  0  0  0  0  0  0  0  0  0
  -10.8226   -0.5039    1.1335 H   0  0  0  0  0  0  0  0  0  0  0  0
  -10.3996    1.2106    0.9174 H   0  0  0  0  0  0  0  0  0  0  0  0
   -9.7741    0.2886    2.3053 H   0  0  0  0  0  0  0  0  0  0  0  0
    3.7387   -0.8750    1.5991 H   0  0  0  0  0  0  0  0  0  0  0  0
    4.4629   -2.3256    2.2439 H   0  0  0  0  0  0  0  0  0  0  0  0
  1 13  1  0  0  0  0
  1 16  1  0  0  0  0
  2 14  2  0  0  0  0
  3 25  2  0  0  0  0
  4 12  1  0  0  0  0
  4 14  1  0  0  0  0
  4 31  1  0  0  0  0
  5 15  1  0  0  0  0
  5 25  1  0  0  0  0
  5 37  1  0  0  0  0
  6 22  1  0  0  0  0
  6 25  1  0  0  0  0
  6 39  1  0  0  0  0
  7 13  2  0  0  0  0
  7 29  1  0  0  0  0
  8 17  1  0  0  0  0
  8 29  2  0  0  0  0
  9 17  1  0  0  0  0
  9 47  1  0  0  0  0
  9 48  1  0  0  0  0
 10 11  1  0  0  0  0
 10 14  1  0  0  0  0
 10 16  2  0  0  0  0
 11 13  1  0  0  0  0
 11 17  2  0  0  0  0
 12 18  2  0  0  0  0
 12 19  1  0  0  0  0
 15 20  2  0  0  0  0
 15 21  1  0  0  0  0
 16 32  1  0  0  0  0
 18 20  1  0  0  0  0
 18 33  1  0  0  0  0
 19 21  2  0  0  0  0
 19 34  1  0  0  0  0
 20 35  1  0  0  0  0
 21 36  1  0  0  0  0
 22 24  1  0  0  0  0
 22 26  2  0  0  0  0
 23 24  2  0  0  0  0
 23 27  1  0  0  0  0
 23 30  1  0  0  0  0
 24 38  1  0  0  0  0
 26 28  1  0  0  0  0
 26 40  1  0  0  0  0
 27 28  2  0  0  0  0
 27 41  1  0  0  0  0
 28 42  1  0  0  0  0
 29 43  1  0  0  0  0
 30 44  1  0  0  0  0
 30 45  1  0  0  0  0
 30 46  1  0  0  0  0
M  END
> <PUBCHEM_COMPOUND_CID>
16122934

> <PUBCHEM_CONFORMER_RMSD>
0.8

> <PUBCHEM_CONFORMER_DIVERSEORDER>
1
44
25
34
41
26
63
50
61
67
40
57
32
55
10
60
9
59
69
13
42
16
66
20
45
62
29
58
35
54
11
31
27
38
18
64
72
39
53
7
68
56
8
43
17
70
48
30
51
12
19
24
65
3
71
52
6
28
14
47
22
15
37
49
21
46
33
4
23
5
36
2

> <PUBCHEM_MMFF94_PARTIAL_CHARGES>
44
1 -0.08
10 -0.09
12 0.12
13 0.3
14 0.72
15 0.12
16 -0.11
17 0.41
18 -0.15
19 -0.15
2 -0.57
20 -0.15
21 -0.15
22 0.12
23 -0.14
24 -0.15
25 0.69
26 -0.15
27 -0.15
28 -0.15
29 0.47
3 -0.57
30 0.14
31 0.37
32 0.15
33 0.15
34 0.15
35 0.15
36 0.15
37 0.37
38 0.15
39 0.37
4 -0.55
40 0.15
41 0.15
42 0.15
43 0.15
47 0.4
48 0.4
5 -0.55
6 -0.55
7 -0.57
8 -0.62
9 -0.9

> <PUBCHEM_EFFECTIVE_ROTOR_COUNT>
7

> <PUBCHEM_PHARMACOPHORE_FEATURES>
13
1 2 acceptor
1 3 acceptor
1 4 donor
1 5 donor
1 6 donor
1 7 acceptor
1 9 cation
1 9 donor
3 7 8 29 cation
5 1 10 11 13 16 rings
6 12 15 18 19 20 21 rings
6 22 23 24 26 27 28 rings
6 7 8 11 13 17 29 rings

> <PUBCHEM_HEAVY_ATOM_COUNT>
30

> <PUBCHEM_ATOM_DEF_STEREO_COUNT>
0

> <PUBCHEM_ATOM_UDEF_STEREO_COUNT>
0

> <PUBCHEM_BOND_DEF_STEREO_COUNT>
0

> <PUBCHEM_BOND_UDEF_STEREO_COUNT>
0

> <PUBCHEM_ISOTOPIC_ATOM_COUNT>
0

> <PUBCHEM_COMPONENT_COUNT>
1

> <PUBCHEM_CACTVS_TAUTO_COUNT>
24

> <PUBCHEM_CONFORMER_ID>
00F6043600000001

> <PUBCHEM_MMFF94_ENERGY>
99.5959

> <PUBCHEM_FEATURE_SELFOVERLAP>
66.101

> <PUBCHEM_SHAPE_FINGERPRINT>
10 15 15410888583141463378
10299344 5 18411982464305816687
10533779 47 14333141805576141175
11135926 11 17203603766964450301
11315181 36 14273449285666837437
11386260 185 17095527331177929724
11607047 74 18060137700822586560
11719270 70 17060341833406394847
12082328 90 17821728322022039997
12089408 11 18273216417874722693
12592606 108 18272086114993606743
12758862 56 17203607121138858787
12838862 33 16128651917543866013
13692114 37 16845567647548322542
14118638 360 14490460963975045661
14251764 18 18413671318498010263
14251764 46 18040718082078359532
14344974 52 14779558910978350638
150020 25 16660648444540584027
15065858 18 13398633836673302709
15131766 46 17555723657570216385
15183329 4 18186516600954916043
15198563 99 16733257950518841549
15301273 46 17022900151424787719
15328684 2 18129665175746865155
15419008 47 16443056227771154173
15461852 350 14201403794435312361
15510794 2 16805327712088062408
15849732 13 16370725950448898807
1754908 1 13901907838898249671
1818759 1 18411704279279823267
19301679 30 17774165570559954318
20105231 36 16588025715085997651
2026 5 18190173491258061410
20771845 140 17632007556353467070
21150785 3 13479134588193986859
21360442 33 16661194846887211530
21360442 67 16950566593027686218
21781051 124 17775007933273067590
21792934 111 14908181941163191321
22224240 67 13039188108869146421
22956985 138 17556311566585676958
23522609 53 18125752095574567928
23576562 1 14996860934536631615
24893992 56 17561080346252088723
249057 3 16950568817646132095
2835820 82 18262516962614295298
3383291 50 16486972925434100175
34797466 226 16805604793809250684
3633792 109 17530964661482558720
397638 26 15697996362474808895
439807 62 18409449180988835298
44389302 135 17845931832677470270
4516262 110 17970641899138369588
45377200 153 17531253924274383875
5219985 9 18272370875916107433
5283156 175 18412546504722196617
5470011 282 17895198839202471564
59520647 119 17822016462371997427
60111433 81 10882562030839528926
6081469 158 18040996237018996580
6126387 218 13110968613914574387
636783 117 16009855127918013130
67123 10 9871746884977691561
68570916 9 12534762998936051825

> <PUBCHEM_SHAPE_MULTIPOLES>
579.61
33.93
1.62
1.4
43.51
0.41
-0.08
10.8
-2.22
-3.96
0.23
0.16
-0.01
-2.92

> <PUBCHEM_SHAPE_SELFOVERLAP>
1263.971

> <PUBCHEM_SHAPE_VOLUME>
314.9

> <PUBCHEM_COORDINATE_TYPE>
2
5
10

$$$$
