24905320
  -OEChem-10052115163D

 37 40  0     1  0  0  0  0  0999 V2000
    5.5200    1.0341    0.3775 F   0  0  0  0  0  0  0  0  0  0  0  0
   -2.8818    3.3854    0.2100 O   0  0  0  0  0  0  0  0  0  0  0  0
    4.1917    1.0649   -2.0329 O   0  0  0  0  0  0  0  0  0  0  0  0
   -2.0061    0.2410    0.2686 N   0  0  0  0  0  0  0  0  0  0  0  0
   -0.8218    0.8754    0.3518 N   0  0  0  0  0  0  0  0  0  0  0  0
   -2.8927   -1.9927   -0.0255 N   0  0  0  0  0  0  0  0  0  0  0  0
   -1.1140   -3.6476   -0.2446 N   0  0  0  0  0  0  0  0  0  0  0  0
    1.2008   -3.0709   -0.1685 N   0  0  0  0  0  0  0  0  0  0  0  0
   -3.2930    1.0406    0.3748 C   0  0  2  0  0  0  0  0  0  0  0  0
   -3.7608    1.5332   -0.9838 C   0  0  0  0  0  0  0  0  0  0  0  0
   -3.2133    2.3520    1.1500 C   0  0  0  0  0  0  0  0  0  0  0  0
   -3.0798    2.8808   -1.1169 C   0  0  0  0  0  0  0  0  0  0  0  0
   -1.8918   -1.1058    0.0909 C   0  0  0  0  0  0  0  0  0  0  0  0
   -0.5344   -1.3724    0.0550 C   0  0  0  0  0  0  0  0  0  0  0  0
    0.0704   -0.1125    0.2210 C   0  0  0  0  0  0  0  0  0  0  0  0
    1.4798    0.1857    0.2595 C   0  0  0  0  0  0  0  0  0  0  0  0
   -0.1549   -2.6990   -0.1200 C   0  0  0  0  0  0  0  0  0  0  0  0
    2.1623    0.4864   -0.9193 C   0  0  0  0  0  0  0  0  0  0  0  0
    2.1621    0.1718    1.4760 C   0  0  0  0  0  0  0  0  0  0  0  0
   -2.4050   -3.2413   -0.1905 C   0  0  0  0  0  0  0  0  0  0  0  0
    3.5268    0.7734   -0.8816 C   0  0  0  0  0  0  0  0  0  0  0  0
    3.5267    0.4584    1.5136 C   0  0  0  0  0  0  0  0  0  0  0  0
    4.2090    0.7593    0.3349 C   0  0  0  0  0  0  0  0  0  0  0  0
   -4.0000    0.3469    0.8433 H   0  0  0  0  0  0  0  0  0  0  0  0
   -4.8476    1.6808   -0.9591 H   0  0  0  0  0  0  0  0  0  0  0  0
   -3.5308    0.8650   -1.8188 H   0  0  0  0  0  0  0  0  0  0  0  0
   -4.1908    2.6064    1.5750 H   0  0  0  0  0  0  0  0  0  0  0  0
   -2.4785    2.3443    1.9602 H   0  0  0  0  0  0  0  0  0  0  0  0
   -2.0969    2.7857   -1.5900 H   0  0  0  0  0  0  0  0  0  0  0  0
   -3.6743    3.5931   -1.6961 H   0  0  0  0  0  0  0  0  0  0  0  0
    1.6329    0.4970   -1.8700 H   0  0  0  0  0  0  0  0  0  0  0  0
    1.6452   -0.0616    2.4038 H   0  0  0  0  0  0  0  0  0  0  0  0
   -3.1469   -4.0259   -0.2936 H   0  0  0  0  0  0  0  0  0  0  0  0
    1.9374   -2.3866   -0.0790 H   0  0  0  0  0  0  0  0  0  0  0  0
    1.4329   -4.0466   -0.2976 H   0  0  0  0  0  0  0  0  0  0  0  0
    4.0583    0.4472    2.4606 H   0  0  0  0  0  0  0  0  0  0  0  0
    3.5662    1.0286   -2.7768 H   0  0  0  0  0  0  0  0  0  0  0  0
  1 23  1  0  0  0  0
  2 11  1  0  0  0  0
  2 12  1  0  0  0  0
  3 21  1  0  0  0  0
  3 37  1  0  0  0  0
  4  5  1  0  0  0  0
  4  9  1  0  0  0  0
  4 13  1  0  0  0  0
  5 15  2  0  0  0  0
  6 13  2  0  0  0  0
  6 20  1  0  0  0  0
  7 17  1  0  0  0  0
  7 20  2  0  0  0  0
  8 17  1  0  0  0  0
  8 34  1  0  0  0  0
  8 35  1  0  0  0  0
  9 10  1  0  0  0  0
  9 11  1  0  0  0  0
  9 24  1  0  0  0  0
 10 12  1  0  0  0  0
 10 25  1  0  0  0  0
 10 26  1  0  0  0  0
 11 27  1  0  0  0  0
 11 28  1  0  0  0  0
 12 29  1  0  0  0  0
 12 30  1  0  0  0  0
 13 14  1  0  0  0  0
 14 15  1  0  0  0  0
 14 17  2  0  0  0  0
 15 16  1  0  0  0  0
 16 18  2  0  0  0  0
 16 19  1  0  0  0  0
 18 21  1  0  0  0  0
 18 31  1  0  0  0  0
 19 22  2  0  0  0  0
 19 32  1  0  0  0  0
 20 33  1  0  0  0  0
 21 23  2  0  0  0  0
 22 23  1  0  0  0  0
 22 36  1  0  0  0  0
M  END
> <PUBCHEM_COMPOUND_CID>
24905320

> <PUBCHEM_CONFORMER_RMSD>
0.6

> <PUBCHEM_CONFORMER_DIVERSEORDER>
1
3
11
17
16
14
19
5
2
18
7
4
20
10
6
13
12
15
8
9

> <PUBCHEM_MMFF94_PARTIAL_CHARGES>
28
1 -0.19
11 0.28
12 0.28
13 0.11
15 0.23
16 0.05
17 0.41
18 -0.15
19 -0.15
2 -0.56
20 0.47
21 0.08
22 -0.15
23 0.19
3 -0.53
31 0.15
32 0.15
33 0.15
34 0.4
35 0.4
36 0.15
37 0.45
4 0.31
5 -0.71
6 -0.57
7 -0.62
8 -0.9
9 0.26

> <PUBCHEM_EFFECTIVE_ROTOR_COUNT>
3

> <PUBCHEM_PHARMACOPHORE_FEATURES>
11
1 2 acceptor
1 3 donor
1 5 acceptor
1 8 cation
1 8 donor
3 4 6 13 cation
3 6 7 20 cation
5 2 9 10 11 12 rings
5 4 5 13 14 15 rings
6 16 18 19 21 22 23 rings
6 6 7 13 14 17 20 rings

> <PUBCHEM_HEAVY_ATOM_COUNT>
23

> <PUBCHEM_ATOM_DEF_STEREO_COUNT>
1

> <PUBCHEM_ATOM_UDEF_STEREO_COUNT>
0

> <PUBCHEM_BOND_DEF_STEREO_COUNT>
0

> <PUBCHEM_BOND_UDEF_STEREO_COUNT>
0

> <PUBCHEM_ISOTOPIC_ATOM_COUNT>
0

> <PUBCHEM_COMPONENT_COUNT>
1

> <PUBCHEM_CACTVS_TAUTO_COUNT>
15

> <PUBCHEM_CONFORMER_ID>
017C066800000001

> <PUBCHEM_MMFF94_ENERGY>
56.8969

> <PUBCHEM_FEATURE_SELFOVERLAP>
56.101

> <PUBCHEM_SHAPE_FINGERPRINT>
10165383 225 18198083424909718457
10411042 1 17762615496530499651
11582403 64 16482416501808387490
11725454 13 16914211227842822776
11796584 16 18343310237228155542
11833330 49 18121775303475418171
12107183 9 18191574273687594666
12173636 292 18411133628127903845
12236239 1 17750506450862070210
12500047 106 18413383246472573544
12553582 1 18049725423167696475
12788726 201 18045226182800035330
13134695 92 16968010040033053039
13140716 1 17978795936955548843
13583140 156 17845925334253696666
14178342 30 18337377344929213274
14508225 48 17910097346671740183
14713325 29 18336834177231387803
15042514 8 18265338498276313403
15463212 79 18261106417758995168
15842332 3 17895468228568316786
16752209 62 18338506568534354082
16945 1 18268145529818162963
16988056 13 16677519050183530517
1741750 31 18411700963121575905
17818456 19 18264194830300237856
18785283 64 17759819048034986961
20510252 161 18199750408848352739
20739085 24 16328521952699643115
21033650 10 18191047745041284948
21065201 7 18342460391632272098
21524375 3 18260546680356792945
22149856 69 18121515553610102673
2255824 54 17764024667131576743
22907989 373 18265328581037831239
23366157 5 17972599875242273155
23526113 38 17489586766512038592
23557571 272 18129382768941897008
23559900 14 18130514068086373550
23598291 2 17822289128348703126
2748010 2 18267033769207389779
283562 15 18340200920648748411
3091708 16 9341865868505214835
312425 83 18046944651609140460
350125 39 18267313040865871203
458136 41 18124609582722674289
469060 322 18337687407450735633
474 4 18050279272438397209
57527295 17 17131000762970664748
59755656 520 17773342082898987081
6327066 14 18261383408627026669
633830 44 17773037453759344985
7615 1 17895466046566875924
77492 1 17750226066759495538
7808743 9 18410015463800598128
81228 2 18124879212105872579
84936 182 17912918379649018121
9862522 239 18041269968233138517
9981440 41 18337383825918721313

> <PUBCHEM_SHAPE_MULTIPOLES>
429.41
8.19
3.96
1.22
7.02
2.75
0.12
-6.44
0.59
-4.74
0.52
0.89
-0.68
-0.2

> <PUBCHEM_SHAPE_SELFOVERLAP>
955.846

> <PUBCHEM_SHAPE_VOLUME>
230.6

> <PUBCHEM_COORDINATE_TYPE>
2
5
10

$$$$
