49830358
  -OEChem-10052115183D

 55 59  0     0  0  0  0  0  0999 V2000
    4.2639   -1.8216    0.6265 S   0  0  0  0  0  0  0  0  0  0  0  0
   -4.3389    0.2675    1.2236 O   0  0  0  0  0  0  0  0  0  0  0  0
    3.8833    2.2648   -1.1679 N   0  0  0  0  0  0  0  0  0  0  0  0
    8.6907    0.1292    0.9800 N   0  0  0  0  0  0  0  0  0  0  0  0
    1.5455    1.9411   -1.3005 N   0  0  0  0  0  0  0  0  0  0  0  0
    8.6982   -0.9463    0.1742 N   0  0  0  0  0  0  0  0  0  0  0  0
   -3.5680   -0.6437   -0.7925 N   0  0  0  0  0  0  0  0  0  0  0  0
   -5.8326   -0.3131   -0.4795 N   0  0  0  0  0  0  0  0  0  0  0  0
    2.9789    0.1824   -0.3818 C   0  0  0  0  0  0  0  0  0  0  0  0
    4.2707   -0.2368   -0.0514 C   0  0  0  0  0  0  0  0  0  0  0  0
    2.0089   -0.8260   -0.0634 C   0  0  0  0  0  0  0  0  0  0  0  0
    5.3813    0.5859   -0.2741 C   0  0  0  0  0  0  0  0  0  0  0  0
    0.5793   -0.7799   -0.2499 C   0  0  0  0  0  0  0  0  0  0  0  0
    2.8213    1.4582   -0.9464 C   0  0  0  0  0  0  0  0  0  0  0  0
    6.7110    0.1740    0.0585 C   0  0  0  0  0  0  0  0  0  0  0  0
    2.5703   -1.9544    0.4853 C   0  0  0  0  0  0  0  0  0  0  0  0
    5.1113    1.8218   -0.8350 C   0  0  0  0  0  0  0  0  0  0  0  0
   -0.2408   -0.2846    0.7640 C   0  0  0  0  0  0  0  0  0  0  0  0
    0.0169   -1.2298   -1.4444 C   0  0  0  0  0  0  0  0  0  0  0  0
    7.5236    0.8342    0.9475 C   0  0  0  0  0  0  0  0  0  0  0  0
   -2.1854   -0.6897   -0.6111 C   0  0  0  0  0  0  0  0  0  0  0  0
    7.4862   -0.9137   -0.3861 C   0  0  0  0  0  0  0  0  0  0  0  0
   -1.6231   -0.2396    0.5835 C   0  0  0  0  0  0  0  0  0  0  0  0
   -1.3654   -1.1848   -1.6251 C   0  0  0  0  0  0  0  0  0  0  0  0
    9.8558    0.4379    1.7740 C   0  0  0  0  0  0  0  0  0  0  0  0
   -4.5622   -0.1811    0.1038 C   0  0  0  0  0  0  0  0  0  0  0  0
   -7.0869    0.0305    0.0778 C   0  0  0  0  0  0  0  0  0  0  0  0
   -9.4924    0.1610   -0.1026 C   0  0  0  0  0  0  0  0  0  0  0  0
   -8.2562   -0.1759   -0.6539 C   0  0  0  0  0  0  0  0  0  0  0  0
   -7.1536    0.5737    1.3609 C   0  0  0  0  0  0  0  0  0  0  0  0
   -9.5593    0.7044    1.1804 C   0  0  0  0  0  0  0  0  0  0  0  0
   -8.3900    0.9107    1.9121 C   0  0  0  0  0  0  0  0  0  0  0  0
  -10.7427   -0.0562   -0.8863 C   0  0  0  0  0  0  0  0  0  0  0  0
    2.0742   -2.8580    0.8143 H   0  0  0  0  0  0  0  0  0  0  0  0
    5.9086    2.5292   -1.0485 H   0  0  0  0  0  0  0  0  0  0  0  0
    0.1831    0.0710    1.7004 H   0  0  0  0  0  0  0  0  0  0  0  0
    0.6422   -1.6174   -2.2454 H   0  0  0  0  0  0  0  0  0  0  0  0
    7.3754    1.7232    1.5466 H   0  0  0  0  0  0  0  0  0  0  0  0
    7.2254   -1.6845   -1.0979 H   0  0  0  0  0  0  0  0  0  0  0  0
   -2.1883    0.1573    1.4145 H   0  0  0  0  0  0  0  0  0  0  0  0
   -1.7900   -1.5382   -2.5614 H   0  0  0  0  0  0  0  0  0  0  0  0
    0.6992    1.4135   -1.1725 H   0  0  0  0  0  0  0  0  0  0  0  0
    1.4872    2.8674   -1.7034 H   0  0  0  0  0  0  0  0  0  0  0  0
   -3.9027   -0.9888   -1.6887 H   0  0  0  0  0  0  0  0  0  0  0  0
    9.6689    1.3399    2.3618 H   0  0  0  0  0  0  0  0  0  0  0  0
   10.6991    0.6007    1.0982 H   0  0  0  0  0  0  0  0  0  0  0  0
   10.0526   -0.4069    2.4387 H   0  0  0  0  0  0  0  0  0  0  0  0
   -5.8655   -0.7036   -1.4178 H   0  0  0  0  0  0  0  0  0  0  0  0
   -8.2052   -0.5977   -1.6552 H   0  0  0  0  0  0  0  0  0  0  0  0
   -6.2963    0.7641    1.9903 H   0  0  0  0  0  0  0  0  0  0  0  0
  -10.5161    0.9734    1.6200 H   0  0  0  0  0  0  0  0  0  0  0  0
   -8.4433    1.3344    2.9108 H   0  0  0  0  0  0  0  0  0  0  0  0
  -11.5987   -0.2332   -0.2263 H   0  0  0  0  0  0  0  0  0  0  0  0
  -10.6529   -0.9335   -1.5360 H   0  0  0  0  0  0  0  0  0  0  0  0
  -10.9544    0.8205   -1.5064 H   0  0  0  0  0  0  0  0  0  0  0  0
  1 10  1  0  0  0  0
  1 16  1  0  0  0  0
  2 26  2  0  0  0  0
  3 14  2  0  0  0  0
  3 17  1  0  0  0  0
  4  6  1  0  0  0  0
  4 20  1  0  0  0  0
  4 25  1  0  0  0  0
  5 14  1  0  0  0  0
  5 42  1  0  0  0  0
  5 43  1  0  0  0  0
  6 22  2  0  0  0  0
  7 21  1  0  0  0  0
  7 26  1  0  0  0  0
  7 44  1  0  0  0  0
  8 26  1  0  0  0  0
  8 27  1  0  0  0  0
  8 48  1  0  0  0  0
  9 10  2  0  0  0  0
  9 11  1  0  0  0  0
  9 14  1  0  0  0  0
 10 12  1  0  0  0  0
 11 13  1  0  0  0  0
 11 16  2  0  0  0  0
 12 15  1  0  0  0  0
 12 17  2  0  0  0  0
 13 18  2  0  0  0  0
 13 19  1  0  0  0  0
 15 20  2  0  0  0  0
 15 22  1  0  0  0  0
 16 34  1  0  0  0  0
 17 35  1  0  0  0  0
 18 23  1  0  0  0  0
 18 36  1  0  0  0  0
 19 24  2  0  0  0  0
 19 37  1  0  0  0  0
 20 38  1  0  0  0  0
 21 23  2  0  0  0  0
 21 24  1  0  0  0  0
 22 39  1  0  0  0  0
 23 40  1  0  0  0  0
 24 41  1  0  0  0  0
 25 45  1  0  0  0  0
 25 46  1  0  0  0  0
 25 47  1  0  0  0  0
 27 29  1  0  0  0  0
 27 30  2  0  0  0  0
 28 29  2  0  0  0  0
 28 31  1  0  0  0  0
 28 33  1  0  0  0  0
 29 49  1  0  0  0  0
 30 32  1  0  0  0  0
 30 50  1  0  0  0  0
 31 32  2  0  0  0  0
 31 51  1  0  0  0  0
 32 52  1  0  0  0  0
 33 53  1  0  0  0  0
 33 54  1  0  0  0  0
 33 55  1  0  0  0  0
M  END
> <PUBCHEM_COMPOUND_CID>
49830358

> <PUBCHEM_CONFORMER_RMSD>
0.8

> <PUBCHEM_CONFORMER_DIVERSEORDER>
1
47
21
11
10
49
31
46
42
25
6
27
22
5
20
7
50
26
8
23
9
38
44
39
43
14
34
48
30
37
18
24
32
41
19
12
40
45
36
28
16
4
33
17
35
15
29
3
13
2

> <PUBCHEM_MMFF94_PARTIAL_CHARGES>
48
1 -0.08
10 0.04
11 -0.05
12 0.05
13 0.05
14 0.41
15 -0.05
16 -0.11
17 0.16
18 -0.15
19 -0.15
2 -0.57
20 -0.3
21 0.12
22 0.14
23 -0.15
24 -0.15
25 0.26
26 0.69
27 0.12
28 -0.14
29 -0.15
3 -0.62
30 -0.15
31 -0.15
32 -0.15
33 0.14
34 0.15
35 0.15
36 0.15
37 0.15
38 0.15
39 0.15
4 0.31
40 0.15
41 0.15
42 0.4
43 0.4
44 0.37
48 0.37
49 0.15
5 -0.9
50 0.15
51 0.15
52 0.15
6 -0.71
7 -0.55
8 -0.55

> <PUBCHEM_EFFECTIVE_ROTOR_COUNT>
6

> <PUBCHEM_PHARMACOPHORE_FEATURES>
11
1 2 acceptor
1 5 donor
1 6 acceptor
1 7 donor
1 8 donor
3 3 5 14 cation
5 1 9 10 11 16 rings
5 4 6 15 20 22 rings
6 13 18 19 21 23 24 rings
6 27 28 29 30 31 32 rings
6 3 9 10 12 14 17 rings

> <PUBCHEM_HEAVY_ATOM_COUNT>
33

> <PUBCHEM_ATOM_DEF_STEREO_COUNT>
0

> <PUBCHEM_ATOM_UDEF_STEREO_COUNT>
0

> <PUBCHEM_BOND_DEF_STEREO_COUNT>
0

> <PUBCHEM_BOND_UDEF_STEREO_COUNT>
0

> <PUBCHEM_ISOTOPIC_ATOM_COUNT>
0

> <PUBCHEM_COMPONENT_COUNT>
1

> <PUBCHEM_CACTVS_TAUTO_COUNT>
6

> <PUBCHEM_CONFORMER_ID>
02F859D600000001

> <PUBCHEM_MMFF94_ENERGY>
102.1611

> <PUBCHEM_FEATURE_SELFOVERLAP>
55.936

> <PUBCHEM_SHAPE_FINGERPRINT>
10162869 55 18408318913443319543
10533779 47 17749396923022492123
11135609 127 16343413016805978048
11409948 35 15864337005479715474
11443803 9 17704070698829531039
11456790 92 17967814950640384985
12013929 2 14995996636882024061
12089408 11 17632578228129987435
12236239 1 18201717392918442470
12539745 222 15864062140325934365
12664476 115 18186515506134375317
12741549 16 16877938339438191492
14150022 121 17023179384676854469
14251764 46 17060338522007733806
14294032 229 17632574912837397181
14344974 52 16056588898471535243
15131766 46 16736665547855045236
15183329 4 17703798020631183513
15247644 1 13190343465924672737
15301273 46 15863788405080522925
15419008 47 16732698355636439589
15510794 2 16515404058809024595
15840311 113 18131351925943314888
16728433 281 13613423368519091291
1818759 1 11891334249159783409
19841028 212 11963655712576605001
20105231 36 14273731846526625072
20812841 46 18334289869281528960
21057603 238 16300898007717263598
21057603 43 17988923307496455166
21095086 128 13334731324283160216
21150785 3 14548739504316403599
21267235 1 13334735734592269486
21362267 20 14418139534576268361
21362267 313 17345480284034795922
21403212 168 18409166610315747646
21591340 7 18130785672658746815
21792934 111 18333726940861570108
22956985 138 12686742894569145304
24771293 8 17846225424041090249
24893992 56 17603870030846681515
249057 3 18260269667972577863
3092352 35 18273494577073981727
3178227 256 17894630366722791690
395649 100 17846773049625254359
397830 11 17314528096406426521
4874694 18 18186519904756191971
5028188 123 14476958988147879937
54039377 194 12107789610157060675
6081469 158 16877662353033753076
67123 10 17132113541979316491
9663363 56 18040152917208677596

> <PUBCHEM_SHAPE_MULTIPOLES>
647.22
36.25
1.55
1.41
44.22
0.04
-0.04
8.84
-10.37
-1.69
0.25
-0.05
0.38
-2.03

> <PUBCHEM_SHAPE_SELFOVERLAP>
1429.323

> <PUBCHEM_SHAPE_VOLUME>
351

> <PUBCHEM_COORDINATE_TYPE>
2
5
10

$$$$
