18451208
  -OEChem-10062121533D

 63 67  0     0  0  0  0  0  0999 V2000
   -3.4963   -0.7990   -0.5297 S   0  0  0  0  0  0  0  0  0  0  0  0
   -9.7001   -3.1675   -0.1227 O   0  0  0  0  0  0  0  0  0  0  0  0
    5.2157   -0.6407    1.1334 O   0  0  0  0  0  0  0  0  0  0  0  0
   -8.4103   -0.6966    0.4546 N   0  0  0  0  0  0  0  0  0  0  0  0
   -2.5511    3.4432    0.5526 N   0  0  0  0  0  0  0  0  0  0  0  0
   -0.2585    2.9703    0.2241 N   0  0  0  0  0  0  0  0  0  0  0  0
    4.4974   -0.0243   -1.0099 N   0  0  0  0  0  0  0  0  0  0  0  0
    6.7561   -0.2504   -0.5824 N   0  0  0  0  0  0  0  0  0  0  0  0
   -9.7386   -1.0154    0.9964 C   0  0  0  0  0  0  0  0  0  0  0  0
   -8.2108   -1.3864   -0.8276 C   0  0  0  0  0  0  0  0  0  0  0  0
   -9.8900   -2.5271    1.1395 C   0  0  0  0  0  0  0  0  0  0  0  0
   -8.3991   -2.8895   -0.6421 C   0  0  0  0  0  0  0  0  0  0  0  0
   -8.2466    0.7471    0.2981 C   0  0  0  0  0  0  0  0  0  0  0  0
   -1.9345    1.2184   -0.1119 C   0  0  0  0  0  0  0  0  0  0  0  0
   -1.1039    0.1105   -0.4884 C   0  0  0  0  0  0  0  0  0  0  0  0
   -3.2841    0.8551   -0.0941 C   0  0  0  0  0  0  0  0  0  0  0  0
    0.3317    0.0765   -0.6229 C   0  0  0  0  0  0  0  0  0  0  0  0
   -6.8275    1.1133    0.2800 C   0  0  0  0  0  0  0  0  0  0  0  0
   -4.2809    1.7773    0.2459 C   0  0  0  0  0  0  0  0  0  0  0  0
   -1.6008    2.5405    0.2218 C   0  0  0  0  0  0  0  0  0  0  0  0
   -1.8211   -1.0349   -0.7402 C   0  0  0  0  0  0  0  0  0  0  0  0
   -5.6653    1.4173    0.2643 C   0  0  0  0  0  0  0  0  0  0  0  0
    1.1260   -0.2594    0.4734 C   0  0  0  0  0  0  0  0  0  0  0  0
    0.9259    0.3785   -1.8482 C   0  0  0  0  0  0  0  0  0  0  0  0
   -3.8402    3.0516    0.5573 C   0  0  0  0  0  0  0  0  0  0  0  0
    3.1086    0.0084   -0.8810 C   0  0  0  0  0  0  0  0  0  0  0  0
    2.5145   -0.2935    0.3444 C   0  0  0  0  0  0  0  0  0  0  0  0
    2.3144    0.3445   -1.9773 C   0  0  0  0  0  0  0  0  0  0  0  0
    5.4690   -0.3379   -0.0283 C   0  0  0  0  0  0  0  0  0  0  0  0
    7.9970   -0.4840    0.0560 C   0  0  0  0  0  0  0  0  0  0  0  0
    9.1867   -0.3480   -0.6592 C   0  0  0  0  0  0  0  0  0  0  0  0
   10.4095   -0.5796   -0.0294 C   0  0  0  0  0  0  0  0  0  0  0  0
    8.0300   -0.8516    1.4012 C   0  0  0  0  0  0  0  0  0  0  0  0
   10.4427   -0.9473    1.3158 C   0  0  0  0  0  0  0  0  0  0  0  0
    9.2529   -1.0833    2.0311 C   0  0  0  0  0  0  0  0  0  0  0  0
   11.6817   -0.4361   -0.7945 C   0  0  0  0  0  0  0  0  0  0  0  0
   -9.8710   -0.5545    1.9820 H   0  0  0  0  0  0  0  0  0  0  0  0
  -10.5221   -0.6297    0.3311 H   0  0  0  0  0  0  0  0  0  0  0  0
   -8.9307   -1.0228   -1.5728 H   0  0  0  0  0  0  0  0  0  0  0  0
   -7.2020   -1.2075   -1.2163 H   0  0  0  0  0  0  0  0  0  0  0  0
  -10.8996   -2.7692    1.4866 H   0  0  0  0  0  0  0  0  0  0  0  0
   -9.1812   -2.9378    1.8689 H   0  0  0  0  0  0  0  0  0  0  0  0
   -7.6394   -3.3129    0.0263 H   0  0  0  0  0  0  0  0  0  0  0  0
   -8.3110   -3.3980   -1.6076 H   0  0  0  0  0  0  0  0  0  0  0  0
   -8.6941    1.2684    1.1549 H   0  0  0  0  0  0  0  0  0  0  0  0
   -8.7628    1.1245   -0.5933 H   0  0  0  0  0  0  0  0  0  0  0  0
   -1.4499   -2.0063   -1.0392 H   0  0  0  0  0  0  0  0  0  0  0  0
    0.6774   -0.4961    1.4356 H   0  0  0  0  0  0  0  0  0  0  0  0
    0.3211    0.6435   -2.7122 H   0  0  0  0  0  0  0  0  0  0  0  0
   -4.5425    3.8341    0.8325 H   0  0  0  0  0  0  0  0  0  0  0  0
    3.0584   -0.5617    1.2387 H   0  0  0  0  0  0  0  0  0  0  0  0
    2.7640    0.5828   -2.9380 H   0  0  0  0  0  0  0  0  0  0  0  0
   -0.0722    3.9331    0.4732 H   0  0  0  0  0  0  0  0  0  0  0  0
    0.5148    2.3704   -0.0065 H   0  0  0  0  0  0  0  0  0  0  0  0
    4.8561    0.2082   -1.9326 H   0  0  0  0  0  0  0  0  0  0  0  0
    6.8140    0.0130   -1.5629 H   0  0  0  0  0  0  0  0  0  0  0  0
    9.1620   -0.0636   -1.7088 H   0  0  0  0  0  0  0  0  0  0  0  0
    7.1553   -0.9780    2.0227 H   0  0  0  0  0  0  0  0  0  0  0  0
   11.3888   -1.1327    1.8172 H   0  0  0  0  0  0  0  0  0  0  0  0
    9.2801   -1.3704    3.0783 H   0  0  0  0  0  0  0  0  0  0  0  0
   12.5099   -0.1510   -0.1368 H   0  0  0  0  0  0  0  0  0  0  0  0
   11.5963    0.3446   -1.5580 H   0  0  0  0  0  0  0  0  0  0  0  0
   11.9338   -1.3816   -1.2848 H   0  0  0  0  0  0  0  0  0  0  0  0
  1 16  1  0  0  0  0
  1 21  1  0  0  0  0
  2 11  1  0  0  0  0
  2 12  1  0  0  0  0
  3 29  2  0  0  0  0
  4  9  1  0  0  0  0
  4 10  1  0  0  0  0
  4 13  1  0  0  0  0
  5 20  2  0  0  0  0
  5 25  1  0  0  0  0
  6 20  1  0  0  0  0
  6 53  1  0  0  0  0
  6 54  1  0  0  0  0
  7 26  1  0  0  0  0
  7 29  1  0  0  0  0
  7 55  1  0  0  0  0
  8 29  1  0  0  0  0
  8 30  1  0  0  0  0
  8 56  1  0  0  0  0
  9 11  1  0  0  0  0
  9 37  1  0  0  0  0
  9 38  1  0  0  0  0
 10 12  1  0  0  0  0
 10 39  1  0  0  0  0
 10 40  1  0  0  0  0
 11 41  1  0  0  0  0
 11 42  1  0  0  0  0
 12 43  1  0  0  0  0
 12 44  1  0  0  0  0
 13 18  1  0  0  0  0
 13 45  1  0  0  0  0
 13 46  1  0  0  0  0
 14 15  1  0  0  0  0
 14 16  2  0  0  0  0
 14 20  1  0  0  0  0
 15 17  1  0  0  0  0
 15 21  2  0  0  0  0
 16 19  1  0  0  0  0
 17 23  2  0  0  0  0
 17 24  1  0  0  0  0
 18 22  3  0  0  0  0
 19 22  1  0  0  0  0
 19 25  2  0  0  0  0
 21 47  1  0  0  0  0
 23 27  1  0  0  0  0
 23 48  1  0  0  0  0
 24 28  2  0  0  0  0
 24 49  1  0  0  0  0
 25 50  1  0  0  0  0
 26 27  2  0  0  0  0
 26 28  1  0  0  0  0
 27 51  1  0  0  0  0
 28 52  1  0  0  0  0
 30 31  1  0  0  0  0
 30 33  2  0  0  0  0
 31 32  2  0  0  0  0
 31 57  1  0  0  0  0
 32 34  1  0  0  0  0
 32 36  1  0  0  0  0
 33 35  1  0  0  0  0
 33 58  1  0  0  0  0
 34 35  2  0  0  0  0
 34 59  1  0  0  0  0
 35 60  1  0  0  0  0
 36 61  1  0  0  0  0
 36 62  1  0  0  0  0
 36 63  1  0  0  0  0
M  END
> <PUBCHEM_COMPOUND_CID>
18451208

> <PUBCHEM_CONFORMER_RMSD>
1

> <PUBCHEM_CONFORMER_DIVERSEORDER>
1
28
18
38
7
17
15
11
26
31
36
16
4
14
33
12
29
34
9
25
21
19
32
8
24
13
35
23
6
22
5
10
20
27
2
3
37
30

> <PUBCHEM_MMFF94_PARTIAL_CHARGES>
49
1 -0.08
10 0.27
11 0.28
12 0.28
13 0.47
15 -0.05
16 0.04
17 0.05
18 -0.2
19 0.07
2 -0.56
20 0.41
21 -0.11
22 -0.07
23 -0.15
24 -0.15
25 0.16
26 0.12
27 -0.15
28 -0.15
29 0.69
3 -0.57
30 0.12
31 -0.15
32 -0.14
33 -0.15
34 -0.15
35 -0.15
36 0.14
4 -0.81
47 0.15
48 0.15
49 0.15
5 -0.62
50 0.15
51 0.15
52 0.15
53 0.4
54 0.4
55 0.37
56 0.37
57 0.15
58 0.15
59 0.15
6 -0.9
60 0.15
7 -0.55
8 -0.55
9 0.27

> <PUBCHEM_EFFECTIVE_ROTOR_COUNT>
7.2

> <PUBCHEM_PHARMACOPHORE_FEATURES>
12
1 2 acceptor
1 3 acceptor
1 4 cation
1 6 donor
1 7 donor
1 8 donor
3 5 6 20 cation
5 1 14 15 16 21 rings
6 17 23 24 26 27 28 rings
6 2 4 9 10 11 12 rings
6 30 31 32 33 34 35 rings
6 5 14 16 19 20 25 rings

> <PUBCHEM_HEAVY_ATOM_COUNT>
36

> <PUBCHEM_ATOM_DEF_STEREO_COUNT>
0

> <PUBCHEM_ATOM_UDEF_STEREO_COUNT>
0

> <PUBCHEM_BOND_DEF_STEREO_COUNT>
0

> <PUBCHEM_BOND_UDEF_STEREO_COUNT>
0

> <PUBCHEM_ISOTOPIC_ATOM_COUNT>
0

> <PUBCHEM_COMPONENT_COUNT>
1

> <PUBCHEM_CACTVS_TAUTO_COUNT>
6

> <PUBCHEM_CONFORMER_ID>
01198B0800000001

> <PUBCHEM_MMFF94_ENERGY>
102.6843

> <PUBCHEM_FEATURE_SELFOVERLAP>
61.011

> <PUBCHEM_SHAPE_FINGERPRINT>
10 15 17917988335861146212
10162869 55 17458065967599641462
10533779 47 16845296000216465854
10580692 12 18341333311047188558
11181472 205 9871478611891516670
12089408 11 18113058216529672380
12498461 61 18408881841083725490
12539745 222 18040712555046417461
12741549 16 17203331134666116617
13740195 50 18131066047648939595
13947947 74 11458426825383691949
14202775 3 18341618071358279214
14279260 333 18409445895972733727
14918687 75 18113617902561253578
15247644 1 17095244713502801378
15274700 256 18412262857146006186
15392192 104 18409446961082223602
16087824 20 9439412315824651955
17686467 74 18272645745016709129
20105231 36 18273217470384764510
20501277 279 17132115732533943747
21057603 130 17749111102161096671
21102433 48 18040995141797717723
21360443 89 18411979191899758099
21792961 116 14634865327719130590
21792965 270 17417235654631272616
21895431 317 17822285748352496794
22899556 10 17479474344326345489
232437 2 18186802482927073642
2835820 33 18413389838999550370
3092352 35 18261112951617899722
3986486 107 13623523563703740343
3991529 128 10735881695151932559
4173938 188 18342173380005082034
4339292 15 18333167280636215603
4353968 344 17385718076896251029
437795 160 18412823590416222275
5381727 24 18409730656081993106
58083652 198 15647349528653616420
59521270 166 9079116652672923473
59521660 218 17895766213125922965
59682541 35 17704069586021135120
6691757 9 18335991899668781667
9663363 56 18273213076765018085
9962374 69 18040997362701211700

> <PUBCHEM_SHAPE_MULTIPOLES>
708.07
42.68
2.7
1.34
45.63
0.98
-0.03
-31.56
11.05
-9.37
0.56
1.96
-0.3
-1.48

> <PUBCHEM_SHAPE_SELFOVERLAP>
1531.738

> <PUBCHEM_SHAPE_VOLUME>
388.8

> <PUBCHEM_COORDINATE_TYPE>
2
5
10

$$$$
