44328782
  -OEChem-10062122043D

 63 66  0     1  0  0  0  0  0999 V2000
    0.5804   -3.3188    1.0290 O   0  0  0  0  0  0  0  0  0  0  0  0
    4.9721   -3.1447   -0.2600 O   0  0  0  0  0  0  0  0  0  0  0  0
   -6.1930    2.3564    0.5077 O   0  0  0  0  0  0  0  0  0  0  0  0
    1.1536   -0.5207    0.8633 N   0  0  0  0  0  0  0  0  0  0  0  0
   -5.3844    0.5874    1.7718 N   0  0  0  0  0  0  0  0  0  0  0  0
    5.5078   -0.3077    0.2023 N   0  0  0  0  0  0  0  0  0  0  0  0
    2.7960   -3.6319    0.3945 N   0  0  0  0  0  0  0  0  0  0  0  0
   -8.3060    0.3916    0.0588 N   0  0  0  0  0  0  0  0  0  0  0  0
   -2.4058    0.2584    1.9903 C   0  0  0  0  0  0  0  0  0  0  0  0
   -0.9635    0.5008    1.5331 C   0  0  0  0  0  0  0  0  0  0  0  0
   -3.1635    1.5799    2.1539 C   0  0  0  0  0  0  0  0  0  0  0  0
   -0.1951   -0.7966    1.2964 C   0  0  0  0  0  0  0  0  0  0  0  0
   -4.5864    1.3803    2.6656 C   0  0  0  0  0  0  0  0  0  0  0  0
    2.0636   -1.4828    0.5839 C   0  0  0  0  0  0  0  0  0  0  0  0
    3.3503   -1.4288    0.2038 C   0  0  0  0  0  0  0  0  0  0  0  0
    4.1603   -0.2317   -0.0275 C   0  0  0  0  0  0  0  0  0  0  0  0
   -6.8774    0.1090   -0.0853 C   0  0  1  0  0  0  0  0  0  0  0  0
    6.1044    0.9036   -0.0663 C   0  0  0  0  0  0  0  0  0  0  0  0
    5.0955    1.7756   -0.4811 C   0  0  0  0  0  0  0  0  0  0  0  0
    3.8744    1.0456   -0.4515 C   0  0  0  0  0  0  0  0  0  0  0  0
   -6.4725    0.2047   -1.5635 C   0  0  0  0  0  0  0  0  0  0  0  0
    1.6828   -2.9091    0.7069 C   0  0  0  0  0  0  0  0  0  0  0  0
    3.8460   -2.8213    0.0773 C   0  0  0  0  0  0  0  0  0  0  0  0
   -6.1364    1.1512    0.7468 C   0  0  0  0  0  0  0  0  0  0  0  0
   -5.0079   -0.0879   -1.7905 C   0  0  0  0  0  0  0  0  0  0  0  0
    7.4463    1.2900    0.0251 C   0  0  0  0  0  0  0  0  0  0  0  0
    5.4403    3.0986   -0.8219 C   0  0  0  0  0  0  0  0  0  0  0  0
    7.7645    2.6073   -0.3177 C   0  0  0  0  0  0  0  0  0  0  0  0
    6.7786    3.4993   -0.7350 C   0  0  0  0  0  0  0  0  0  0  0  0
   -4.0753    0.9486   -1.7491 C   0  0  0  0  0  0  0  0  0  0  0  0
   -4.5880   -1.3941   -2.0415 C   0  0  0  0  0  0  0  0  0  0  0  0
   -2.7229    0.6790   -1.9588 C   0  0  0  0  0  0  0  0  0  0  0  0
   -3.2357   -1.6639   -2.2511 C   0  0  0  0  0  0  0  0  0  0  0  0
   -2.3031   -0.6273   -2.2098 C   0  0  0  0  0  0  0  0  0  0  0  0
   -2.4003   -0.2853    2.9427 H   0  0  0  0  0  0  0  0  0  0  0  0
   -2.9140   -0.3782    1.2569 H   0  0  0  0  0  0  0  0  0  0  0  0
   -0.9649    1.0956    0.6112 H   0  0  0  0  0  0  0  0  0  0  0  0
   -0.4396    1.1028    2.2869 H   0  0  0  0  0  0  0  0  0  0  0  0
   -3.1874    2.1071    1.1925 H   0  0  0  0  0  0  0  0  0  0  0  0
   -2.6245    2.2238    2.8592 H   0  0  0  0  0  0  0  0  0  0  0  0
   -0.7317   -1.3706    0.5322 H   0  0  0  0  0  0  0  0  0  0  0  0
   -0.1872   -1.3610    2.2363 H   0  0  0  0  0  0  0  0  0  0  0  0
   -5.0655    2.3550    2.8093 H   0  0  0  0  0  0  0  0  0  0  0  0
   -4.5750    0.8680    3.6336 H   0  0  0  0  0  0  0  0  0  0  0  0
    1.4578    0.4443    0.7976 H   0  0  0  0  0  0  0  0  0  0  0  0
   -6.6765   -0.9011    0.2897 H   0  0  0  0  0  0  0  0  0  0  0  0
   -5.3815   -0.4200    1.8997 H   0  0  0  0  0  0  0  0  0  0  0  0
    6.0034   -1.1276    0.5257 H   0  0  0  0  0  0  0  0  0  0  0  0
    2.8974    1.4230   -0.7216 H   0  0  0  0  0  0  0  0  0  0  0  0
   -6.6993    1.2023   -1.9651 H   0  0  0  0  0  0  0  0  0  0  0  0
   -7.0716   -0.4945   -2.1629 H   0  0  0  0  0  0  0  0  0  0  0  0
    2.8363   -4.6448    0.3923 H   0  0  0  0  0  0  0  0  0  0  0  0
    8.2145    0.5962    0.3496 H   0  0  0  0  0  0  0  0  0  0  0  0
    4.6819    3.8043   -1.1486 H   0  0  0  0  0  0  0  0  0  0  0  0
   -8.8433   -0.2719   -0.4981 H   0  0  0  0  0  0  0  0  0  0  0  0
   -8.5874    0.2416    1.0272 H   0  0  0  0  0  0  0  0  0  0  0  0
    8.7977    2.9397   -0.2576 H   0  0  0  0  0  0  0  0  0  0  0  0
    7.0504    4.5186   -0.9964 H   0  0  0  0  0  0  0  0  0  0  0  0
   -4.3859    1.9729   -1.5639 H   0  0  0  0  0  0  0  0  0  0  0  0
   -5.3048   -2.2103   -2.0736 H   0  0  0  0  0  0  0  0  0  0  0  0
   -1.9967    1.4859   -1.9270 H   0  0  0  0  0  0  0  0  0  0  0  0
   -2.9083   -2.6811   -2.4448 H   0  0  0  0  0  0  0  0  0  0  0  0
   -1.2497   -0.8376   -2.3705 H   0  0  0  0  0  0  0  0  0  0  0  0
  1 22  2  0  0  0  0
  2 23  2  0  0  0  0
  3 24  2  0  0  0  0
  4 12  1  0  0  0  0
  4 14  1  0  0  0  0
  4 45  1  0  0  0  0
  5 13  1  0  0  0  0
  5 24  1  0  0  0  0
  5 47  1  0  0  0  0
  6 16  1  0  0  0  0
  6 18  1  0  0  0  0
  6 48  1  0  0  0  0
  7 22  1  0  0  0  0
  7 23  1  0  0  0  0
  7 52  1  0  0  0  0
  8 17  1  0  0  0  0
  8 55  1  0  0  0  0
  8 56  1  0  0  0  0
  9 10  1  0  0  0  0
  9 11  1  0  0  0  0
  9 35  1  0  0  0  0
  9 36  1  0  0  0  0
 10 12  1  0  0  0  0
 10 37  1  0  0  0  0
 10 38  1  0  0  0  0
 11 13  1  0  0  0  0
 11 39  1  0  0  0  0
 11 40  1  0  0  0  0
 12 41  1  0  0  0  0
 12 42  1  0  0  0  0
 13 43  1  0  0  0  0
 13 44  1  0  0  0  0
 14 15  2  0  0  0  0
 14 22  1  0  0  0  0
 15 16  1  0  0  0  0
 15 23  1  0  0  0  0
 16 20  2  0  0  0  0
 17 21  1  0  0  0  0
 17 24  1  0  0  0  0
 17 46  1  0  0  0  0
 18 19  1  0  0  0  0
 18 26  2  0  0  0  0
 19 20  1  0  0  0  0
 19 27  2  0  0  0  0
 20 49  1  0  0  0  0
 21 25  1  0  0  0  0
 21 50  1  0  0  0  0
 21 51  1  0  0  0  0
 25 30  2  0  0  0  0
 25 31  1  0  0  0  0
 26 28  1  0  0  0  0
 26 53  1  0  0  0  0
 27 29  1  0  0  0  0
 27 54  1  0  0  0  0
 28 29  2  0  0  0  0
 28 57  1  0  0  0  0
 29 58  1  0  0  0  0
 30 32  1  0  0  0  0
 30 59  1  0  0  0  0
 31 33  2  0  0  0  0
 31 60  1  0  0  0  0
 32 34  2  0  0  0  0
 32 61  1  0  0  0  0
 33 34  1  0  0  0  0
 33 62  1  0  0  0  0
 34 63  1  0  0  0  0
M  END
> <PUBCHEM_COMPOUND_CID>
44328782

> <PUBCHEM_CONFORMER_RMSD>
1.6

> <PUBCHEM_CONFORMER_DIVERSEORDER>
1
3
76
78
109
72
104
75
85
68
65
139
10
53
126
114
95
132
59
142
61
67
70
62
141
64
137
38
45
31
5
8
128
124
121
91
123
22
14
81
94
112
113
89
84
122
49
100
19
136
102
9
58
36
93
63
134
119
41
18
34
110
125
131
57
116
86
29
77
25
74
98
103
52
33
73
111
27
28
130
40
120
16
24
43
66
17
23
71
138
115
21
37
88
4
46
50
127
101
35
39
117
56
83
108
92
96
107
135
79
140
42
90
99
106
13
129
82
30
48
97
80
6
118
60
47
44
32
54
11
51
2
15
69
7
87
20
26
12
55
133
105

> <PUBCHEM_MMFF94_PARTIAL_CHARGES>
46
1 -0.57
12 0.37
13 0.3
14 0.11
15 0.06
16 -0.2
17 0.33
18 -0.15
2 -0.57
20 -0.15
21 0.14
22 0.62
23 0.62
24 0.57
25 -0.14
26 -0.15
27 -0.15
28 -0.15
29 -0.15
3 -0.57
30 -0.15
31 -0.15
32 -0.15
33 -0.15
34 -0.15
4 -0.87
45 0.4
47 0.37
48 0.27
49 0.15
5 -0.73
52 0.37
53 0.15
54 0.15
55 0.36
56 0.36
57 0.15
58 0.15
59 0.15
6 0.03
60 0.15
61 0.15
62 0.15
63 0.15
7 -0.49
8 -0.99

> <PUBCHEM_EFFECTIVE_ROTOR_COUNT>
12.2

> <PUBCHEM_PHARMACOPHORE_FEATURES>
15
1 1 acceptor
1 2 acceptor
1 3 acceptor
1 4 cation
1 4 donor
1 5 donor
1 6 cation
1 6 donor
1 7 donor
1 8 cation
1 8 donor
5 6 16 18 19 20 rings
5 7 14 15 22 23 rings
6 18 19 26 27 28 29 rings
6 25 30 31 32 33 34 rings

> <PUBCHEM_HEAVY_ATOM_COUNT>
34

> <PUBCHEM_ATOM_DEF_STEREO_COUNT>
0

> <PUBCHEM_ATOM_UDEF_STEREO_COUNT>
1

> <PUBCHEM_BOND_DEF_STEREO_COUNT>
0

> <PUBCHEM_BOND_UDEF_STEREO_COUNT>
0

> <PUBCHEM_ISOTOPIC_ATOM_COUNT>
0

> <PUBCHEM_COMPONENT_COUNT>
1

> <PUBCHEM_CACTVS_TAUTO_COUNT>
16

> <PUBCHEM_CONFORMER_ID>
02A4674E00000001

> <PUBCHEM_MMFF94_ENERGY>
58.9616

> <PUBCHEM_FEATURE_SELFOVERLAP>
76.215

> <PUBCHEM_SHAPE_FINGERPRINT>
11200772 71 17917710227421370839
11273773 42 18272939344685868792
11297010 23 18271821112260689478
11479125 193 18334571343403950225
12144603 126 18131360679208302553
12788726 201 17489867133361319419
13627175 23 18343585123118340102
13751561 76 17240197708200801840
14202776 33 17917154901579115857
14289278 72 13912598330420187802
14415360 78 18194681703849099624
14767858 380 18202003235022344696
14904385 31 17749115516897347660
15183329 4 17489868254379263301
15320295 44 18343295951164616063
15328829 1 18131355223771589213
15406563 185 15985095328087239167
15684393 108 18342736317722551247
15685185 35 18267589194257042608
21033648 29 16950286221778318570
21779490 71 18187087286092554724
21792961 116 13398363365308203412
23522609 53 18059863839872864737
25269216 80 16988283195580643844
44249763 50 17095528413736398219
5911458 16 18201722868279175333
6608658 132 17632026260007503521

> <PUBCHEM_SHAPE_MULTIPOLES>
657.19
23.15
3.68
2.28
2.78
1.89
-0.04
-17.11
4.29
7.54
-0.23
-5.06
-0.32
-3.73

> <PUBCHEM_SHAPE_SELFOVERLAP>
1415.671

> <PUBCHEM_SHAPE_VOLUME>
361.9

> <PUBCHEM_COORDINATE_TYPE>
2
5
10

$$$$
