44575126
  -OEChem-10062122023D

 44 47  0     1  0  0  0  0  0999 V2000
    3.6447   -1.8683   -0.5363 O   0  0  0  0  0  0  0  0  0  0  0  0
    1.7955   -3.8305   -1.9693 O   0  0  0  0  0  0  0  0  0  0  0  0
   -2.0730    1.9765   -0.7059 O   0  0  0  0  0  0  0  0  0  0  0  0
    1.2606   -0.7058    1.2745 N   0  0  0  0  0  0  0  0  0  0  0  0
   -0.7735   -2.8656   -0.3027 N   0  0  0  0  0  0  0  0  0  0  0  0
   -4.2104   -0.5799    0.5642 N   0  0  0  0  0  0  0  0  0  0  0  0
    2.4273    0.0775    1.6582 C   0  0  1  0  0  0  0  0  0  0  0  0
    1.3021   -1.6276    0.3500 C   0  0  0  0  0  0  0  0  0  0  0  0
    0.4801   -2.4999   -0.2876 C   0  0  0  0  0  0  0  0  0  0  0  0
    2.6730    1.1850    0.6900 C   0  0  0  0  0  0  0  0  0  0  0  0
    2.4657   -2.0738   -0.4129 C   0  0  0  0  0  0  0  0  0  0  0  0
    1.5716   -3.0227   -1.1063 C   0  0  0  0  0  0  0  0  0  0  0  0
    2.2269    0.5488    3.1064 C   0  0  0  0  0  0  0  0  0  0  0  0
   -1.9324   -2.0945   -0.0107 C   0  0  0  0  0  0  0  0  0  0  0  0
    1.5993    1.7961    0.0427 C   0  0  0  0  0  0  0  0  0  0  0  0
    3.9763    1.6097    0.4319 C   0  0  0  0  0  0  0  0  0  0  0  0
   -1.9414   -0.7261   -0.2572 C   0  0  0  0  0  0  0  0  0  0  0  0
    1.8287    2.8320   -0.8629 C   0  0  0  0  0  0  0  0  0  0  0  0
    4.2059    2.6455   -0.4736 C   0  0  0  0  0  0  0  0  0  0  0  0
   -3.0612   -2.7065    0.5230 C   0  0  0  0  0  0  0  0  0  0  0  0
   -3.0947   -0.0201    0.0451 C   0  0  0  0  0  0  0  0  0  0  0  0
    3.1320    3.2567   -1.1210 C   0  0  0  0  0  0  0  0  0  0  0  0
   -3.1857    1.3980   -0.1823 C   0  0  0  0  0  0  0  0  0  0  0  0
   -4.1644   -1.9120    0.7903 C   0  0  0  0  0  0  0  0  0  0  0  0
   -4.1715    2.3369    0.0143 C   0  0  0  0  0  0  0  0  0  0  0  0
   -3.6300    3.5715   -0.4165 C   0  0  0  0  0  0  0  0  0  0  0  0
   -2.3516    3.2990   -0.8453 C   0  0  0  0  0  0  0  0  0  0  0  0
    3.3052   -0.5821    1.6829 H   0  0  0  0  0  0  0  0  0  0  0  0
    0.3885   -0.4562    1.7360 H   0  0  0  0  0  0  0  0  0  0  0  0
    3.1029    1.1023    3.4617 H   0  0  0  0  0  0  0  0  0  0  0  0
    2.0663   -0.3033    3.7762 H   0  0  0  0  0  0  0  0  0  0  0  0
    1.3576    1.2110    3.1943 H   0  0  0  0  0  0  0  0  0  0  0  0
   -1.0335   -3.7707   -0.6915 H   0  0  0  0  0  0  0  0  0  0  0  0
    0.5716    1.5067    0.2391 H   0  0  0  0  0  0  0  0  0  0  0  0
    4.8218    1.1431    0.9305 H   0  0  0  0  0  0  0  0  0  0  0  0
   -1.0776   -0.2366   -0.6944 H   0  0  0  0  0  0  0  0  0  0  0  0
    0.9935    3.3116   -1.3643 H   0  0  0  0  0  0  0  0  0  0  0  0
    5.2206    2.9766   -0.6743 H   0  0  0  0  0  0  0  0  0  0  0  0
   -3.0876   -3.7713    0.7283 H   0  0  0  0  0  0  0  0  0  0  0  0
    3.3107    4.0639   -1.8253 H   0  0  0  0  0  0  0  0  0  0  0  0
   -5.0698   -2.3407    1.2073 H   0  0  0  0  0  0  0  0  0  0  0  0
   -5.1596    2.1629    0.4168 H   0  0  0  0  0  0  0  0  0  0  0  0
   -4.1110    4.5389   -0.4147 H   0  0  0  0  0  0  0  0  0  0  0  0
   -1.5566    3.9041   -1.2556 H   0  0  0  0  0  0  0  0  0  0  0  0
  1 11  2  0  0  0  0
  2 12  2  0  0  0  0
  3 23  1  0  0  0  0
  3 27  1  0  0  0  0
  4  7  1  0  0  0  0
  4  8  1  0  0  0  0
  4 29  1  0  0  0  0
  5  9  1  0  0  0  0
  5 14  1  0  0  0  0
  5 33  1  0  0  0  0
  6 21  2  0  0  0  0
  6 24  1  0  0  0  0
  7 10  1  0  0  0  0
  7 13  1  0  0  0  0
  7 28  1  0  0  0  0
  8  9  2  0  0  0  0
  8 11  1  0  0  0  0
  9 12  1  0  0  0  0
 10 15  2  0  0  0  0
 10 16  1  0  0  0  0
 11 12  1  0  0  0  0
 13 30  1  0  0  0  0
 13 31  1  0  0  0  0
 13 32  1  0  0  0  0
 14 17  2  0  0  0  0
 14 20  1  0  0  0  0
 15 18  1  0  0  0  0
 15 34  1  0  0  0  0
 16 19  2  0  0  0  0
 16 35  1  0  0  0  0
 17 21  1  0  0  0  0
 17 36  1  0  0  0  0
 18 22  2  0  0  0  0
 18 37  1  0  0  0  0
 19 22  1  0  0  0  0
 19 38  1  0  0  0  0
 20 24  2  0  0  0  0
 20 39  1  0  0  0  0
 21 23  1  0  0  0  0
 22 40  1  0  0  0  0
 23 25  2  0  0  0  0
 24 41  1  0  0  0  0
 25 26  1  0  0  0  0
 25 42  1  0  0  0  0
 26 27  2  0  0  0  0
 26 43  1  0  0  0  0
 27 44  1  0  0  0  0
M  END
> <PUBCHEM_COMPOUND_CID>
44575126

> <PUBCHEM_CONFORMER_RMSD>
1.2

> <PUBCHEM_CONFORMER_DIVERSEORDER>
1
37
14
60
109
43
61
103
64
110
12
93
81
115
79
77
73
19
91
34
99
82
59
90
17
66
114
95
51
7
30
78
58
87
52
94
21
26
41
62
38
55
86
65
96
83
107
92
102
113
44
13
56
76
22
108
71
97
80
116
106
100
29
88
27
46
3
16
47
20
85
63
45
25
67
23
40
49
8
105
39
89
28
84
104
2
57
31
50
6
4
32
98
36
35
48
68
53
112
69
15
54
24
74
33
101
72
11
111
75
70
10
42
9
5
18

> <PUBCHEM_MMFF94_PARTIAL_CHARGES>
39
1 -0.57
10 -0.14
11 0.64
12 0.64
14 0.1
15 -0.15
16 -0.15
17 -0.15
18 -0.15
19 -0.15
2 -0.57
20 -0.15
21 0.36
22 -0.15
23 0.09
24 0.16
25 -0.15
26 -0.15
27 -0.01
29 0.4
3 -0.28
33 0.4
34 0.15
35 0.15
36 0.15
37 0.15
38 0.15
39 0.15
4 -0.87
40 0.15
41 0.15
42 0.15
43 0.15
44 0.15
5 -0.6
6 -0.62
7 0.51
8 0.03
9 0.03

> <PUBCHEM_EFFECTIVE_ROTOR_COUNT>
6

> <PUBCHEM_PHARMACOPHORE_FEATURES>
12
1 1 acceptor
1 2 acceptor
1 3 acceptor
1 4 cation
1 4 donor
1 5 cation
1 5 donor
1 6 acceptor
4 8 9 11 12 rings
5 3 23 25 26 27 rings
6 10 15 16 18 19 22 rings
6 6 14 17 20 21 24 rings

> <PUBCHEM_HEAVY_ATOM_COUNT>
27

> <PUBCHEM_ATOM_DEF_STEREO_COUNT>
1

> <PUBCHEM_ATOM_UDEF_STEREO_COUNT>
0

> <PUBCHEM_BOND_DEF_STEREO_COUNT>
0

> <PUBCHEM_BOND_UDEF_STEREO_COUNT>
0

> <PUBCHEM_ISOTOPIC_ATOM_COUNT>
0

> <PUBCHEM_COMPONENT_COUNT>
1

> <PUBCHEM_CACTVS_TAUTO_COUNT>
11

> <PUBCHEM_CONFORMER_ID>
02A8299600000001

> <PUBCHEM_MMFF94_ENERGY>
72.619

> <PUBCHEM_FEATURE_SELFOVERLAP>
60.898

> <PUBCHEM_SHAPE_FINGERPRINT>
10165383 225 17915475001786689611
10616163 171 18335137643711671145
10670039 82 18264212585521239020
10764073 3 17406510794954838690
11221954 11 18335417963257335147
11513181 2 18272650134509910823
12107698 1 18187640327571669898
12156800 1 13485953913849635956
12422481 6 18196061436549113018
12553582 1 17976812409415142009
12633257 1 17897426333711956161
12978246 48 18263922305471330392
13122387 1 17618217308859001373
13402501 40 17978786805416759719
14251751 93 18336263565151288188
15210252 30 17687197391499311268
15403338 16 17242704680458853963
15961568 22 18191589855285722495
17093844 170 17979343167280992400
17921350 177 17534882122860328548
17977149 70 18266475363260965236
20600515 1 17409385978805307142
20764821 26 18409450245798099973
23536364 44 17914363241507940228
23558518 356 18335414647943710499
23559900 14 18340483357565881165
350125 39 18340216219263838099
4280585 95 17977948986785061014
46194498 28 18340780264265400679
5081480 168 17628099817952883030
508706 21 18337945701987873591
5252454 2 17988648544518984571
53794403 172 18263083232534933269
54672768 99 18339920403217291744
57527585 21 18340189899936357501
6287921 2 18337967726495700189
6823239 73 18337674092424610200

> <PUBCHEM_SHAPE_MULTIPOLES>
523.1
8.38
5.5
1.52
2.72
0.46
-0.98
4.53
-0.63
0.67
2.76
-1.54
-0.35
0.99

> <PUBCHEM_SHAPE_SELFOVERLAP>
1158.933

> <PUBCHEM_SHAPE_VOLUME>
276.5

> <PUBCHEM_COORDINATE_TYPE>
2
5
10

$$$$
