49830995
  -OEChem-10062121533D

 57 58  0     0  0  0  0  0  0999 V2000
   -1.2131    3.1889    0.3777 O   0  0  0  0  0  0  0  0  0  0  0  0
   -5.1218    0.0618    0.3062 O   0  0  0  0  0  0  0  0  0  0  0  0
   -4.0212   -2.4490   -0.1282 O   0  0  0  0  0  0  0  0  0  0  0  0
    1.0014   -2.4136   -1.4983 O   0  0  0  0  0  0  0  0  0  0  0  0
    0.6817    1.8795    0.0309 N   0  0  0  0  0  0  0  0  0  0  0  0
    2.1320   -2.0006    0.4987 N   0  0  0  0  0  0  0  0  0  0  0  0
    1.6102    3.0036    0.0997 C   0  0  0  0  0  0  0  0  0  0  0  0
    2.3739    3.1564   -1.2247 C   0  0  0  0  0  0  0  0  0  0  0  0
    2.5936    2.8251    1.2670 C   0  0  0  0  0  0  0  0  0  0  0  0
   -0.6936    2.0923    0.1833 C   0  0  0  0  0  0  0  0  0  0  0  0
    1.2171    0.6238   -0.1857 C   0  0  0  0  0  0  0  0  0  0  0  0
   -1.5612    0.8843    0.0992 C   0  0  0  0  0  0  0  0  0  0  0  0
    0.4696   -0.4853   -0.2669 C   0  0  0  0  0  0  0  0  0  0  0  0
   -0.9884   -0.3811   -0.1219 C   0  0  0  0  0  0  0  0  0  0  0  0
    1.4507    3.3364   -2.4232 C   0  0  0  0  0  0  0  0  0  0  0  0
    1.8919    2.6647    2.6099 C   0  0  0  0  0  0  0  0  0  0  0  0
   -2.9483    1.0285    0.2423 C   0  0  0  0  0  0  0  0  0  0  0  0
   -1.8399   -1.4929   -0.1947 C   0  0  0  0  0  0  0  0  0  0  0  0
    1.2152   -1.7283   -0.5003 C   0  0  0  0  0  0  0  0  0  0  0  0
   -3.7755   -0.0892    0.1662 C   0  0  0  0  0  0  0  0  0  0  0  0
   -3.2226   -1.3471   -0.0517 C   0  0  0  0  0  0  0  0  0  0  0  0
    2.9853   -3.1675    0.4953 C   0  0  0  0  0  0  0  0  0  0  0  0
    4.3126   -2.9155   -0.2123 C   0  0  0  0  0  0  0  0  0  0  0  0
    5.1355   -1.8122    0.4567 C   0  0  0  0  0  0  0  0  0  0  0  0
    6.4778   -1.6249   -0.2332 C   0  0  0  0  0  0  0  0  0  0  0  0
   -5.8742    0.3020   -0.8818 C   0  0  0  0  0  0  0  0  0  0  0  0
   -4.2886   -3.1403    1.0900 C   0  0  0  0  0  0  0  0  0  0  0  0
    1.0453    3.9281    0.2724 H   0  0  0  0  0  0  0  0  0  0  0  0
    3.0203    4.0407   -1.1554 H   0  0  0  0  0  0  0  0  0  0  0  0
    3.0435    2.3101   -1.4154 H   0  0  0  0  0  0  0  0  0  0  0  0
    3.2653    1.9728    1.1130 H   0  0  0  0  0  0  0  0  0  0  0  0
    3.2387    3.7114    1.3208 H   0  0  0  0  0  0  0  0  0  0  0  0
    2.2943    0.5694   -0.3002 H   0  0  0  0  0  0  0  0  0  0  0  0
    2.0410    3.5474   -3.3209 H   0  0  0  0  0  0  0  0  0  0  0  0
    0.7641    4.1747   -2.2673 H   0  0  0  0  0  0  0  0  0  0  0  0
    0.8601    2.4371   -2.6215 H   0  0  0  0  0  0  0  0  0  0  0  0
    1.2067    3.4977    2.7968 H   0  0  0  0  0  0  0  0  0  0  0  0
    2.6309    2.6489    3.4176 H   0  0  0  0  0  0  0  0  0  0  0  0
    1.3250    1.7306    2.6643 H   0  0  0  0  0  0  0  0  0  0  0  0
   -3.3949    2.0048    0.4138 H   0  0  0  0  0  0  0  0  0  0  0  0
   -1.4367   -2.4894   -0.3599 H   0  0  0  0  0  0  0  0  0  0  0  0
    2.4567   -3.9911    0.0032 H   0  0  0  0  0  0  0  0  0  0  0  0
    3.1541   -3.4506    1.5396 H   0  0  0  0  0  0  0  0  0  0  0  0
    2.2156   -1.3699    1.2911 H   0  0  0  0  0  0  0  0  0  0  0  0
    4.8893   -3.8483   -0.2196 H   0  0  0  0  0  0  0  0  0  0  0  0
    4.1264   -2.6443   -1.2589 H   0  0  0  0  0  0  0  0  0  0  0  0
    4.5910   -0.8615    0.4317 H   0  0  0  0  0  0  0  0  0  0  0  0
    5.3052   -2.0622    1.5105 H   0  0  0  0  0  0  0  0  0  0  0  0
    6.3432   -1.3438   -1.2826 H   0  0  0  0  0  0  0  0  0  0  0  0
    7.0500   -0.8328    0.2600 H   0  0  0  0  0  0  0  0  0  0  0  0
    7.0699   -2.5448   -0.1964 H   0  0  0  0  0  0  0  0  0  0  0  0
   -5.5540    1.2351   -1.3561 H   0  0  0  0  0  0  0  0  0  0  0  0
   -5.7657   -0.5324   -1.5820 H   0  0  0  0  0  0  0  0  0  0  0  0
   -6.9285    0.3929   -0.6069 H   0  0  0  0  0  0  0  0  0  0  0  0
   -3.3596   -3.5194    1.5276 H   0  0  0  0  0  0  0  0  0  0  0  0
   -4.7991   -2.4839    1.8019 H   0  0  0  0  0  0  0  0  0  0  0  0
   -4.9414   -3.9884    0.8665 H   0  0  0  0  0  0  0  0  0  0  0  0
  1 10  2  0  0  0  0
  2 20  1  0  0  0  0
  2 26  1  0  0  0  0
  3 21  1  0  0  0  0
  3 27  1  0  0  0  0
  4 19  2  0  0  0  0
  5  7  1  0  0  0  0
  5 10  1  0  0  0  0
  5 11  1  0  0  0  0
  6 19  1  0  0  0  0
  6 22  1  0  0  0  0
  6 44  1  0  0  0  0
  7  8  1  0  0  0  0
  7  9  1  0  0  0  0
  7 28  1  0  0  0  0
  8 15  1  0  0  0  0
  8 29  1  0  0  0  0
  8 30  1  0  0  0  0
  9 16  1  0  0  0  0
  9 31  1  0  0  0  0
  9 32  1  0  0  0  0
 10 12  1  0  0  0  0
 11 13  2  0  0  0  0
 11 33  1  0  0  0  0
 12 14  1  0  0  0  0
 12 17  2  0  0  0  0
 13 14  1  0  0  0  0
 13 19  1  0  0  0  0
 14 18  2  0  0  0  0
 15 34  1  0  0  0  0
 15 35  1  0  0  0  0
 15 36  1  0  0  0  0
 16 37  1  0  0  0  0
 16 38  1  0  0  0  0
 16 39  1  0  0  0  0
 17 20  1  0  0  0  0
 17 40  1  0  0  0  0
 18 21  1  0  0  0  0
 18 41  1  0  0  0  0
 20 21  2  0  0  0  0
 22 23  1  0  0  0  0
 22 42  1  0  0  0  0
 22 43  1  0  0  0  0
 23 24  1  0  0  0  0
 23 45  1  0  0  0  0
 23 46  1  0  0  0  0
 24 25  1  0  0  0  0
 24 47  1  0  0  0  0
 24 48  1  0  0  0  0
 25 49  1  0  0  0  0
 25 50  1  0  0  0  0
 25 51  1  0  0  0  0
 26 52  1  0  0  0  0
 26 53  1  0  0  0  0
 26 54  1  0  0  0  0
 27 55  1  0  0  0  0
 27 56  1  0  0  0  0
 27 57  1  0  0  0  0
M  END
> <PUBCHEM_COMPOUND_CID>
49830995

> <PUBCHEM_CONFORMER_RMSD>
1

> <PUBCHEM_CONFORMER_DIVERSEORDER>
1
7
19
10
23
22
8
45
43
27
37
40
6
21
24
31
3
49
29
15
50
9
14
16
47
12
26
48
4
13
35
25
20
46
36
17
18
39
11
33
30
38
42
41
28
34
32
44
5
2

> <PUBCHEM_MMFF94_PARTIAL_CHARGES>
24
1 -0.57
10 0.54
11 -0.04
12 0.09
13 -0.01
14 0.03
17 -0.15
18 -0.15
19 0.62
2 -0.36
20 0.08
21 0.08
22 0.3
26 0.28
27 0.28
3 -0.36
33 0.15
4 -0.57
40 0.15
41 0.15
44 0.37
5 -0.47
6 -0.73
7 0.3

> <PUBCHEM_EFFECTIVE_ROTOR_COUNT>
10

> <PUBCHEM_PHARMACOPHORE_FEATURES>
10
1 1 acceptor
1 15 hydrophobe
1 16 hydrophobe
1 2 acceptor
1 25 hydrophobe
1 3 acceptor
1 4 acceptor
1 6 donor
6 12 14 17 18 20 21 rings
6 5 10 11 12 13 14 rings

> <PUBCHEM_HEAVY_ATOM_COUNT>
27

> <PUBCHEM_ATOM_DEF_STEREO_COUNT>
0

> <PUBCHEM_ATOM_UDEF_STEREO_COUNT>
0

> <PUBCHEM_BOND_DEF_STEREO_COUNT>
0

> <PUBCHEM_BOND_UDEF_STEREO_COUNT>
0

> <PUBCHEM_ISOTOPIC_ATOM_COUNT>
0

> <PUBCHEM_COMPONENT_COUNT>
1

> <PUBCHEM_CACTVS_TAUTO_COUNT>
2

> <PUBCHEM_CONFORMER_ID>
02F85C5300000001

> <PUBCHEM_MMFF94_ENERGY>
76.3273

> <PUBCHEM_FEATURE_SELFOVERLAP>
50.775

> <PUBCHEM_SHAPE_FINGERPRINT>
10670039 82 18120388566981108142
10906281 52 18127422146330224159
1100329 8 18267308630113507681
11045515 52 18114745906827679998
11578080 2 17386830743180569142
11963148 33 17688026835394818763
12553582 1 18124898788646078247
12839892 36 17978214290782284027
13004483 165 18046897191435009186
13140716 1 18412832387052862507
140371 6 18269282270348898847
14787075 74 18187087243823181058
14790565 3 17044581137809261152
14955137 171 18131073719035841806
15042514 8 17834114143386921411
15927050 60 17909268332395469926
17980427 23 17488746662477398273
1813 80 17968369070657562040
19591789 44 18123756618943721198
20510252 161 17333929747134076232
20600515 1 18197790890207136478
20642791 13 17912926085141840285
20642791 178 18335998501175887940
20771845 171 17608651944360490887
21033648 29 17130404818841820107
22956985 138 18262794185404201122
23366157 5 18186803629440560303
23419403 2 18192685904785080668
23557571 272 17984708809995030606
23559900 14 18408598184605740187
25147074 1 18272101461349780761
335352 9 18338514145853202911
43471831 8 18123470741847097577
4409770 3 17395565100364138340
469060 322 18116439146730173864
5104073 3 18270973448577388067
7364860 26 18343582957942892497
81228 2 17620215142813547410

> <PUBCHEM_SHAPE_MULTIPOLES>
522.21
10.4
5.13
1.42
1.34
1.4
-0.13
-9.13
-0.07
-4.32
-0.01
-0.89
1.48
0.57

> <PUBCHEM_SHAPE_SELFOVERLAP>
1078.584

> <PUBCHEM_SHAPE_VOLUME>
300.2

> <PUBCHEM_COORDINATE_TYPE>
2
5
10

$$$$
