49830513
  -OEChem-10062121543D

 38 40  0     0  0  0  0  0  0999 V2000
   -2.4452   -3.9143   -0.3736 Br  0  0  0  0  0  0  0  0  0  0  0  0
   -4.7309    0.2198    1.0677 O   0  0  0  0  0  0  0  0  0  0  0  0
   -1.7006   -0.8770   -0.0871 N   0  0  0  0  0  0  0  0  0  0  0  0
    2.9676   -1.4048    0.0578 N   0  0  0  0  0  0  0  0  0  0  0  0
    3.5032    2.1003    0.3746 N   0  0  0  0  0  0  0  0  0  0  0  0
    0.6380   -1.1335   -0.0138 N   0  0  0  0  0  0  0  0  0  0  0  0
    4.7943    1.7279    0.3962 N   0  0  0  0  0  0  0  0  0  0  0  0
    1.6338   -3.3232   -0.1580 N   0  0  0  0  0  0  0  0  0  0  0  0
   -3.1200    0.9424    2.5310 N   0  0  0  0  0  0  0  0  0  0  0  0
   -1.9067    0.4565   -0.5055 C   0  0  0  0  0  0  0  0  0  0  0  0
   -2.8418    1.2711    0.1330 C   0  0  0  0  0  0  0  0  0  0  0  0
    3.4057   -0.0738    0.1877 C   0  0  0  0  0  0  0  0  0  0  0  0
   -0.5737   -1.7187   -0.1123 C   0  0  0  0  0  0  0  0  0  0  0  0
   -1.1596    0.9560   -1.5721 C   0  0  0  0  0  0  0  0  0  0  0  0
    2.6311    1.0588    0.2512 C   0  0  0  0  0  0  0  0  0  0  0  0
    1.6831   -1.9824   -0.0430 C   0  0  0  0  0  0  0  0  0  0  0  0
   -3.0298    2.5852   -0.2952 C   0  0  0  0  0  0  0  0  0  0  0  0
    4.7285    0.3987    0.2817 C   0  0  0  0  0  0  0  0  0  0  0  0
   -0.7598   -3.0806   -0.2348 C   0  0  0  0  0  0  0  0  0  0  0  0
   -1.3474    2.2703   -2.0004 C   0  0  0  0  0  0  0  0  0  0  0  0
   -2.2825    3.0849   -1.3618 C   0  0  0  0  0  0  0  0  0  0  0  0
   -3.6374    0.7794    1.2509 C   0  0  0  0  0  0  0  0  0  0  0  0
    3.1587    3.4981    0.4778 C   0  0  0  0  0  0  0  0  0  0  0  0
    0.3915   -3.8412   -0.2521 C   0  0  0  0  0  0  0  0  0  0  0  0
   -2.4770   -1.2744    0.4339 H   0  0  0  0  0  0  0  0  0  0  0  0
    3.6861   -2.1257    0.0263 H   0  0  0  0  0  0  0  0  0  0  0  0
    1.5639    1.2264    0.2232 H   0  0  0  0  0  0  0  0  0  0  0  0
   -0.4345    0.3391   -2.0960 H   0  0  0  0  0  0  0  0  0  0  0  0
   -3.7555    3.2301    0.1938 H   0  0  0  0  0  0  0  0  0  0  0  0
    5.6489   -0.1678    0.2718 H   0  0  0  0  0  0  0  0  0  0  0  0
   -0.7675    2.6586   -2.8325 H   0  0  0  0  0  0  0  0  0  0  0  0
   -2.4290    4.1080   -1.6955 H   0  0  0  0  0  0  0  0  0  0  0  0
    3.5344    3.8751    1.4323 H   0  0  0  0  0  0  0  0  0  0  0  0
    3.6240    4.0295   -0.3561 H   0  0  0  0  0  0  0  0  0  0  0  0
    2.0727    3.6112    0.4327 H   0  0  0  0  0  0  0  0  0  0  0  0
    0.3620   -4.9226   -0.3444 H   0  0  0  0  0  0  0  0  0  0  0  0
   -2.2244    1.3902    2.6976 H   0  0  0  0  0  0  0  0  0  0  0  0
   -3.6281    0.6133    3.3452 H   0  0  0  0  0  0  0  0  0  0  0  0
  1 19  1  0  0  0  0
  2 22  2  0  0  0  0
  3 10  1  0  0  0  0
  3 13  1  0  0  0  0
  3 25  1  0  0  0  0
  4 12  1  0  0  0  0
  4 16  1  0  0  0  0
  4 26  1  0  0  0  0
  5  7  1  0  0  0  0
  5 15  1  0  0  0  0
  5 23  1  0  0  0  0
  6 13  2  0  0  0  0
  6 16  1  0  0  0  0
  7 18  2  0  0  0  0
  8 16  2  0  0  0  0
  8 24  1  0  0  0  0
  9 22  1  0  0  0  0
  9 37  1  0  0  0  0
  9 38  1  0  0  0  0
 10 11  1  0  0  0  0
 10 14  2  0  0  0  0
 11 17  2  0  0  0  0
 11 22  1  0  0  0  0
 12 15  2  0  0  0  0
 12 18  1  0  0  0  0
 13 19  1  0  0  0  0
 14 20  1  0  0  0  0
 14 28  1  0  0  0  0
 15 27  1  0  0  0  0
 17 21  1  0  0  0  0
 17 29  1  0  0  0  0
 18 30  1  0  0  0  0
 19 24  2  0  0  0  0
 20 21  2  0  0  0  0
 20 31  1  0  0  0  0
 21 32  1  0  0  0  0
 23 33  1  0  0  0  0
 23 34  1  0  0  0  0
 23 35  1  0  0  0  0
 24 36  1  0  0  0  0
M  END
> <PUBCHEM_COMPOUND_CID>
49830513

> <PUBCHEM_CONFORMER_RMSD>
0.8

> <PUBCHEM_CONFORMER_DIVERSEORDER>
1
211
223
108
183
64
123
219
122
144
125
17
188
134
152
149
191
28
51
201
185
145
120
202
114
156
78
44
161
178
124
190
218
171
163
148
102
135
215
49
109
180
9
132
88
196
115
105
118
43
87
117
126
140
41
8
200
160
214
154
65
209
205
11
170
71
212
56
216
198
106
69
111
168
48
15
166
92
173
203
21
189
131
155
72
192
119
129
164
146
2
165
220
169
14
186
42
187
153
130
222
151
26
93
3
175
199
141
95
167
104
158
121
46
136
52
24
142
147
159
207
85
62
63
150
110
86
10
137
22
97
45
101
54
7
172
195
47
33
81
208
16
35
61
25
80
103
177
181
221
193
96
127
194
76
89
107
79
143
57
68
100
94
53
184
12
213
174
70
99
77
112
157
204
55
98
37
133
162
29
217
34
128
31
6
113
73
40
18
210
182
27
23
74
59
84
139
176
32
67
138
206
36
38
20
90
66
197
116
60
91
224
19
179
30
13
75
39
4
50
58
83
82
5

> <PUBCHEM_MMFF94_PARTIAL_CHARGES>
35
1 -0.11
10 0.1
11 0.09
12 0.08
13 0.41
14 -0.15
15 -0.3
16 0.72
17 -0.15
18 0.14
19 0.11
2 -0.57
20 -0.15
21 -0.15
22 0.54
23 0.26
24 0.16
25 0.4
26 0.4
27 0.15
28 0.15
29 0.15
3 -0.6
30 0.15
31 0.15
32 0.15
36 0.15
37 0.37
38 0.37
4 -0.58
5 0.31
6 -0.62
7 -0.71
8 -0.62
9 -0.8

> <PUBCHEM_EFFECTIVE_ROTOR_COUNT>
5

> <PUBCHEM_PHARMACOPHORE_FEATURES>
10
1 1 hydrophobe
1 2 acceptor
1 3 donor
1 4 donor
1 7 acceptor
1 9 donor
4 4 6 8 16 cation
5 5 7 12 15 18 rings
6 10 11 14 17 20 21 rings
6 6 8 13 16 19 24 rings

> <PUBCHEM_HEAVY_ATOM_COUNT>
24

> <PUBCHEM_ATOM_DEF_STEREO_COUNT>
0

> <PUBCHEM_ATOM_UDEF_STEREO_COUNT>
0

> <PUBCHEM_BOND_DEF_STEREO_COUNT>
0

> <PUBCHEM_BOND_UDEF_STEREO_COUNT>
0

> <PUBCHEM_ISOTOPIC_ATOM_COUNT>
0

> <PUBCHEM_COMPONENT_COUNT>
1

> <PUBCHEM_CACTVS_TAUTO_COUNT>
38

> <PUBCHEM_CONFORMER_ID>
02F85A7100000001

> <PUBCHEM_MMFF94_ENERGY>
78.827

> <PUBCHEM_FEATURE_SELFOVERLAP>
50.746

> <PUBCHEM_SHAPE_FINGERPRINT>
10006869 2 18263910181037603931
10165383 225 18341342144798170328
10366900 7 17610630708960825439
10670039 82 17901954364026390980
10871710 139 17975703006208560678
1100329 8 17183625936244690711
11582403 64 16592764493852473311
12633257 1 18411695521989037416
12788726 201 17548718712201844679
13004483 165 17833532867129704038
13140716 1 18190466154001111127
1361 2 18264471937374667733
138480 1 17474660651309775174
14787075 74 18060418045457351283
14955137 171 17472143254708543859
151778 21 18410296869994346608
17974551 9 16374099054111172755
18219364 16 18337948974499946912
19930381 70 18267017254778626817
20681677 76 18046624499998059167
22182937 141 18271247230655481426
23227448 37 18413106190500297799
23559900 14 17688303487580879463
238 59 17904165214703250837
350125 39 18410854395414551042
469060 322 17242436446623469926
474 4 18272089344629470610
49207404 50 18189343376604103441
5081480 168 17343240523493918172
5252454 2 18411703197037384744
6287921 2 18264786392787591405
7808743 9 18263929998475026612
81228 2 17974282432922401946

> <PUBCHEM_SHAPE_MULTIPOLES>
459.11
8.05
5.38
1.35
6.4
3.51
-0.21
-5.37
-2.91
-1.21
1.23
-1.64
-1.07
0.52

> <PUBCHEM_SHAPE_SELFOVERLAP>
979.808

> <PUBCHEM_SHAPE_VOLUME>
259.8

> <PUBCHEM_COORDINATE_TYPE>
2
5
10

$$$$
