49830673
  -OEChem-10062121543D

 46 49  0     0  0  0  0  0  0999 V2000
    5.3302    3.0663    0.4508 F   0  0  0  0  0  0  0  0  0  0  0  0
    1.9988   -0.6623   -0.2977 O   0  0  0  0  0  0  0  0  0  0  0  0
    7.7530   -2.6513   -0.0576 O   0  0  0  0  0  0  0  0  0  0  0  0
    5.5800   -3.2650   -0.3184 O   0  0  0  0  0  0  0  0  0  0  0  0
   -7.1306   -0.8900    1.4133 N   0  0  0  0  0  0  0  0  0  0  0  0
   -6.2245   -0.7494    2.3951 N   0  0  0  0  0  0  0  0  0  0  0  0
    0.9029    1.4021   -0.1340 N   0  0  0  0  0  0  0  0  0  0  0  0
   -3.9213   -0.1322    2.3365 N   0  0  0  0  0  0  0  0  0  0  0  0
    3.2037    1.3116    0.0508 N   0  0  0  0  0  0  0  0  0  0  0  0
   -5.3082   -0.2983    0.3472 C   0  0  0  0  0  0  0  0  0  0  0  0
   -4.5170    0.0250   -0.7678 C   0  0  0  0  0  0  0  0  0  0  0  0
   -6.6444   -0.6336    0.1598 C   0  0  0  0  0  0  0  0  0  0  0  0
   -3.1272    0.3781   -0.6052 C   0  0  0  0  0  0  0  0  0  0  0  0
   -5.1168   -0.3896    1.7426 C   0  0  0  0  0  0  0  0  0  0  0  0
   -5.1073   -0.0025   -2.0375 C   0  0  0  0  0  0  0  0  0  0  0  0
   -7.2522   -0.6673   -1.0971 C   0  0  0  0  0  0  0  0  0  0  0  0
   -2.7646    1.7106   -0.4083 C   0  0  0  0  0  0  0  0  0  0  0  0
   -2.1465   -0.6130   -0.6449 C   0  0  0  0  0  0  0  0  0  0  0  0
   -6.4517   -0.3429   -2.1973 C   0  0  0  0  0  0  0  0  0  0  0  0
   -0.4407    1.0607   -0.2910 C   0  0  0  0  0  0  0  0  0  0  0  0
   -1.4214    2.0519   -0.2511 C   0  0  0  0  0  0  0  0  0  0  0  0
   -0.8033   -0.2718   -0.4878 C   0  0  0  0  0  0  0  0  0  0  0  0
    4.5407    0.8525    0.1077 C   0  0  0  0  0  0  0  0  0  0  0  0
    2.0373    0.5542   -0.1429 C   0  0  0  0  0  0  0  0  0  0  0  0
    4.8162   -0.5070   -0.0387 C   0  0  0  0  0  0  0  0  0  0  0  0
    6.1338   -0.9616    0.0168 C   0  0  0  0  0  0  0  0  0  0  0  0
    5.5828    1.7574    0.3094 C   0  0  0  0  0  0  0  0  0  0  0  0
    7.1759   -0.0566    0.2185 C   0  0  0  0  0  0  0  0  0  0  0  0
    6.9006    1.3029    0.3648 C   0  0  0  0  0  0  0  0  0  0  0  0
    6.4215   -2.3789   -0.1361 C   0  0  0  0  0  0  0  0  0  0  0  0
   -4.5217    0.2428   -2.9214 H   0  0  0  0  0  0  0  0  0  0  0  0
   -8.2965   -0.9320   -1.2191 H   0  0  0  0  0  0  0  0  0  0  0  0
   -3.5166    2.4954   -0.3740 H   0  0  0  0  0  0  0  0  0  0  0  0
   -2.4136   -1.6563   -0.7969 H   0  0  0  0  0  0  0  0  0  0  0  0
   -6.8854   -0.3566   -3.1941 H   0  0  0  0  0  0  0  0  0  0  0  0
   -8.0711   -1.1652    1.6671 H   0  0  0  0  0  0  0  0  0  0  0  0
   -1.1531    3.0942   -0.0981 H   0  0  0  0  0  0  0  0  0  0  0  0
   -0.1057   -1.0959   -0.5306 H   0  0  0  0  0  0  0  0  0  0  0  0
    1.0887    2.3923    0.0052 H   0  0  0  0  0  0  0  0  0  0  0  0
   -3.0784    0.1412    1.8475 H   0  0  0  0  0  0  0  0  0  0  0  0
   -3.8119   -0.2052    3.3436 H   0  0  0  0  0  0  0  0  0  0  0  0
    3.0851    2.3150    0.1659 H   0  0  0  0  0  0  0  0  0  0  0  0
    4.0514   -1.2529   -0.1972 H   0  0  0  0  0  0  0  0  0  0  0  0
    8.2158   -0.3670    0.2681 H   0  0  0  0  0  0  0  0  0  0  0  0
    7.7113    2.0083    0.5218 H   0  0  0  0  0  0  0  0  0  0  0  0
    7.9362   -3.6094   -0.1621 H   0  0  0  0  0  0  0  0  0  0  0  0
  1 27  1  0  0  0  0
  2 24  2  0  0  0  0
  3 30  1  0  0  0  0
  3 46  1  0  0  0  0
  4 30  2  0  0  0  0
  5  6  1  0  0  0  0
  5 12  1  0  0  0  0
  5 36  1  0  0  0  0
  6 14  2  0  0  0  0
  7 20  1  0  0  0  0
  7 24  1  0  0  0  0
  7 39  1  0  0  0  0
  8 14  1  0  0  0  0
  8 40  1  0  0  0  0
  8 41  1  0  0  0  0
  9 23  1  0  0  0  0
  9 24  1  0  0  0  0
  9 42  1  0  0  0  0
 10 11  2  0  0  0  0
 10 12  1  0  0  0  0
 10 14  1  0  0  0  0
 11 13  1  0  0  0  0
 11 15  1  0  0  0  0
 12 16  2  0  0  0  0
 13 17  2  0  0  0  0
 13 18  1  0  0  0  0
 15 19  2  0  0  0  0
 15 31  1  0  0  0  0
 16 19  1  0  0  0  0
 16 32  1  0  0  0  0
 17 21  1  0  0  0  0
 17 33  1  0  0  0  0
 18 22  2  0  0  0  0
 18 34  1  0  0  0  0
 19 35  1  0  0  0  0
 20 21  2  0  0  0  0
 20 22  1  0  0  0  0
 21 37  1  0  0  0  0
 22 38  1  0  0  0  0
 23 25  1  0  0  0  0
 23 27  2  0  0  0  0
 25 26  2  0  0  0  0
 25 43  1  0  0  0  0
 26 28  1  0  0  0  0
 26 30  1  0  0  0  0
 27 29  1  0  0  0  0
 28 29  2  0  0  0  0
 28 44  1  0  0  0  0
 29 45  1  0  0  0  0
M  END
> <PUBCHEM_COMPOUND_CID>
49830673

> <PUBCHEM_CONFORMER_RMSD>
0.8

> <PUBCHEM_CONFORMER_DIVERSEORDER>
1
30
12
28
7
36
33
13
39
32
11
16
27
31
40
43
37
14
19
21
35
3
38
17
6
23
9
8
10
41
2
42
34
4
24
26
5
29
20
22
25
15
18

> <PUBCHEM_MMFF94_PARTIAL_CHARGES>
43
1 -0.19
12 -0.15
14 0.37
15 -0.15
16 -0.15
17 -0.15
18 -0.15
19 -0.15
2 -0.57
20 0.12
21 -0.15
22 -0.15
23 0.12
24 0.69
25 -0.15
26 0.09
27 0.19
28 -0.15
29 -0.15
3 -0.65
30 0.63
31 0.15
32 0.15
33 0.15
34 0.15
35 0.15
36 0.27
37 0.15
38 0.15
39 0.37
4 -0.57
40 0.4
41 0.4
42 0.37
43 0.15
44 0.15
45 0.15
46 0.5
5 0.3
6 -0.71
7 -0.55
8 -0.88
9 -0.55

> <PUBCHEM_EFFECTIVE_ROTOR_COUNT>
6

> <PUBCHEM_PHARMACOPHORE_FEATURES>
13
1 2 acceptor
1 3 acceptor
1 4 acceptor
1 5 donor
1 7 donor
1 8 donor
1 9 donor
3 3 4 30 anion
3 6 8 14 cation
5 5 6 10 12 14 rings
6 10 11 12 15 16 19 rings
6 13 17 18 20 21 22 rings
6 23 25 26 27 28 29 rings

> <PUBCHEM_HEAVY_ATOM_COUNT>
30

> <PUBCHEM_ATOM_DEF_STEREO_COUNT>
0

> <PUBCHEM_ATOM_UDEF_STEREO_COUNT>
0

> <PUBCHEM_BOND_DEF_STEREO_COUNT>
0

> <PUBCHEM_BOND_UDEF_STEREO_COUNT>
0

> <PUBCHEM_ISOTOPIC_ATOM_COUNT>
0

> <PUBCHEM_COMPONENT_COUNT>
1

> <PUBCHEM_CACTVS_TAUTO_COUNT>
124

> <PUBCHEM_CONFORMER_ID>
02F85B1100000001

> <PUBCHEM_MMFF94_ENERGY>
92.4408

> <PUBCHEM_FEATURE_SELFOVERLAP>
66.169

> <PUBCHEM_SHAPE_FINGERPRINT>
10299344 5 17632295691969021260
11315181 36 17385443241781074541
11524674 6 17968375740831814243
13533116 47 18343861122291076176
13668630 136 17676207969978829228
13685833 64 18409449176783480254
13782708 43 18334575694664542814
14028597 1 17203335463861768810
14118638 360 18410292493897529488
14251764 18 17632858650359532772
14849402 71 17131264808828352744
14856354 85 16415477199207602445
150020 25 17822287972517379310
15064986 266 18334018254959516228
15119646 104 17989487407535046558
15183329 4 17847061103520638508
15328684 2 17060347275288792682
15352257 5 18260551138538504322
15419008 47 17749378282669956877
15419008 91 17313929935241131117
15510794 2 17967247611266758018
15716309 27 18202001032152364765
1577012 14 17489873751594445848
19377110 9 17489591142835812412
21130935 74 18272087244454155827
21267235 1 18411703158630495060
21315759 40 17775000210715815941
21623969 137 18335425672523392154
2303208 19 17967534571016750480
23081809 10 17561081431739266924
23522609 53 17631189634637961841
23559900 14 17022896909099480341
23569943 247 18272081643917438047
23576562 1 14057588798187036150
249057 3 15936405663764769599
25269216 80 15140977153172367963
3383291 50 18259705605253745867
34797466 226 17168148970591556620
3663271 9 17346597491196330474
397830 11 17387414755532874492
4408954 64 13396952554678252230
44880568 143 17095240311023997421
50009960 94 17680976406772267306
504579 68 12901551230614118138
5104073 3 18272088245756445472
5265222 85 16298678290606769859
58083652 198 18202275927139516633
6176135 31 17418091006111244726
9962374 69 18341036489867798086
999808 66 18260272949469802595

> <PUBCHEM_SHAPE_MULTIPOLES>
567.6
25.8
2.24
1.52
13.64
0.45
-0.48
10.21
-1.64
6.19
0.04
-4.78
0.32
1.29

> <PUBCHEM_SHAPE_SELFOVERLAP>
1268.12

> <PUBCHEM_SHAPE_VOLUME>
301.5

> <PUBCHEM_COORDINATE_TYPE>
2
5
10

$$$$
