10406267
  -OEChem-10052120443D

 42 45  0     0  0  0  0  0  0999 V2000
    2.1774    4.1837   -0.7668 O   0  0  0  0  0  0  0  0  0  0  0  0
   -2.1787    4.1820    0.7678 O   0  0  0  0  0  0  0  0  0  0  0  0
    6.6934   -2.3586    0.4339 O   0  0  0  0  0  0  0  0  0  0  0  0
   -6.6932   -2.3591   -0.4326 O   0  0  0  0  0  0  0  0  0  0  0  0
    1.3406   -1.1531   -0.4714 N   0  0  0  0  0  0  0  0  0  0  0  0
   -1.3399   -1.1536    0.4704 N   0  0  0  0  0  0  0  0  0  0  0  0
   -0.0007    4.5881    0.0007 N   0  0  0  0  0  0  0  0  0  0  0  0
    0.6546    2.4373   -0.2306 C   0  0  0  0  0  0  0  0  0  0  0  0
   -0.6552    2.4369    0.2298 C   0  0  0  0  0  0  0  0  0  0  0  0
    0.6655    0.0685   -0.2344 C   0  0  0  0  0  0  0  0  0  0  0  0
   -0.6650    0.0681    0.2330 C   0  0  0  0  0  0  0  0  0  0  0  0
    1.3438    1.2673   -0.4728 C   0  0  0  0  0  0  0  0  0  0  0  0
   -1.3439    1.2665    0.4717 C   0  0  0  0  0  0  0  0  0  0  0  0
    1.0806    3.8285   -0.3798 C   0  0  0  0  0  0  0  0  0  0  0  0
   -1.0816    3.8279    0.3803 C   0  0  0  0  0  0  0  0  0  0  0  0
    2.6724   -1.4530   -0.2467 C   0  0  0  0  0  0  0  0  0  0  0  0
   -2.6718   -1.4535    0.2462 C   0  0  0  0  0  0  0  0  0  0  0  0
    3.3076   -2.4980   -0.9454 C   0  0  0  0  0  0  0  0  0  0  0  0
   -3.3069   -2.4984    0.9452 C   0  0  0  0  0  0  0  0  0  0  0  0
    3.4311   -0.7225    0.6885 C   0  0  0  0  0  0  0  0  0  0  0  0
   -3.4310   -0.7230   -0.6886 C   0  0  0  0  0  0  0  0  0  0  0  0
    4.6500   -2.8008   -0.7178 C   0  0  0  0  0  0  0  0  0  0  0  0
   -4.6493   -2.8012    0.7182 C   0  0  0  0  0  0  0  0  0  0  0  0
    4.7736   -1.0251    0.9160 C   0  0  0  0  0  0  0  0  0  0  0  0
   -4.7736   -1.0257   -0.9156 C   0  0  0  0  0  0  0  0  0  0  0  0
    5.3831   -2.0644    0.2128 C   0  0  0  0  0  0  0  0  0  0  0  0
   -5.3829   -2.0648   -0.2121 C   0  0  0  0  0  0  0  0  0  0  0  0
    2.3549    1.3030   -0.8625 H   0  0  0  0  0  0  0  0  0  0  0  0
   -2.3549    1.3018    0.8617 H   0  0  0  0  0  0  0  0  0  0  0  0
    0.7555   -1.9129   -0.8005 H   0  0  0  0  0  0  0  0  0  0  0  0
   -0.7546   -1.9134    0.7993 H   0  0  0  0  0  0  0  0  0  0  0  0
   -0.0008    5.6020    0.0012 H   0  0  0  0  0  0  0  0  0  0  0  0
    2.7504   -3.0817   -1.6751 H   0  0  0  0  0  0  0  0  0  0  0  0
   -2.7494   -3.0821    1.6746 H   0  0  0  0  0  0  0  0  0  0  0  0
    2.9880    0.0693    1.2868 H   0  0  0  0  0  0  0  0  0  0  0  0
   -2.9882    0.0688   -1.2872 H   0  0  0  0  0  0  0  0  0  0  0  0
    5.1132   -3.6125   -1.2723 H   0  0  0  0  0  0  0  0  0  0  0  0
   -5.1124   -3.6128    1.2729 H   0  0  0  0  0  0  0  0  0  0  0  0
    5.3377   -0.4535    1.6481 H   0  0  0  0  0  0  0  0  0  0  0  0
   -5.3379   -0.4541   -1.6474 H   0  0  0  0  0  0  0  0  0  0  0  0
    6.9497   -3.1032   -0.1371 H   0  0  0  0  0  0  0  0  0  0  0  0
   -6.9493   -3.1036    0.1386 H   0  0  0  0  0  0  0  0  0  0  0  0
  1 14  2  0  0  0  0
  2 15  2  0  0  0  0
  3 26  1  0  0  0  0
  3 41  1  0  0  0  0
  4 27  1  0  0  0  0
  4 42  1  0  0  0  0
  5 10  1  0  0  0  0
  5 16  1  0  0  0  0
  5 30  1  0  0  0  0
  6 11  1  0  0  0  0
  6 17  1  0  0  0  0
  6 31  1  0  0  0  0
  7 14  1  0  0  0  0
  7 15  1  0  0  0  0
  7 32  1  0  0  0  0
  8  9  1  0  0  0  0
  8 12  2  0  0  0  0
  8 14  1  0  0  0  0
  9 13  2  0  0  0  0
  9 15  1  0  0  0  0
 10 11  2  0  0  0  0
 10 12  1  0  0  0  0
 11 13  1  0  0  0  0
 12 28  1  0  0  0  0
 13 29  1  0  0  0  0
 16 18  2  0  0  0  0
 16 20  1  0  0  0  0
 17 19  2  0  0  0  0
 17 21  1  0  0  0  0
 18 22  1  0  0  0  0
 18 33  1  0  0  0  0
 19 23  1  0  0  0  0
 19 34  1  0  0  0  0
 20 24  2  0  0  0  0
 20 35  1  0  0  0  0
 21 25  2  0  0  0  0
 21 36  1  0  0  0  0
 22 26  2  0  0  0  0
 22 37  1  0  0  0  0
 23 27  2  0  0  0  0
 23 38  1  0  0  0  0
 24 26  1  0  0  0  0
 24 39  1  0  0  0  0
 25 27  1  0  0  0  0
 25 40  1  0  0  0  0
M  END
> <PUBCHEM_COMPOUND_CID>
10406267

> <PUBCHEM_CONFORMER_RMSD>
0.8

> <PUBCHEM_CONFORMER_DIVERSEORDER>
1
15
10
16
12
14
2
7
8
6
3
9
11
5
13
4

> <PUBCHEM_MMFF94_PARTIAL_CHARGES>
42
1 -0.57
10 0.1
11 0.1
12 -0.15
13 -0.15
14 0.54
15 0.54
16 0.1
17 0.1
18 -0.15
19 -0.15
2 -0.57
20 -0.15
21 -0.15
22 -0.15
23 -0.15
24 -0.15
25 -0.15
26 0.08
27 0.08
28 0.15
29 0.15
3 -0.53
30 0.4
31 0.4
32 0.37
33 0.15
34 0.15
35 0.15
36 0.15
37 0.15
38 0.15
39 0.15
4 -0.53
40 0.15
41 0.45
42 0.45
5 -0.6
6 -0.6
7 -0.49
8 0.09
9 0.09

> <PUBCHEM_EFFECTIVE_ROTOR_COUNT>
4.2

> <PUBCHEM_PHARMACOPHORE_FEATURES>
13
1 1 acceptor
1 2 acceptor
1 3 donor
1 4 donor
1 5 cation
1 5 donor
1 6 cation
1 6 donor
1 7 donor
5 7 8 9 14 15 rings
6 16 18 20 22 24 26 rings
6 17 19 21 23 25 27 rings
6 8 9 10 11 12 13 rings

> <PUBCHEM_HEAVY_ATOM_COUNT>
27

> <PUBCHEM_ATOM_DEF_STEREO_COUNT>
0

> <PUBCHEM_ATOM_UDEF_STEREO_COUNT>
0

> <PUBCHEM_BOND_DEF_STEREO_COUNT>
0

> <PUBCHEM_BOND_UDEF_STEREO_COUNT>
0

> <PUBCHEM_ISOTOPIC_ATOM_COUNT>
0

> <PUBCHEM_COMPONENT_COUNT>
1

> <PUBCHEM_CACTVS_TAUTO_COUNT>
105

> <PUBCHEM_CONFORMER_ID>
009EC97B00000001

> <PUBCHEM_MMFF94_ENERGY>
110.5863

> <PUBCHEM_FEATURE_SELFOVERLAP>
66.072

> <PUBCHEM_SHAPE_FINGERPRINT>
10319926 262 17979619158302443570
10411042 1 18410575084668795399
1100329 8 18337957779837382329
11101153 10 18409454687696201548
11265709 11 18410294704956042691
11488393 25 18118410776314189809
12107183 9 18342189839110797555
12342043 65 17533797150383055227
12516196 113 18410289228978709442
12553582 1 18266765560820290446
12623949 98 17561094566288063230
12730499 353 17760656158941801283
12788726 201 18334870393977926730
13004483 165 18340759390761219762
13140716 1 18412831265465232409
13757389 114 17835542435241397516
13782708 43 17895758542926333387
138480 1 14879190696871400645
13955234 65 17979924035874662363
140371 6 18410582776981765263
14068700 686 18271241600523692174
14508225 48 18410567358091007141
14840074 17 17917990620267199182
14866123 147 18050851022621598155
15042514 8 18194690271580140273
15927050 60 17547857812315092622
16087824 20 18122343476980347341
16992727 255 17898843553214765397
16992752 21 18410866447593801158
1813 80 18130239210678878967
18365409 1 18123747548817772877
1979834 28 18126553747003539784
20642791 13 18339923693246688414
21049683 271 18116161154001386156
21120745 212 18268728146653790036
21304303 172 18340770342969645897
2132832 1 18187093823633256276
21478907 32 18411139117217492097
21703447 108 18339630154319137386
21796203 349 17976294453191701618
23536364 44 18263066739965297231
23559900 14 18265046015461791011
255183 313 17838072411459772793
283562 15 18263362499560668090
3004659 81 17967812760560517630
3103668 31 18117555138021520469
3298306 158 17759247683739485732
3421961 26 18339642372783117075
4015057 19 18266169729446778423
437815 12 18408878543213155871
5309563 4 18411699889385721662
5385378 56 18050574242091764209
57527452 28 16199280163492639573
5969126 39 18342166727201025318
59755656 520 17760648062543138244
6004065 56 18338791350910617947
613672 6 18410851062087893359
6669772 16 17765167450655548852
6700243 42 17771659805029796166
7399639 24 18200574953192886850
77188 2 18410855490230401876
9658208 31 17694795016905219844
9981440 41 17110728865263442864

> <PUBCHEM_SHAPE_MULTIPOLES>
517.23
12.04
6.14
0.91
0
8.95
0
-18.8
0
0
0
0
-0.23
-0.23

> <PUBCHEM_SHAPE_SELFOVERLAP>
1158.103

> <PUBCHEM_SHAPE_VOLUME>
274.1

> <PUBCHEM_COORDINATE_TYPE>
2
5
10

$$$$
