137629708
  -OEChem-10062122003D

 27 29  0     0  0  0  0  0  0999 V2000
    2.2136   -1.2017    0.4732 S   0  0  0  0  0  0  0  0  0  0  0  0
    3.9118    1.9444   -0.8986 O   0  0  0  0  0  0  0  0  0  0  0  0
   -4.1615   -0.1152    1.0167 N   0  0  0  0  0  0  0  0  0  0  0  0
    4.4760   -0.2036   -0.2033 N   0  0  0  0  0  0  0  0  0  0  0  0
    4.6044   -2.4187    0.5788 N   0  0  0  0  0  0  0  0  0  0  0  0
   -0.2241    0.8702    0.0678 C   0  0  0  0  0  0  0  0  0  0  0  0
   -2.3668   -0.0606   -0.5907 C   0  0  0  0  0  0  0  0  0  0  0  0
   -1.0373    0.2780   -0.8942 C   0  0  0  0  0  0  0  0  0  0  0  0
   -2.8922    0.1965    0.6930 C   0  0  0  0  0  0  0  0  0  0  0  0
    1.1514    1.2180   -0.2504 C   0  0  0  0  0  0  0  0  0  0  0  0
   -0.7350    1.1265    1.3342 C   0  0  0  0  0  0  0  0  0  0  0  0
   -2.0569    0.7898    1.6356 C   0  0  0  0  0  0  0  0  0  0  0  0
    2.2307    0.4201   -0.1136 C   0  0  0  0  0  0  0  0  0  0  0  0
   -3.2072   -0.6578   -1.5400 C   0  0  0  0  0  0  0  0  0  0  0  0
    3.6119    0.8440   -0.4601 C   0  0  0  0  0  0  0  0  0  0  0  0
   -4.5155   -0.9801   -1.2093 C   0  0  0  0  0  0  0  0  0  0  0  0
    3.9366   -1.3592    0.2894 C   0  0  0  0  0  0  0  0  0  0  0  0
   -4.9397   -0.6905    0.0716 C   0  0  0  0  0  0  0  0  0  0  0  0
   -0.6419    0.0756   -1.8887 H   0  0  0  0  0  0  0  0  0  0  0  0
    1.2788    2.2291   -0.6315 H   0  0  0  0  0  0  0  0  0  0  0  0
   -0.1197    1.5886    2.1025 H   0  0  0  0  0  0  0  0  0  0  0  0
   -2.4333    1.0007    2.6349 H   0  0  0  0  0  0  0  0  0  0  0  0
   -2.8466   -0.8752   -2.5428 H   0  0  0  0  0  0  0  0  0  0  0  0
    5.4721   -0.1146   -0.3748 H   0  0  0  0  0  0  0  0  0  0  0  0
   -5.1788   -1.4423   -1.9309 H   0  0  0  0  0  0  0  0  0  0  0  0
   -5.9522   -0.9199    0.3871 H   0  0  0  0  0  0  0  0  0  0  0  0
    5.5973   -2.2542    0.3807 H   0  0  0  0  0  0  0  0  0  0  0  0
  1 13  1  0  0  0  0
  1 17  1  0  0  0  0
  2 15  2  0  0  0  0
  3  9  1  0  0  0  0
  3 18  2  0  0  0  0
  4 15  1  0  0  0  0
  4 17  1  0  0  0  0
  4 24  1  0  0  0  0
  5 17  2  0  0  0  0
  5 27  1  0  0  0  0
  6  8  2  0  0  0  0
  6 10  1  0  0  0  0
  6 11  1  0  0  0  0
  7  8  1  0  0  0  0
  7  9  2  0  0  0  0
  7 14  1  0  0  0  0
  8 19  1  0  0  0  0
  9 12  1  0  0  0  0
 10 13  2  0  0  0  0
 10 20  1  0  0  0  0
 11 12  2  0  0  0  0
 11 21  1  0  0  0  0
 12 22  1  0  0  0  0
 13 15  1  0  0  0  0
 14 16  2  0  0  0  0
 14 23  1  0  0  0  0
 16 18  1  0  0  0  0
 16 25  1  0  0  0  0
 18 26  1  0  0  0  0
M  END
> <PUBCHEM_COMPOUND_CID>
137629708

> <PUBCHEM_CONFORMER_RMSD>
0.6

> <PUBCHEM_CONFORMER_DIVERSEORDER>
1
5
4
6
3
2

> <PUBCHEM_MMFF94_PARTIAL_CHARGES>
26
1 -0.24
10 -0.18
11 -0.15
12 -0.15
13 0.12
14 -0.15
15 0.62
16 -0.15
17 0.65
18 0.16
19 0.15
2 -0.57
20 0.15
21 0.15
22 0.15
23 0.15
24 0.37
25 0.15
26 0.15
27 0.4
3 -0.62
4 -0.49
5 -0.85
6 0.03
8 -0.15
9 0.31

> <PUBCHEM_EFFECTIVE_ROTOR_COUNT>
1.4

> <PUBCHEM_PHARMACOPHORE_FEATURES>
7
1 2 acceptor
1 3 acceptor
1 4 donor
1 5 donor
5 1 4 13 15 17 rings
6 3 7 9 14 16 18 rings
6 6 7 8 9 11 12 rings

> <PUBCHEM_HEAVY_ATOM_COUNT>
18

> <PUBCHEM_ATOM_DEF_STEREO_COUNT>
0

> <PUBCHEM_ATOM_UDEF_STEREO_COUNT>
0

> <PUBCHEM_BOND_DEF_STEREO_COUNT>
1

> <PUBCHEM_BOND_UDEF_STEREO_COUNT>
0

> <PUBCHEM_ISOTOPIC_ATOM_COUNT>
0

> <PUBCHEM_COMPONENT_COUNT>
1

> <PUBCHEM_CACTVS_TAUTO_COUNT>
-1

> <PUBCHEM_CONFORMER_ID>
0834100C00000001

> <PUBCHEM_MMFF94_ENERGY>
46.5399

> <PUBCHEM_FEATURE_SELFOVERLAP>
35.593

> <PUBCHEM_SHAPE_FINGERPRINT>
10062212 137 17917710219243022759
11046707 91 17561082536120699357
11132069 177 15482670186865478397
11578080 2 18057579058499756232
12236239 1 18202006529663089252
12553582 1 17489586787897321037
12633257 1 14979654607942696302
12788726 201 17846513516654841785
13167823 11 18342741810051604343
13533116 47 18411701001781582419
13631057 29 17836364118034659046
13675066 3 13973967609956912921
13760787 5 18410855473239923717
14178342 30 17273987830646821384
1420 369 18272649009260302238
14386348 63 17095246929647175112
15375358 24 16732982067462792204
15375462 189 18201719569622621696
15653759 3 15339121238334415234
17804303 29 16415482687964627777
17870717 6 16153714184965068731
17977361 122 17988918968660990991
1813 80 18341060648172569676
18186145 218 16588022385711044957
18222031 100 16630520778347341637
19422 9 18272374148464187800
19784866 240 18338234869235382166
200 152 18408602547944444200
20279233 1 16877664578006134256
20281475 54 18342170098523200383
20645477 70 18040152916322584330
20871999 31 15140684648413549183
21065201 7 16415213251359371564
2255824 54 18200313367719346936
22646028 1 18272931626333835940
22646028 28 18343582927946738582
2297311 6 16056336010364980692
23175994 123 17530970193996567837
23366157 5 17557408075456150225
23402539 116 16272207492776839629
23557571 272 16081375180089934228
23559900 14 15647051556459048792
23596394 208 17240759554184370626
2871803 45 17749105561088983570
312423 11 18337685122101092988
33382 64 18263368147959497091
34797466 226 16009041604386063575
351380 3 18273497870801791958
474 4 18053943137256448960
4990 188 16805598183406058933
5104073 3 16844728793760465475
5281201 14 17458062655615425820
5374978 207 17060335245026789024
573450 72 17846501409173532913
602551 16 16487248902646800422
77492 1 18201445770048101872
90316 7 17632583716992911641

> <PUBCHEM_SHAPE_MULTIPOLES>
353.47
10.54
1.64
1.31
1.42
0.33
-0.06
4.36
0.6
1.75
-0.16
-0.76
-0.11
-1.88

> <PUBCHEM_SHAPE_SELFOVERLAP>
772.217

> <PUBCHEM_SHAPE_VOLUME>
193.2

> <PUBCHEM_COORDINATE_TYPE>
2
5
10

$$$$
