52947964
  -OEChem-10052115163D

 35 37  0     0  0  0  0  0  0999 V2000
   -6.4730    0.2109    0.0722 S   0  0  0  0  0  0  0  0  0  0  0  0
    1.7082   -0.6469    0.0022 O   0  0  0  0  0  0  0  0  0  0  0  0
   -7.1497   -0.9495    0.6343 O   0  0  0  0  0  0  0  0  0  0  0  0
   -6.6938    1.5281    0.6526 O   0  0  0  0  0  0  0  0  0  0  0  0
    8.0767   -0.5067   -0.0248 O   0  0  0  0  0  0  0  0  0  0  0  0
   -0.6261   -0.8676    0.0182 N   0  0  0  0  0  0  0  0  0  0  0  0
    0.5444    1.2920    0.0291 N   0  0  0  0  0  0  0  0  0  0  0  0
    5.9085   -1.3035   -0.0193 N   0  0  0  0  0  0  0  0  0  0  0  0
   -6.8064    0.2864   -1.6018 N   0  0  0  0  0  0  0  0  0  0  0  0
   -4.7562   -0.1064    0.0560 C   0  0  0  0  0  0  0  0  0  0  0  0
   -2.0130   -0.6128    0.0305 C   0  0  0  0  0  0  0  0  0  0  0  0
   -4.2898   -1.4209    0.0396 C   0  0  0  0  0  0  0  0  0  0  0  0
   -3.8510    0.9549    0.0597 C   0  0  0  0  0  0  0  0  0  0  0  0
   -2.9182   -1.6741    0.0270 C   0  0  0  0  0  0  0  0  0  0  0  0
   -2.4795    0.7016    0.0470 C   0  0  0  0  0  0  0  0  0  0  0  0
    2.6003    0.3825    0.0042 C   0  0  0  0  0  0  0  0  0  0  0  0
    4.0631    0.1865   -0.0098 C   0  0  0  0  0  0  0  0  0  0  0  0
    0.4997   -0.0210    0.0176 C   0  0  0  0  0  0  0  0  0  0  0  0
    1.8899    1.5570    0.0205 C   0  0  0  0  0  0  0  0  0  0  0  0
    4.5556   -1.0652   -0.0135 C   0  0  0  0  0  0  0  0  0  0  0  0
    5.0103    1.2904   -0.0081 C   0  0  0  0  0  0  0  0  0  0  0  0
    6.3345    1.0879   -0.0134 C   0  0  0  0  0  0  0  0  0  0  0  0
    6.8655   -0.3036   -0.0198 C   0  0  0  0  0  0  0  0  0  0  0  0
   -4.9767   -2.2625    0.0300 H   0  0  0  0  0  0  0  0  0  0  0  0
   -4.1927    1.9862    0.0658 H   0  0  0  0  0  0  0  0  0  0  0  0
   -2.5690   -2.7034    0.0130 H   0  0  0  0  0  0  0  0  0  0  0  0
   -1.8177    1.5594    0.0491 H   0  0  0  0  0  0  0  0  0  0  0  0
   -0.4151   -1.8635    0.0071 H   0  0  0  0  0  0  0  0  0  0  0  0
    2.2549    2.5737    0.0267 H   0  0  0  0  0  0  0  0  0  0  0  0
    3.9402   -1.9573   -0.0118 H   0  0  0  0  0  0  0  0  0  0  0  0
    4.6337    2.3077   -0.0030 H   0  0  0  0  0  0  0  0  0  0  0  0
    6.2135   -2.2725   -0.0226 H   0  0  0  0  0  0  0  0  0  0  0  0
    7.0405    1.9096   -0.0126 H   0  0  0  0  0  0  0  0  0  0  0  0
   -7.0270    1.2060   -2.0031 H   0  0  0  0  0  0  0  0  0  0  0  0
   -7.3400   -0.4871   -2.0171 H   0  0  0  0  0  0  0  0  0  0  0  0
  1  3  2  0  0  0  0
  1  4  2  0  0  0  0
  1  9  1  0  0  0  0
  1 10  1  0  0  0  0
  2 16  1  0  0  0  0
  2 18  1  0  0  0  0
  5 23  2  0  0  0  0
  6 11  1  0  0  0  0
  6 18  1  0  0  0  0
  6 28  1  0  0  0  0
  7 18  2  0  0  0  0
  7 19  1  0  0  0  0
  8 20  1  0  0  0  0
  8 23  1  0  0  0  0
  8 32  1  0  0  0  0
  9 34  1  0  0  0  0
  9 35  1  0  0  0  0
 10 12  2  0  0  0  0
 10 13  1  0  0  0  0
 11 14  2  0  0  0  0
 11 15  1  0  0  0  0
 12 14  1  0  0  0  0
 12 24  1  0  0  0  0
 13 15  2  0  0  0  0
 13 25  1  0  0  0  0
 14 26  1  0  0  0  0
 15 27  1  0  0  0  0
 16 17  1  0  0  0  0
 16 19  2  0  0  0  0
 17 20  2  0  0  0  0
 17 21  1  0  0  0  0
 19 29  1  0  0  0  0
 20 30  1  0  0  0  0
 21 22  2  0  0  0  0
 21 31  1  0  0  0  0
 22 23  1  0  0  0  0
 22 33  1  0  0  0  0
M  END
> <PUBCHEM_COMPOUND_CID>
52947964

> <PUBCHEM_CONFORMER_RMSD>
0.8

> <PUBCHEM_CONFORMER_DIVERSEORDER>
1
33
48
27
36
6
2
18
51
22
38
39
45
14
17
43
41
3
8
29
12
4
11
7
13
50
15
16
24
10
25
5
9
35
49
19
28
37
32
42
47
30
46
34
21
20
44
31
26
40
23

> <PUBCHEM_MMFF94_PARTIAL_CHARGES>
35
1 1.45
10 -0.01
11 0.1
12 -0.15
13 -0.15
14 -0.15
15 -0.15
16 0.09
17 0.05
18 0.56
19 0.08
2 -0.28
20 -0.04
21 -0.15
22 -0.14
23 0.62
24 0.15
25 0.15
26 0.15
27 0.15
28 0.4
29 0.15
3 -0.65
30 0.15
31 0.15
32 0.37
33 0.15
34 0.42
35 0.42
4 -0.65
5 -0.57
6 -0.58
7 -0.57
8 -0.54
9 -0.98

> <PUBCHEM_EFFECTIVE_ROTOR_COUNT>
4

> <PUBCHEM_PHARMACOPHORE_FEATURES>
10
1 3 acceptor
1 4 acceptor
1 5 acceptor
1 6 donor
1 8 donor
1 9 donor
3 6 7 18 cation
5 2 7 16 18 19 rings
6 10 11 12 13 14 15 rings
6 8 17 20 21 22 23 rings

> <PUBCHEM_HEAVY_ATOM_COUNT>
23

> <PUBCHEM_ATOM_DEF_STEREO_COUNT>
0

> <PUBCHEM_ATOM_UDEF_STEREO_COUNT>
0

> <PUBCHEM_BOND_DEF_STEREO_COUNT>
0

> <PUBCHEM_BOND_UDEF_STEREO_COUNT>
0

> <PUBCHEM_ISOTOPIC_ATOM_COUNT>
0

> <PUBCHEM_COMPONENT_COUNT>
1

> <PUBCHEM_CACTVS_TAUTO_COUNT>
4

> <PUBCHEM_CONFORMER_ID>
0327EBFC00000001

> <PUBCHEM_MMFF94_ENERGY>
43.1809

> <PUBCHEM_FEATURE_SELFOVERLAP>
50.764

> <PUBCHEM_SHAPE_FINGERPRINT>
100830 39 18338235964700488537
10299344 5 18333453144832190866
10835480 77 18339076116042955720
11089746 13 17561080324022709553
11315181 36 17989210369174773337
11524674 6 16917067784858973319
11719270 70 17917712379696495294
12091667 2 16370444458719248865
12166972 35 18201438107795272097
12236239 1 18411420630685176763
12516196 113 17988923375381618384
13533116 47 14117531891536872524
13685833 64 18408044017670567570
13885169 127 18411419483971386009
14123256 10 9511461121694204402
14170010 4 18410854391177638568
14251764 18 18343021094779688308
14251764 46 15482673485431834836
14933364 13 18408887338757304512
15183329 4 18408036299503599347
15461852 350 16988840609648320221
15849732 13 17967813859960810943
18006028 8 17917710201709933624
19489759 90 16415765219556086347
20281389 69 18407759239743102665
21095086 128 14417851444942965736
21236236 1 18342458093403308281
21267235 1 18335425690235692977
21315763 28 18411982472521406305
21792934 111 18272359872679140440
220451 1 15719387361029465610
22224240 67 16200428074985404590
23035841 295 18335420166570179232
23402539 116 17989202660051524077
23536379 177 18410856559966876418
23559900 14 18269549597608540665
28498 318 18410292489385849366
29717793 49 18131355206939314788
3004659 81 18333168371700320664
335352 9 18410855473566990973
34797466 226 16916794011185923776
3545911 37 18410855469002978531
4073 2 18041565857615953826
4325135 7 18260269655604420204
4463277 17 18409449197926124216
559249 180 18272930561657356655
59755656 215 18334293141266276183
59755656 520 17167860894123622115
8209 1 18410575084668353676

> <PUBCHEM_SHAPE_MULTIPOLES>
433.78
22.6
1.5
0.71
4.02
0
-0.13
-0.43
-0.45
-0.12
0.08
-0.83
0.05
0.05

> <PUBCHEM_SHAPE_SELFOVERLAP>
932.14

> <PUBCHEM_SHAPE_VOLUME>
239.1

> <PUBCHEM_COORDINATE_TYPE>
2
5
10

$$$$
