44317982
  -OEChem-10052120443D

 51 54  0     1  0  0  0  0  0999 V2000
    5.1063    0.3609    0.5943 O   0  0  0  0  0  0  0  0  0  0  0  0
    1.4827   -1.3372   -0.5957 O   0  0  0  0  0  0  0  0  0  0  0  0
    1.5279    1.2611    0.5796 O   0  0  0  0  0  0  0  0  0  0  0  0
    3.9086   -2.2859    0.3829 O   0  0  0  0  0  0  0  0  0  0  0  0
    3.9963    1.9530    1.8925 O   0  0  0  0  0  0  0  0  0  0  0  0
    0.3241   -0.0753   -2.1682 O   0  0  0  0  0  0  0  0  0  0  0  0
    0.3108    0.0397    2.1398 O   0  0  0  0  0  0  0  0  0  0  0  0
   -3.8408   -0.6994    1.2241 O   0  0  0  0  0  0  0  0  0  0  0  0
   -3.8040    0.8179   -1.2804 O   0  0  0  0  0  0  0  0  0  0  0  0
   -4.0046   -3.4101    1.1615 O   0  0  0  0  0  0  0  0  0  0  0  0
   -2.0272   -4.9113   -0.0523 O   0  0  0  0  0  0  0  0  0  0  0  0
   -3.8685    3.5328   -1.2182 O   0  0  0  0  0  0  0  0  0  0  0  0
   -1.8457    4.9602    0.0099 O   0  0  0  0  0  0  0  0  0  0  0  0
    2.6502   -0.4899   -0.6345 C   0  0  2  0  0  0  0  0  0  0  0  0
    3.9114   -1.3490   -0.6988 C   0  0  1  0  0  0  0  0  0  0  0  0
    2.6646    0.3731    0.6364 C   0  0  1  0  0  0  0  0  0  0  0  0
    5.1754   -0.4900   -0.5597 C   0  0  1  0  0  0  0  0  0  0  0  0
    3.9515    1.1978    0.6803 C   0  0  2  0  0  0  0  0  0  0  0  0
    5.4976    0.3196   -1.8133 C   0  0  0  0  0  0  0  0  0  0  0  0
    0.3902   -0.9107   -1.2840 C   0  0  0  0  0  0  0  0  0  0  0  0
    0.4144    0.8735    1.2576 C   0  0  0  0  0  0  0  0  0  0  0  0
   -0.7853   -1.5217   -0.6434 C   0  0  0  0  0  0  0  0  0  0  0  0
   -0.7333    1.5271    0.6084 C   0  0  0  0  0  0  0  0  0  0  0  0
   -1.7811   -0.7208   -0.0391 C   0  0  0  0  0  0  0  0  0  0  0  0
   -1.7537    0.7634   -0.0031 C   0  0  0  0  0  0  0  0  0  0  0  0
   -0.8696   -2.9211   -0.6477 C   0  0  0  0  0  0  0  0  0  0  0  0
   -2.8625   -1.3945    0.5626 C   0  0  0  0  0  0  0  0  0  0  0  0
   -2.8054    1.4765   -0.6121 C   0  0  0  0  0  0  0  0  0  0  0  0
   -0.7663    2.9287    0.6126 C   0  0  0  0  0  0  0  0  0  0  0  0
   -1.9538   -3.5513   -0.0449 C   0  0  0  0  0  0  0  0  0  0  0  0
   -2.9482   -2.7899    0.5606 C   0  0  0  0  0  0  0  0  0  0  0  0
   -2.8398    2.8742   -0.6103 C   0  0  0  0  0  0  0  0  0  0  0  0
   -1.8222    3.5984    0.0024 C   0  0  0  0  0  0  0  0  0  0  0  0
    2.6064    0.1558   -1.5203 H   0  0  0  0  0  0  0  0  0  0  0  0
    3.9216   -1.9362   -1.6238 H   0  0  0  0  0  0  0  0  0  0  0  0
    2.6035   -0.2571    1.5330 H   0  0  0  0  0  0  0  0  0  0  0  0
    6.0299   -1.1520   -0.3733 H   0  0  0  0  0  0  0  0  0  0  0  0
    3.9595    1.9291   -0.1364 H   0  0  0  0  0  0  0  0  0  0  0  0
    4.6979    1.0170   -2.0776 H   0  0  0  0  0  0  0  0  0  0  0  0
    5.6690   -0.3406   -2.6693 H   0  0  0  0  0  0  0  0  0  0  0  0
    6.3980    0.9223   -1.6526 H   0  0  0  0  0  0  0  0  0  0  0  0
    4.6902   -2.8553    0.2802 H   0  0  0  0  0  0  0  0  0  0  0  0
    4.5577    2.7289    1.7253 H   0  0  0  0  0  0  0  0  0  0  0  0
   -0.0914   -3.5136   -1.1236 H   0  0  0  0  0  0  0  0  0  0  0  0
    0.0296    3.4922    1.0943 H   0  0  0  0  0  0  0  0  0  0  0  0
   -3.5102    0.1710    1.4976 H   0  0  0  0  0  0  0  0  0  0  0  0
   -3.5037   -0.0641   -1.5519 H   0  0  0  0  0  0  0  0  0  0  0  0
   -3.8936   -4.3717    1.0626 H   0  0  0  0  0  0  0  0  0  0  0  0
   -1.2503   -5.2690   -0.5154 H   0  0  0  0  0  0  0  0  0  0  0  0
   -3.7230    4.4897   -1.1183 H   0  0  0  0  0  0  0  0  0  0  0  0
   -1.0594    5.2890    0.4785 H   0  0  0  0  0  0  0  0  0  0  0  0
  1 17  1  0  0  0  0
  1 18  1  0  0  0  0
  2 14  1  0  0  0  0
  2 20  1  0  0  0  0
  3 16  1  0  0  0  0
  3 21  1  0  0  0  0
  4 15  1  0  0  0  0
  4 42  1  0  0  0  0
  5 18  1  0  0  0  0
  5 43  1  0  0  0  0
  6 20  2  0  0  0  0
  7 21  2  0  0  0  0
  8 27  1  0  0  0  0
  8 46  1  0  0  0  0
  9 28  1  0  0  0  0
  9 47  1  0  0  0  0
 10 31  1  0  0  0  0
 10 48  1  0  0  0  0
 11 30  1  0  0  0  0
 11 49  1  0  0  0  0
 12 32  1  0  0  0  0
 12 50  1  0  0  0  0
 13 33  1  0  0  0  0
 13 51  1  0  0  0  0
 14 15  1  0  0  0  0
 14 16  1  0  0  0  0
 14 34  1  0  0  0  0
 15 17  1  0  0  0  0
 15 35  1  0  0  0  0
 16 18  1  0  0  0  0
 16 36  1  0  0  0  0
 17 19  1  0  0  0  0
 17 37  1  0  0  0  0
 18 38  1  0  0  0  0
 19 39  1  0  0  0  0
 19 40  1  0  0  0  0
 19 41  1  0  0  0  0
 20 22  1  0  0  0  0
 21 23  1  0  0  0  0
 22 24  1  0  0  0  0
 22 26  2  0  0  0  0
 23 25  1  0  0  0  0
 23 29  2  0  0  0  0
 24 25  1  0  0  0  0
 24 27  2  0  0  0  0
 25 28  2  0  0  0  0
 26 30  1  0  0  0  0
 26 44  1  0  0  0  0
 27 31  1  0  0  0  0
 28 32  1  0  0  0  0
 29 33  1  0  0  0  0
 29 45  1  0  0  0  0
 30 31  2  0  0  0  0
 32 33  2  0  0  0  0
M  END
> <PUBCHEM_COMPOUND_CID>
44317982

> <PUBCHEM_CONFORMER_RMSD>
0.6

> <PUBCHEM_CONFORMER_DIVERSEORDER>
1
15
18
8
3
4
11
2
14
12
6
13
7
16
5
10
17
9

> <PUBCHEM_MMFF94_PARTIAL_CHARGES>
40
1 -0.56
10 -0.53
11 -0.53
12 -0.53
13 -0.53
14 0.28
15 0.28
16 0.28
17 0.28
18 0.56
2 -0.43
20 0.63
21 0.63
22 0.09
23 0.09
26 -0.15
27 0.08
28 0.08
29 -0.15
3 -0.43
30 0.08
31 0.08
32 0.08
33 0.08
4 -0.68
42 0.4
43 0.4
44 0.15
45 0.15
46 0.45
47 0.45
48 0.45
49 0.45
5 -0.68
50 0.45
51 0.45
6 -0.57
7 -0.57
8 -0.53
9 -0.53

> <PUBCHEM_EFFECTIVE_ROTOR_COUNT>
1.2

> <PUBCHEM_PHARMACOPHORE_FEATURES>
16
1 1 acceptor
1 10 donor
1 11 donor
1 12 donor
1 13 donor
1 4 acceptor
1 4 donor
1 5 acceptor
1 5 donor
1 6 acceptor
1 7 acceptor
1 8 donor
1 9 donor
6 1 14 15 16 17 18 rings
6 22 24 26 27 30 31 rings
6 23 25 28 29 32 33 rings

> <PUBCHEM_HEAVY_ATOM_COUNT>
33

> <PUBCHEM_ATOM_DEF_STEREO_COUNT>
1

> <PUBCHEM_ATOM_UDEF_STEREO_COUNT>
4

> <PUBCHEM_BOND_DEF_STEREO_COUNT>
0

> <PUBCHEM_BOND_UDEF_STEREO_COUNT>
0

> <PUBCHEM_ISOTOPIC_ATOM_COUNT>
0

> <PUBCHEM_COMPONENT_COUNT>
1

> <PUBCHEM_CACTVS_TAUTO_COUNT>
998

> <PUBCHEM_CONFORMER_ID>
02A43D1E00000001

> <PUBCHEM_MMFF94_ENERGY>
120.2541

> <PUBCHEM_FEATURE_SELFOVERLAP>
81.274

> <PUBCHEM_SHAPE_FINGERPRINT>
10290309 65 18271816679290885758
107951 10 18197215845758016413
10863032 1 18335980861808305242
11370993 70 18121778326910731678
11578080 2 17029059783162181685
11582403 64 17170962431362136705
12035758 1 18338803420437860187
12422481 6 18128836298550877691
12553582 1 18050848020101763358
12788726 201 18187930628901469482
13140716 1 18127412473631246568
13402501 40 18343301466308376581
13540713 5 17122007067748450971
13583140 156 18272646849165792614
138480 1 16465302285304608287
14363568 33 17690010350006891009
14856354 85 18193846075122337750
15664445 248 17548154671564678836
1813 80 18048316940103017963
20600515 1 17984729910947699007
20739085 24 17474944810345822305
20775438 99 17262674127049776831
21033648 29 18340197497301324600
21033650 10 18044689501726316486
22182313 1 18060133276225062760
22907989 373 18408329886393892037
23366157 5 17183072873738274375
23559900 14 18198621039330900298
27425 322 17313962809084038660
4058900 60 17833844767470188236
4409770 3 18408321077769161551
6287921 2 17263560405771179608
84936 182 17547571474913507501
9709674 26 18271516542385296208
9981440 41 18120935001877330003

> <PUBCHEM_SHAPE_MULTIPOLES>
602.82
8.9
5.22
1.46
11.5
0.17
-0.01
-0.24
-0.79
-7.52
0.07
0.58
0.27
1.99

> <PUBCHEM_SHAPE_SELFOVERLAP>
1341.79

> <PUBCHEM_SHAPE_VOLUME>
314.5

> <PUBCHEM_COORDINATE_TYPE>
2
5
10

$$$$
