11729563
  -OEChem-10062122033D

 56 61  0     0  0  0  0  0  0999 V2000
   -0.7479    4.0592    0.3590 O   0  0  0  0  0  0  0  0  0  0  0  0
   -4.5528    2.1038   -1.2705 O   0  0  0  0  0  0  0  0  0  0  0  0
    2.0775    0.4530   -0.1743 N   0  0  0  0  0  0  0  0  0  0  0  0
    6.0886   -0.9413   -0.7739 N   0  0  0  0  0  0  0  0  0  0  0  0
   -2.8322    3.4311   -0.4507 N   0  0  0  0  0  0  0  0  0  0  0  0
   -2.7656   -2.0123   -2.2823 N   0  0  0  0  0  0  0  0  0  0  0  0
    3.3672    0.1322   -0.7947 C   0  0  0  0  0  0  0  0  0  0  0  0
    4.5392    0.8859   -0.1491 C   0  0  0  0  0  0  0  0  0  0  0  0
    3.6520   -1.3766   -0.8248 C   0  0  0  0  0  0  0  0  0  0  0  0
    5.8656    0.5108   -0.8148 C   0  0  0  0  0  0  0  0  0  0  0  0
    5.0122   -1.6652   -1.4649 C   0  0  0  0  0  0  0  0  0  0  0  0
    1.7333    0.1972    1.1337 C   0  0  0  0  0  0  0  0  0  0  0  0
    1.0368    1.0565   -0.8275 C   0  0  0  0  0  0  0  0  0  0  0  0
    0.0000    1.1959    0.0662 C   0  0  0  0  0  0  0  0  0  0  0  0
    0.4265    0.6561    1.3119 C   0  0  0  0  0  0  0  0  0  0  0  0
    7.3865   -1.2753   -1.3604 C   0  0  0  0  0  0  0  0  0  0  0  0
   -1.2633    1.7865   -0.2503 C   0  0  0  0  0  0  0  0  0  0  0  0
    2.4710   -0.3994    2.1622 C   0  0  0  0  0  0  0  0  0  0  0  0
   -0.1756    0.5140    2.5779 C   0  0  0  0  0  0  0  0  0  0  0  0
   -2.3854    1.2096   -0.7184 C   0  0  0  0  0  0  0  0  0  0  0  0
    1.8531   -0.5302    3.4092 C   0  0  0  0  0  0  0  0  0  0  0  0
   -1.5390    3.2343   -0.0663 C   0  0  0  0  0  0  0  0  0  0  0  0
    0.5503   -0.0811    3.6161 C   0  0  0  0  0  0  0  0  0  0  0  0
   -2.6293   -0.1553   -1.0682 C   0  0  0  0  0  0  0  0  0  0  0  0
   -3.4171    2.2689   -0.8582 C   0  0  0  0  0  0  0  0  0  0  0  0
   -3.1097   -1.2041   -0.2316 C   0  0  0  0  0  0  0  0  0  0  0  0
   -2.4277   -0.6863   -2.3235 C   0  0  0  0  0  0  0  0  0  0  0  0
   -3.1855   -2.3562   -1.0171 C   0  0  0  0  0  0  0  0  0  0  0  0
   -3.4876   -1.2813    1.1237 C   0  0  0  0  0  0  0  0  0  0  0  0
   -3.6221   -3.5865   -0.5132 C   0  0  0  0  0  0  0  0  0  0  0  0
   -3.9266   -2.5053    1.6414 C   0  0  0  0  0  0  0  0  0  0  0  0
   -3.9923   -3.6389    0.8336 C   0  0  0  0  0  0  0  0  0  0  0  0
    3.2883    0.4743   -1.8366 H   0  0  0  0  0  0  0  0  0  0  0  0
    4.6212    0.6880    0.9231 H   0  0  0  0  0  0  0  0  0  0  0  0
    4.3794    1.9672   -0.2458 H   0  0  0  0  0  0  0  0  0  0  0  0
    2.8674   -1.8878   -1.3970 H   0  0  0  0  0  0  0  0  0  0  0  0
    3.6366   -1.8230    0.1732 H   0  0  0  0  0  0  0  0  0  0  0  0
    5.8752    0.8787   -1.8494 H   0  0  0  0  0  0  0  0  0  0  0  0
    6.6729    1.0262   -0.2802 H   0  0  0  0  0  0  0  0  0  0  0  0
    5.1936   -2.7455   -1.4071 H   0  0  0  0  0  0  0  0  0  0  0  0
    4.9821   -1.3978   -2.5296 H   0  0  0  0  0  0  0  0  0  0  0  0
    1.1173    1.3362   -1.8701 H   0  0  0  0  0  0  0  0  0  0  0  0
    7.4513   -0.9855   -2.4154 H   0  0  0  0  0  0  0  0  0  0  0  0
    7.5770   -2.3517   -1.2857 H   0  0  0  0  0  0  0  0  0  0  0  0
    8.1951   -0.7760   -0.8150 H   0  0  0  0  0  0  0  0  0  0  0  0
    3.4841   -0.7592    2.0371 H   0  0  0  0  0  0  0  0  0  0  0  0
   -1.1898    0.8597    2.7566 H   0  0  0  0  0  0  0  0  0  0  0  0
    2.3983   -0.9894    4.2299 H   0  0  0  0  0  0  0  0  0  0  0  0
    0.0910   -0.1935    4.5946 H   0  0  0  0  0  0  0  0  0  0  0  0
   -3.3008    4.3297   -0.4347 H   0  0  0  0  0  0  0  0  0  0  0  0
   -2.0737   -0.2419   -3.2439 H   0  0  0  0  0  0  0  0  0  0  0  0
   -2.7143   -2.6476   -3.0666 H   0  0  0  0  0  0  0  0  0  0  0  0
   -3.4438   -0.4070    1.7668 H   0  0  0  0  0  0  0  0  0  0  0  0
   -3.6733   -4.4696   -1.1411 H   0  0  0  0  0  0  0  0  0  0  0  0
   -4.2196   -2.5705    2.6859 H   0  0  0  0  0  0  0  0  0  0  0  0
   -4.3362   -4.5794    1.2565 H   0  0  0  0  0  0  0  0  0  0  0  0
  1 22  2  0  0  0  0
  2 25  2  0  0  0  0
  3  7  1  0  0  0  0
  3 12  1  0  0  0  0
  3 13  1  0  0  0  0
  4 10  1  0  0  0  0
  4 11  1  0  0  0  0
  4 16  1  0  0  0  0
  5 22  1  0  0  0  0
  5 25  1  0  0  0  0
  5 50  1  0  0  0  0
  6 27  1  0  0  0  0
  6 28  1  0  0  0  0
  6 52  1  0  0  0  0
  7  8  1  0  0  0  0
  7  9  1  0  0  0  0
  7 33  1  0  0  0  0
  8 10  1  0  0  0  0
  8 34  1  0  0  0  0
  8 35  1  0  0  0  0
  9 11  1  0  0  0  0
  9 36  1  0  0  0  0
  9 37  1  0  0  0  0
 10 38  1  0  0  0  0
 10 39  1  0  0  0  0
 11 40  1  0  0  0  0
 11 41  1  0  0  0  0
 12 15  1  0  0  0  0
 12 18  2  0  0  0  0
 13 14  2  0  0  0  0
 13 42  1  0  0  0  0
 14 15  1  0  0  0  0
 14 17  1  0  0  0  0
 15 19  2  0  0  0  0
 16 43  1  0  0  0  0
 16 44  1  0  0  0  0
 16 45  1  0  0  0  0
 17 20  2  0  0  0  0
 17 22  1  0  0  0  0
 18 21  1  0  0  0  0
 18 46  1  0  0  0  0
 19 23  1  0  0  0  0
 19 47  1  0  0  0  0
 20 24  1  0  0  0  0
 20 25  1  0  0  0  0
 21 23  2  0  0  0  0
 21 48  1  0  0  0  0
 23 49  1  0  0  0  0
 24 26  1  0  0  0  0
 24 27  2  0  0  0  0
 26 28  1  0  0  0  0
 26 29  2  0  0  0  0
 27 51  1  0  0  0  0
 28 30  2  0  0  0  0
 29 31  1  0  0  0  0
 29 53  1  0  0  0  0
 30 32  1  0  0  0  0
 30 54  1  0  0  0  0
 31 32  2  0  0  0  0
 31 55  1  0  0  0  0
 32 56  1  0  0  0  0
M  END
> <PUBCHEM_COMPOUND_CID>
11729563

> <PUBCHEM_CONFORMER_RMSD>
0.8

> <PUBCHEM_CONFORMER_DIVERSEORDER>
7
45
1
51
35
52
26
32
47
21
41
20
46
53
13
48
22
42
8
25
49
27
19
50
34
36
29
23
30
43
2
40
9
37
10
33
4
14
15
5
16
3
12
6
44
39
11
18
28
17
38
24
31

> <PUBCHEM_MMFF94_PARTIAL_CHARGES>
40
1 -0.57
10 0.27
11 0.27
12 -0.15
13 -0.3
14 -0.05
16 0.27
17 0.06
18 -0.15
19 -0.15
2 -0.57
20 0.06
21 -0.15
22 0.62
23 -0.15
24 -0.05
25 0.62
27 -0.3
28 -0.15
29 -0.15
3 0.05
30 -0.15
31 -0.15
32 -0.15
4 -0.81
42 0.15
46 0.15
47 0.15
48 0.15
49 0.15
5 -0.49
50 0.37
51 0.15
52 0.27
53 0.15
54 0.15
55 0.15
56 0.15
6 0.03
7 0.26

> <PUBCHEM_EFFECTIVE_ROTOR_COUNT>
4.4

> <PUBCHEM_PHARMACOPHORE_FEATURES>
13
1 1 acceptor
1 2 acceptor
1 3 cation
1 4 cation
1 5 donor
1 6 cation
1 6 donor
5 3 12 13 14 15 rings
5 5 17 20 22 25 rings
5 6 24 26 27 28 rings
6 12 15 18 19 21 23 rings
6 26 28 29 30 31 32 rings
6 4 7 8 9 10 11 rings

> <PUBCHEM_HEAVY_ATOM_COUNT>
32

> <PUBCHEM_ATOM_DEF_STEREO_COUNT>
0

> <PUBCHEM_ATOM_UDEF_STEREO_COUNT>
0

> <PUBCHEM_BOND_DEF_STEREO_COUNT>
0

> <PUBCHEM_BOND_UDEF_STEREO_COUNT>
0

> <PUBCHEM_ISOTOPIC_ATOM_COUNT>
0

> <PUBCHEM_COMPONENT_COUNT>
1

> <PUBCHEM_CACTVS_TAUTO_COUNT>
8

> <PUBCHEM_CONFORMER_ID>
00B2FA9B00000007

> <PUBCHEM_MMFF94_ENERGY>
64.76

> <PUBCHEM_FEATURE_SELFOVERLAP>
66.157

> <PUBCHEM_SHAPE_FINGERPRINT>
10369192 42 14563395933990125670
10675989 125 16759732846539491404
107951 10 18191308178688298279
10928967 22 17846208999427313470
11578080 2 17632002165530954105
12160290 23 18195500655180031781
12553582 1 18191290762617076667
12633257 1 15481842319029296459
12714826 92 18060136539640376865
12788726 201 18260535720180495729
13103583 49 15913060870668811198
13994607 96 11602827925195354215
14114206 34 17968642896233929493
14251757 5 18409443653186798397
14713325 29 18338809922216492575
14932701 244 17895767303946453308
14950920 106 15625380289059676199
15484559 13 13563238131289271004
16114785 44 14978844151597406251
17909252 39 18194690499672557252
18603816 31 17753902615106745078
19315092 285 12027804360946538548
19319366 153 17168700800610976273
20505436 4 17605560942064861801
21792965 302 17604987203411952277
22393880 68 17603854641920675276
23536364 44 17458910451894717227
23559900 14 18130773543724285420
4058900 60 17831860145357446797
4073 2 18410577250281476118
437815 12 18265052608521388023
484985 159 17203612562466985343
56638632 33 17337577957065352646
57527573 199 16053546425464948785
59755656 520 17386014910069518824
70251023 43 18049438442511969007
70634741 139 18201727267364780358
7970288 3 18123191461383424103

> <PUBCHEM_SHAPE_MULTIPOLES>
626.88
11.85
3.9
2.74
19.94
1.04
2.72
-7.73
-6.61
-6.51
-0.71
0.49
-0.93
1.57

> <PUBCHEM_SHAPE_SELFOVERLAP>
1415.872

> <PUBCHEM_SHAPE_VOLUME>
331.5

> <PUBCHEM_COORDINATE_TYPE>
2
5
10

$$$$
