460897
  -OEChem-10062121573D

 37 38  0     1  0  0  0  0  0999 V2000
    0.4568    0.3879   -1.2564 O   0  0  0  0  0  0  0  0  0  0  0  0
    2.9167    2.5965    0.2700 O   0  0  0  0  0  0  0  0  0  0  0  0
    1.9435    1.5619    2.6125 O   0  0  0  0  0  0  0  0  0  0  0  0
    4.9166   -1.7128   -0.8597 O   0  0  0  0  0  0  0  0  0  0  0  0
    3.8769   -2.7992    0.8634 O   0  0  0  0  0  0  0  0  0  0  0  0
   -0.6942    2.3425   -1.6489 O   0  0  0  0  0  0  0  0  0  0  0  0
   -3.0739   -2.9341   -0.4715 O   0  0  0  0  0  0  0  0  0  0  0  0
   -4.8580    1.2067    1.1421 O   0  0  0  0  0  0  0  0  0  0  0  0
   -5.0626   -1.5401    0.8598 O   0  0  0  0  0  0  0  0  0  0  0  0
    1.7105    1.0525   -1.1151 C   0  0  1  0  0  0  0  0  0  0  0  0
    1.7201    1.8196    0.2093 C   0  0  1  0  0  0  0  0  0  0  0  0
    2.8575    0.0286   -1.1895 C   0  0  0  0  0  0  0  0  0  0  0  0
    1.6406    0.8608    1.4106 C   0  0  1  0  0  0  0  0  0  0  0  0
    3.1051   -0.6801    0.1123 C   0  0  0  0  0  0  0  0  0  0  0  0
    2.5596   -0.3210    1.2839 C   0  0  0  0  0  0  0  0  0  0  0  0
    3.9846   -1.8524    0.1059 C   0  0  0  0  0  0  0  0  0  0  0  0
   -0.6428    1.1878   -1.2546 C   0  0  0  0  0  0  0  0  0  0  0  0
   -1.8133    0.4655   -0.6953 C   0  0  0  0  0  0  0  0  0  0  0  0
   -2.7889    1.1854   -0.0364 C   0  0  0  0  0  0  0  0  0  0  0  0
   -1.8893   -0.9035   -0.8512 C   0  0  0  0  0  0  0  0  0  0  0  0
   -2.9888   -1.5823   -0.3255 C   0  0  0  0  0  0  0  0  0  0  0  0
   -3.8883    0.5068    0.4895 C   0  0  0  0  0  0  0  0  0  0  0  0
   -3.9884   -0.8770    0.3448 C   0  0  0  0  0  0  0  0  0  0  0  0
    1.8369    1.7422   -1.9603 H   0  0  0  0  0  0  0  0  0  0  0  0
    0.8982    2.5384    0.2844 H   0  0  0  0  0  0  0  0  0  0  0  0
    3.7771    0.5532   -1.4781 H   0  0  0  0  0  0  0  0  0  0  0  0
    2.6287   -0.7075   -1.9700 H   0  0  0  0  0  0  0  0  0  0  0  0
    0.6202    0.4726    1.5123 H   0  0  0  0  0  0  0  0  0  0  0  0
    2.7539   -0.8903    2.1895 H   0  0  0  0  0  0  0  0  0  0  0  0
    2.9344    3.0377    1.1363 H   0  0  0  0  0  0  0  0  0  0  0  0
    1.3066    2.2924    2.6928 H   0  0  0  0  0  0  0  0  0  0  0  0
   -2.7073    2.2627    0.0788 H   0  0  0  0  0  0  0  0  0  0  0  0
   -1.1236   -1.4619   -1.3824 H   0  0  0  0  0  0  0  0  0  0  0  0
    5.5270   -2.4799   -0.8968 H   0  0  0  0  0  0  0  0  0  0  0  0
   -2.2940   -3.2510   -0.9587 H   0  0  0  0  0  0  0  0  0  0  0  0
   -4.6210    2.1501    1.1447 H   0  0  0  0  0  0  0  0  0  0  0  0
   -4.9609   -2.4879    0.6643 H   0  0  0  0  0  0  0  0  0  0  0  0
  1 10  1  0  0  0  0
  1 17  1  0  0  0  0
  2 11  1  0  0  0  0
  2 30  1  0  0  0  0
  3 13  1  0  0  0  0
  3 31  1  0  0  0  0
  4 16  1  0  0  0  0
  4 34  1  0  0  0  0
  5 16  2  0  0  0  0
  6 17  2  0  0  0  0
  7 21  1  0  0  0  0
  7 35  1  0  0  0  0
  8 22  1  0  0  0  0
  8 36  1  0  0  0  0
  9 23  1  0  0  0  0
  9 37  1  0  0  0  0
 10 11  1  0  0  0  0
 10 12  1  0  0  0  0
 10 24  1  0  0  0  0
 11 13  1  0  0  0  0
 11 25  1  0  0  0  0
 12 14  1  0  0  0  0
 12 26  1  0  0  0  0
 12 27  1  0  0  0  0
 13 15  1  0  0  0  0
 13 28  1  0  0  0  0
 14 15  2  0  0  0  0
 14 16  1  0  0  0  0
 15 29  1  0  0  0  0
 17 18  1  0  0  0  0
 18 19  2  0  0  0  0
 18 20  1  0  0  0  0
 19 22  1  0  0  0  0
 19 32  1  0  0  0  0
 20 21  2  0  0  0  0
 20 33  1  0  0  0  0
 21 23  1  0  0  0  0
 22 23  2  0  0  0  0
M  END
> <PUBCHEM_COMPOUND_CID>
460897

> <PUBCHEM_CONFORMER_RMSD>
0.8

> <PUBCHEM_CONFORMER_DIVERSEORDER>
1
15
31
16
23
27
14
30
28
2
21
29
6
24
5
26
8
3
25
22
4
11
20
13
19
18
17
10
12
7
9

> <PUBCHEM_MMFF94_PARTIAL_CHARGES>
32
1 -0.43
10 0.28
11 0.28
12 0.14
13 0.42
14 -0.12
15 -0.29
16 0.71
17 0.63
18 0.09
19 -0.15
2 -0.68
20 -0.15
21 0.08
22 0.08
23 0.08
29 0.15
3 -0.68
30 0.4
31 0.4
32 0.15
33 0.15
34 0.5
35 0.45
36 0.45
37 0.45
4 -0.65
5 -0.57
6 -0.57
7 -0.53
8 -0.53
9 -0.53

> <PUBCHEM_EFFECTIVE_ROTOR_COUNT>
4.8

> <PUBCHEM_PHARMACOPHORE_FEATURES>
13
1 2 acceptor
1 2 donor
1 3 acceptor
1 3 donor
1 4 acceptor
1 5 acceptor
1 6 acceptor
1 7 donor
1 8 donor
1 9 donor
3 4 5 16 anion
6 10 11 12 13 14 15 rings
6 18 19 20 21 22 23 rings

> <PUBCHEM_HEAVY_ATOM_COUNT>
23

> <PUBCHEM_ATOM_DEF_STEREO_COUNT>
3

> <PUBCHEM_ATOM_UDEF_STEREO_COUNT>
0

> <PUBCHEM_BOND_DEF_STEREO_COUNT>
0

> <PUBCHEM_BOND_UDEF_STEREO_COUNT>
0

> <PUBCHEM_ISOTOPIC_ATOM_COUNT>
0

> <PUBCHEM_COMPONENT_COUNT>
1

> <PUBCHEM_CACTVS_TAUTO_COUNT>
14

> <PUBCHEM_CONFORMER_ID>
0007086100000001

> <PUBCHEM_MMFF94_ENERGY>
57.5226

> <PUBCHEM_FEATURE_SELFOVERLAP>
66.048

> <PUBCHEM_SHAPE_FINGERPRINT>
10366900 7 17771055296439931153
11552529 35 18129377279804744735
11578080 2 17314204791784106053
11640471 11 13254786941185526077
12107183 9 18196661700624513633
12403259 327 17989487403081504949
12553582 1 17676481735568436339
12596599 1 17968086581984154427
12616999 72 13623527965427897056
12633257 1 17988934340290498835
12670546 177 11169910593694251059
12714826 92 18043240263047403556
12892183 10 18199747119177840137
13103583 49 18058457521007824171
13224815 77 17240754116618500173
13533116 47 18200024179239712223
13583140 156 17631437037917953721
13965767 371 14045473193228118557
14178342 30 17835792367666763734
14251764 30 18269564844985411390
14252887 29 18041278884453323813
14289901 80 18198904910440341953
14341114 176 18273219694138126162
14420673 8 18194973937059295831
15209289 33 18334295344531797179
15238133 3 17489036945947080736
15295992 7 17489862726846024489
15537594 2 17968668111634035322
16752209 62 17678155136769168069
17492 89 18192155008705735083
17804303 29 18412548682449827679
1813 80 17458063776438450701
18981168 100 11958888367628403532
19078846 21 17846222128898899128
19784866 135 18262518070124130188
20291156 8 18113617884843126071
20645477 70 17168704279565692423
21033648 29 15195001566545058106
21731516 1 17313650590630962637
22393880 68 11386359310266235378
2255824 54 17317896002921655013
22950370 63 18187937131460628918
23503958 8 18408889507895065881
235170 7 13190342348620920339
23559900 14 18341893021614392237
23566358 27 18261962954454957180
238 59 12324253736828940390
3286 77 18131344232802117959
3472631 163 9943531791267930643
5104073 3 18342470265714450985
6669772 16 15069198912956436548
6786 2 17478324696890895928
7097593 13 18341047544496290053
7970288 3 17749108876725284635
8509985 295 17632297830831359145

> <PUBCHEM_SHAPE_MULTIPOLES>
420.51
9.54
2.72
1.57
3.79
0.79
0.48
5.32
2.14
-0.98
0.01
-0.7
-0.68
0.12

> <PUBCHEM_SHAPE_SELFOVERLAP>
906.396

> <PUBCHEM_SHAPE_VOLUME>
228.2

> <PUBCHEM_COORDINATE_TYPE>
2
5
10

$$$$
