14802484
  -OEChem-10062122013D

 52 54  0     0  0  0  0  0  0999 V2000
   -2.8044   -1.6422   -1.0169 S   0  0  0  0  0  0  0  0  0  0  0  0
   -3.8347   -1.9852   -0.0602 O   0  0  0  0  0  0  0  0  0  0  0  0
   -2.8972   -2.0673   -2.3974 O   0  0  0  0  0  0  0  0  0  0  0  0
    6.3347    1.7617   -0.6808 O   0  0  0  0  0  0  0  0  0  0  0  0
    4.5022    2.0577    0.6886 O   0  0  0  0  0  0  0  0  0  0  0  0
    1.3553   -2.1256    0.7558 N   0  0  0  0  0  0  0  0  0  0  0  0
   -1.2814   -2.1130   -0.3915 N   0  0  0  0  0  0  0  0  0  0  0  0
   -3.6743    2.5263    2.2893 N   0  0  0  0  0  0  0  0  0  0  0  0
    1.1516   -2.3917   -0.6752 C   0  0  0  0  0  0  0  0  0  0  0  0
    0.1898   -2.5693    1.5333 C   0  0  0  0  0  0  0  0  0  0  0  0
   -0.0988   -1.6791   -1.1885 C   0  0  0  0  0  0  0  0  0  0  0  0
   -1.0795   -1.8600    1.0635 C   0  0  0  0  0  0  0  0  0  0  0  0
    2.5719   -2.7822    1.2328 C   0  0  0  0  0  0  0  0  0  0  0  0
    3.7922   -2.2478    0.4839 C   0  0  0  0  0  0  0  0  0  0  0  0
   -2.6152    0.1129   -1.0004 C   0  0  0  0  0  0  0  0  0  0  0  0
    3.9444   -0.7363    0.6856 C   0  0  0  0  0  0  0  0  0  0  0  0
   -2.9741    0.8953    0.1037 C   0  0  0  0  0  0  0  0  0  0  0  0
    5.1365   -0.1618   -0.0797 C   0  0  0  0  0  0  0  0  0  0  0  0
   -2.0867    0.6903   -2.1518 C   0  0  0  0  0  0  0  0  0  0  0  0
   -2.7915    2.2920    0.0353 C   0  0  0  0  0  0  0  0  0  0  0  0
   -1.9081    2.0703   -2.2153 C   0  0  0  0  0  0  0  0  0  0  0  0
   -3.5069    0.3382    1.2718 C   0  0  0  0  0  0  0  0  0  0  0  0
   -2.2580    2.8707   -1.1281 C   0  0  0  0  0  0  0  0  0  0  0  0
    5.2607    1.3403    0.0510 C   0  0  0  0  0  0  0  0  0  0  0  0
   -3.1586    3.0453    1.1523 C   0  0  0  0  0  0  0  0  0  0  0  0
   -3.8348    1.1861    2.3188 C   0  0  0  0  0  0  0  0  0  0  0  0
    6.5647    3.1744   -0.6800 C   0  0  0  0  0  0  0  0  0  0  0  0
    1.9734   -2.0106   -1.2873 H   0  0  0  0  0  0  0  0  0  0  0  0
    1.0667   -3.4704   -0.8629 H   0  0  0  0  0  0  0  0  0  0  0  0
    0.0585   -3.6564    1.4475 H   0  0  0  0  0  0  0  0  0  0  0  0
    0.3399   -2.3388    2.5950 H   0  0  0  0  0  0  0  0  0  0  0  0
    0.0536   -0.5986   -1.1007 H   0  0  0  0  0  0  0  0  0  0  0  0
   -0.2417   -1.9362   -2.2431 H   0  0  0  0  0  0  0  0  0  0  0  0
   -1.9196   -2.2607    1.6383 H   0  0  0  0  0  0  0  0  0  0  0  0
   -0.9782   -0.7885    1.2590 H   0  0  0  0  0  0  0  0  0  0  0  0
    2.5152   -3.8711    1.1080 H   0  0  0  0  0  0  0  0  0  0  0  0
    2.7051   -2.5865    2.3043 H   0  0  0  0  0  0  0  0  0  0  0  0
    3.7946   -2.5134   -0.5775 H   0  0  0  0  0  0  0  0  0  0  0  0
    4.6814   -2.7396    0.9007 H   0  0  0  0  0  0  0  0  0  0  0  0
    3.0416   -0.2101    0.3536 H   0  0  0  0  0  0  0  0  0  0  0  0
    4.0570   -0.5151    1.7546 H   0  0  0  0  0  0  0  0  0  0  0  0
    6.0621   -0.6143    0.2935 H   0  0  0  0  0  0  0  0  0  0  0  0
    5.0318   -0.3975   -1.1451 H   0  0  0  0  0  0  0  0  0  0  0  0
   -1.8007    0.0975   -3.0156 H   0  0  0  0  0  0  0  0  0  0  0  0
   -1.4950    2.5238   -3.1117 H   0  0  0  0  0  0  0  0  0  0  0  0
   -3.6444   -0.6993    1.5097 H   0  0  0  0  0  0  0  0  0  0  0  0
   -2.1117    3.9464   -1.1945 H   0  0  0  0  0  0  0  0  0  0  0  0
   -3.0440    4.1258    1.1655 H   0  0  0  0  0  0  0  0  0  0  0  0
   -4.2350    0.7923    3.2478 H   0  0  0  0  0  0  0  0  0  0  0  0
    5.7062    3.6980   -1.1112 H   0  0  0  0  0  0  0  0  0  0  0  0
    6.7612    3.5255    0.3375 H   0  0  0  0  0  0  0  0  0  0  0  0
    7.4446    3.3759   -1.2967 H   0  0  0  0  0  0  0  0  0  0  0  0
  1  2  2  0  0  0  0
  1  3  2  0  0  0  0
  1  7  1  0  0  0  0
  1 15  1  0  0  0  0
  4 24  1  0  0  0  0
  4 27  1  0  0  0  0
  5 24  2  0  0  0  0
  6  9  1  0  0  0  0
  6 10  1  0  0  0  0
  6 13  1  0  0  0  0
  7 11  1  0  0  0  0
  7 12  1  0  0  0  0
  8 25  2  0  0  0  0
  8 26  1  0  0  0  0
  9 11  1  0  0  0  0
  9 28  1  0  0  0  0
  9 29  1  0  0  0  0
 10 12  1  0  0  0  0
 10 30  1  0  0  0  0
 10 31  1  0  0  0  0
 11 32  1  0  0  0  0
 11 33  1  0  0  0  0
 12 34  1  0  0  0  0
 12 35  1  0  0  0  0
 13 14  1  0  0  0  0
 13 36  1  0  0  0  0
 13 37  1  0  0  0  0
 14 16  1  0  0  0  0
 14 38  1  0  0  0  0
 14 39  1  0  0  0  0
 15 17  1  0  0  0  0
 15 19  2  0  0  0  0
 16 18  1  0  0  0  0
 16 40  1  0  0  0  0
 16 41  1  0  0  0  0
 17 20  2  0  0  0  0
 17 22  1  0  0  0  0
 18 24  1  0  0  0  0
 18 42  1  0  0  0  0
 18 43  1  0  0  0  0
 19 21  1  0  0  0  0
 19 44  1  0  0  0  0
 20 23  1  0  0  0  0
 20 25  1  0  0  0  0
 21 23  2  0  0  0  0
 21 45  1  0  0  0  0
 22 26  2  0  0  0  0
 22 46  1  0  0  0  0
 23 47  1  0  0  0  0
 25 48  1  0  0  0  0
 26 49  1  0  0  0  0
 27 50  1  0  0  0  0
 27 51  1  0  0  0  0
 27 52  1  0  0  0  0
M  END
> <PUBCHEM_COMPOUND_CID>
14802484

> <PUBCHEM_CONFORMER_RMSD>
1

> <PUBCHEM_CONFORMER_DIVERSEORDER>
5
120
348
206
163
175
228
341
252
153
267
327
343
168
147
345
216
347
293
221
325
121
317
134
201
205
238
46
40
86
113
292
227
50
354
332
53
229
271
290
322
130
328
254
34
360
368
89
33
215
302
218
249
44
269
186
174
202
233
330
98
47
263
276
279
192
335
61
265
340
200
237
364
68
259
151
169
84
182
197
58
370
67
195
136
365
75
349
165
119
211
337
164
273
45
250
166
1
171
295
286
8
304
350
22
88
131
333
51
52
316
124
298
15
367
336
194
137
100
321
7
158
301
128
281
65
363
70
261
196
208
217
185
282
93
87
160
274
351
362
142
150
246
78
26
99
299
48
324
319
156
145
140
352
13
77
79
222
154
104
359
314
172
12
38
270
306
117
361
339
300
112
323
287
251
223
162
342
97
277
73
139
275
29
129
181
179
358
37
105
289
85
326
355
291
268
80
307
148
219
371
369
114
241
204
207
76
224
239
20
236
92
23
220
177
346
43
24
152
315
123
260
49
135
21
296
94
189
101
245
225
344
81
6
109
232
127
338
284
173
283
107
125
143
235
146
297
60
180
74
230
144
11
141
64
138
35
149
198
253
353
110
155
36
18
30
288
54
262
310
240
357
2
303
66
366
170
103
212
17
59
193
320
27
106
178
258
183
4
95
82
203
187
133
41
356
56
334
209
294
9
39
308
329
242
69
184
226
115
167
96
28
55
108
191
16
126
14
214
72
305
111
122
31
57
91
244
62
248
63
3
19
318
264
278
90
10
213
176
210
32
118
116
243
199
102
272
256
309
255
83
234
247
190
42
161
257
231
266
159
132
312
25
157
311
313
71
188
280
285
331

> <PUBCHEM_MMFF94_PARTIAL_CHARGES>
29
1 1.45
10 0.27
11 0.36
12 0.36
13 0.27
15 -0.01
18 0.06
19 -0.15
2 -0.65
21 -0.15
22 -0.15
23 -0.15
24 0.66
25 0.16
26 0.16
27 0.28
3 -0.65
4 -0.43
44 0.15
45 0.15
46 0.15
47 0.15
48 0.15
49 0.15
5 -0.57
6 -0.81
7 -0.85
8 -0.62
9 0.27

> <PUBCHEM_EFFECTIVE_ROTOR_COUNT>
9.2

> <PUBCHEM_PHARMACOPHORE_FEATURES>
8
1 2 acceptor
1 3 acceptor
1 5 acceptor
1 6 cation
1 8 acceptor
6 15 17 19 20 21 23 rings
6 6 7 9 10 11 12 rings
6 8 17 20 22 25 26 rings

> <PUBCHEM_HEAVY_ATOM_COUNT>
27

> <PUBCHEM_ATOM_DEF_STEREO_COUNT>
0

> <PUBCHEM_ATOM_UDEF_STEREO_COUNT>
0

> <PUBCHEM_BOND_DEF_STEREO_COUNT>
0

> <PUBCHEM_BOND_UDEF_STEREO_COUNT>
0

> <PUBCHEM_ISOTOPIC_ATOM_COUNT>
0

> <PUBCHEM_COMPONENT_COUNT>
1

> <PUBCHEM_CACTVS_TAUTO_COUNT>
1

> <PUBCHEM_CONFORMER_ID>
00E1DE3400000005

> <PUBCHEM_MMFF94_ENERGY>
58.2718

> <PUBCHEM_FEATURE_SELFOVERLAP>
40.642

> <PUBCHEM_SHAPE_FINGERPRINT>
10305334 12 18200892762886721541
10670039 82 18338231678638975580
10764073 3 11349904886937489189
13583140 156 17535184445450038595
13828863 39 18340499880031002928
13994607 96 17488454175394392769
14279260 333 17916032266268586004
14347329 18 18263361555580258768
14674994 50 13378566992771653105
14848178 5 9078820845680346746
14950920 106 17532658923191267282
15021287 119 18119799210962349146
15119646 57 17918002701931172384
15163728 17 18131361791050774878
16067690 210 17203333282472323216
16991981 162 17918273159984108104
18393751 57 18187939377855522195
21049683 118 15144322765245500997
21049683 271 18048018956016301247
21120745 212 18129940221458654615
21623110 236 18408599253878647013
22907989 373 17986926640727632391
22956985 138 15514502465776912314
23572383 38 11023240085056112390
312425 83 17988652878568436366
3552219 110 18340768234837341207
469060 322 17895480322858767965
5081480 168 17126494839950967726
5252454 2 18412824673059535936
57724786 102 18126854798335806802
6034566 193 18200594675260924289

> <PUBCHEM_SHAPE_MULTIPOLES>
521.08
12.12
4.53
2.12
23.66
1.05
-0.08
10.76
1.32
1.88
0.2
-3.01
0.42
-2.41

> <PUBCHEM_SHAPE_SELFOVERLAP>
1082.089

> <PUBCHEM_SHAPE_VOLUME>
297.3

> <PUBCHEM_COORDINATE_TYPE>
2
5
10

$$$$
