49831051
  -OEChem-10052115193D

 32 35  0     0  0  0  0  0  0999 V2000
    6.9459   -0.1182    0.5332 Br  0  0  0  0  0  0  0  0  0  0  0  0
   -2.4040    2.4462   -0.1105 N   0  0  0  0  0  0  0  0  0  0  0  0
    1.2000   -0.5525   -0.5612 N   0  0  0  0  0  0  0  0  0  0  0  0
    3.3432   -1.6649   -0.7625 N   0  0  0  0  0  0  0  0  0  0  0  0
    4.2886    0.7332    0.5297 N   0  0  0  0  0  0  0  0  0  0  0  0
   -3.8488   -4.0933    0.2827 N   0  0  0  0  0  0  0  0  0  0  0  0
   -0.6449    1.0933   -0.0604 C   0  0  0  0  0  0  0  0  0  0  0  0
   -1.8216    0.2956    0.0028 C   0  0  0  0  0  0  0  0  0  0  0  0
   -2.9110    1.1688   -0.0303 C   0  0  0  0  0  0  0  0  0  0  0  0
    0.7553    0.6452   -0.0571 C   0  0  0  0  0  0  0  0  0  0  0  0
   -1.0354    2.4108   -0.1291 C   0  0  0  0  0  0  0  0  0  0  0  0
    1.8410    1.3362    0.4405 C   0  0  0  0  0  0  0  0  0  0  0  0
   -2.0652   -1.0898    0.0851 C   0  0  0  0  0  0  0  0  0  0  0  0
   -4.2371    0.7240    0.0152 C   0  0  0  0  0  0  0  0  0  0  0  0
    2.5549   -0.6387   -0.3935 C   0  0  0  0  0  0  0  0  0  0  0  0
    2.9811    0.5269    0.2295 C   0  0  0  0  0  0  0  0  0  0  0  0
   -3.1892    3.6603   -0.1675 C   0  0  0  0  0  0  0  0  0  0  0  0
   -3.3865   -1.5491    0.1314 C   0  0  0  0  0  0  0  0  0  0  0  0
   -4.4542   -0.6544    0.0967 C   0  0  0  0  0  0  0  0  0  0  0  0
    4.6376   -1.4386   -0.4549 C   0  0  0  0  0  0  0  0  0  0  0  0
    5.0920   -0.2879    0.1653 C   0  0  0  0  0  0  0  0  0  0  0  0
   -3.6417   -2.9534    0.2149 C   0  0  0  0  0  0  0  0  0  0  0  0
   -0.4572    3.3239   -0.1920 H   0  0  0  0  0  0  0  0  0  0  0  0
    0.6273   -1.2555   -1.0069 H   0  0  0  0  0  0  0  0  0  0  0  0
    1.8210    2.3123    0.9066 H   0  0  0  0  0  0  0  0  0  0  0  0
   -1.2414   -1.7971    0.1234 H   0  0  0  0  0  0  0  0  0  0  0  0
   -5.0727    1.4154   -0.0113 H   0  0  0  0  0  0  0  0  0  0  0  0
   -3.8229    3.6196   -1.0570 H   0  0  0  0  0  0  0  0  0  0  0  0
   -3.7963    3.7212    0.7393 H   0  0  0  0  0  0  0  0  0  0  0  0
   -2.5244    4.5259   -0.2263 H   0  0  0  0  0  0  0  0  0  0  0  0
   -5.4797   -1.0174    0.1329 H   0  0  0  0  0  0  0  0  0  0  0  0
    5.3119   -2.2421   -0.7349 H   0  0  0  0  0  0  0  0  0  0  0  0
  1 21  1  0  0  0  0
  2  9  1  0  0  0  0
  2 11  1  0  0  0  0
  2 17  1  0  0  0  0
  3 10  1  0  0  0  0
  3 15  1  0  0  0  0
  3 24  1  0  0  0  0
  4 15  2  0  0  0  0
  4 20  1  0  0  0  0
  5 16  2  0  0  0  0
  5 21  1  0  0  0  0
  6 22  3  0  0  0  0
  7  8  1  0  0  0  0
  7 10  1  0  0  0  0
  7 11  2  0  0  0  0
  8  9  2  0  0  0  0
  8 13  1  0  0  0  0
  9 14  1  0  0  0  0
 10 12  2  0  0  0  0
 11 23  1  0  0  0  0
 12 16  1  0  0  0  0
 12 25  1  0  0  0  0
 13 18  2  0  0  0  0
 13 26  1  0  0  0  0
 14 19  2  0  0  0  0
 14 27  1  0  0  0  0
 15 16  1  0  0  0  0
 17 28  1  0  0  0  0
 17 29  1  0  0  0  0
 17 30  1  0  0  0  0
 18 19  1  0  0  0  0
 18 22  1  0  0  0  0
 19 31  1  0  0  0  0
 20 21  2  0  0  0  0
 20 32  1  0  0  0  0
M  END
> <PUBCHEM_COMPOUND_CID>
49831051

> <PUBCHEM_CONFORMER_RMSD>
0.6

> <PUBCHEM_CONFORMER_DIVERSEORDER>
1
3
5
2
4
6

> <PUBCHEM_MMFF94_PARTIAL_CHARGES>
27
1 -0.11
10 -0.15
11 -0.3
12 -0.15
13 -0.15
14 -0.15
15 0.11
16 0.26
17 0.26
18 0.07
19 -0.15
2 0.05
20 0.16
21 0.42
22 0.48
23 0.15
24 0.27
25 0.15
26 0.15
27 0.15
3 0.03
31 0.15
32 0.15
4 -0.57
5 -0.57
6 -0.56
9 -0.15

> <PUBCHEM_EFFECTIVE_ROTOR_COUNT>
1

> <PUBCHEM_PHARMACOPHORE_FEATURES>
10
1 1 hydrophobe
1 2 cation
1 3 donor
1 5 acceptor
1 6 acceptor
3 3 4 15 cation
5 2 7 8 9 11 rings
5 3 10 12 15 16 rings
6 4 5 15 16 20 21 rings
6 8 9 13 14 18 19 rings

> <PUBCHEM_HEAVY_ATOM_COUNT>
22

> <PUBCHEM_ATOM_DEF_STEREO_COUNT>
0

> <PUBCHEM_ATOM_UDEF_STEREO_COUNT>
0

> <PUBCHEM_BOND_DEF_STEREO_COUNT>
0

> <PUBCHEM_BOND_UDEF_STEREO_COUNT>
0

> <PUBCHEM_ISOTOPIC_ATOM_COUNT>
0

> <PUBCHEM_COMPONENT_COUNT>
1

> <PUBCHEM_CACTVS_TAUTO_COUNT>
3

> <PUBCHEM_CONFORMER_ID>
02F85C8B00000001

> <PUBCHEM_MMFF94_ENERGY>
39.2884

> <PUBCHEM_FEATURE_SELFOVERLAP>
50.971

> <PUBCHEM_SHAPE_FINGERPRINT>
10319926 262 18268411479126051970
10411042 1 18193558007217911451
105312 117 17606108477955742765
10595046 47 18261114101998916732
10616163 171 18411139121270119679
11315181 36 18113618976250414484
12107183 9 17613710428234845840
12236239 1 17385444297952418120
12403259 415 18060409219379062880
12990986 174 18337111297137880595
13140716 1 18268717276312772129
13583140 156 17988914566319304500
13631057 29 18410854395282591498
138480 1 16320341564608540703
13911882 115 18060427910981821998
14341114 176 18341337712587008432
14429380 30 18049440640860907142
14508225 48 18337096961022376333
14790565 3 17404024721317344489
14844126 61 18408041836160030251
15042514 8 18409454717602612987
15196674 1 18339080496524046882
15250474 111 18187916241109453938
15352361 1 18338799043323229815
17492 89 18337392742133982302
17844677 252 18411424999210885360
18927931 339 18409172120837883599
19141452 34 18412833495164720891
200 152 17489861614343986445
21033648 29 17488723611419731952
21065198 57 18339642239892461780
21065201 7 18338230475636520416
21267235 1 18409737269724545305
22122407 14 15985110734086886691
221490 88 18341614858294681064
23402539 116 18261387871202833654
23557571 272 18271811181336620388
23559900 14 18412255151484586480
26918003 58 18273213101421336048
283562 15 18197212556557294529
335352 9 18410291407202063341
3421961 26 17907301310230129347
350125 39 18341332288375921776
4073 2 18410576154906670266
4214541 1 18339080389303183048
5104073 3 18271803455106725730
67856867 119 18188214316245474868
77188 2 18121500426164878365
7970288 3 18121779701581042835
9709674 26 18270685263970145590

> <PUBCHEM_SHAPE_MULTIPOLES>
433.79
12.86
3.46
0.7
17.99
0.9
0
4.38
-1.42
-6.64
-0.05
0.33
0.05
0.91

> <PUBCHEM_SHAPE_SELFOVERLAP>
966.077

> <PUBCHEM_SHAPE_VOLUME>
238.3

> <PUBCHEM_COORDINATE_TYPE>
2
5
10

$$$$
