49830946
  -OEChem-10052120443D

 22 23  0     0  0  0  0  0  0999 V2000
   -0.4454   -2.4337   -0.5535 O   0  0  0  0  0  0  0  0  0  0  0  0
   -1.1770    1.7885   -0.2366 N   0  0  0  0  0  0  0  0  0  0  0  0
   -2.0984   -1.1046    0.2476 N   0  0  0  0  0  0  0  0  0  0  0  0
    1.0996    1.9775   -0.0422 N   0  0  0  0  0  0  0  0  0  0  0  0
    2.6166    0.1369    0.1422 N   0  0  0  0  0  0  0  0  0  0  0  0
    1.8541   -2.0464    0.2121 N   0  0  0  0  0  0  0  0  0  0  0  0
   -2.4938    1.2103   -0.3242 C   0  0  0  0  0  0  0  0  0  0  0  0
   -2.6740    0.1332    0.7201 C   0  0  0  0  0  0  0  0  0  0  0  0
    0.2197   -0.2413   -0.0580 C   0  0  0  0  0  0  0  0  0  0  0  0
    0.0267    1.1397   -0.1141 C   0  0  0  0  0  0  0  0  0  0  0  0
   -0.7969   -1.3256   -0.1432 C   0  0  0  0  0  0  0  0  0  0  0  0
    1.5437   -0.6722    0.0687 C   0  0  0  0  0  0  0  0  0  0  0  0
    2.3251    1.4378    0.0810 C   0  0  0  0  0  0  0  0  0  0  0  0
   -2.6712    0.8301   -1.3371 H   0  0  0  0  0  0  0  0  0  0  0  0
   -3.2239    2.0079   -0.1469 H   0  0  0  0  0  0  0  0  0  0  0  0
   -2.2175    0.3913    1.6818 H   0  0  0  0  0  0  0  0  0  0  0  0
   -3.7393   -0.0602    0.8831 H   0  0  0  0  0  0  0  0  0  0  0  0
   -1.1203    2.8011   -0.2739 H   0  0  0  0  0  0  0  0  0  0  0  0
   -2.7233   -1.9035    0.1957 H   0  0  0  0  0  0  0  0  0  0  0  0
    3.1560    2.1297    0.1358 H   0  0  0  0  0  0  0  0  0  0  0  0
    1.1935   -2.6427    0.6948 H   0  0  0  0  0  0  0  0  0  0  0  0
    2.8365   -2.2770    0.3020 H   0  0  0  0  0  0  0  0  0  0  0  0
  1 11  2  0  0  0  0
  2  7  1  0  0  0  0
  2 10  1  0  0  0  0
  2 18  1  0  0  0  0
  3  8  1  0  0  0  0
  3 11  1  0  0  0  0
  3 19  1  0  0  0  0
  4 10  2  0  0  0  0
  4 13  1  0  0  0  0
  5 12  1  0  0  0  0
  5 13  2  0  0  0  0
  6 12  1  0  0  0  0
  6 21  1  0  0  0  0
  6 22  1  0  0  0  0
  7  8  1  0  0  0  0
  7 14  1  0  0  0  0
  7 15  1  0  0  0  0
  8 16  1  0  0  0  0
  8 17  1  0  0  0  0
  9 10  1  0  0  0  0
  9 11  1  0  0  0  0
  9 12  2  0  0  0  0
 13 20  1  0  0  0  0
M  END
> <PUBCHEM_COMPOUND_CID>
49830946

> <PUBCHEM_CONFORMER_RMSD>
0.4

> <PUBCHEM_CONFORMER_DIVERSEORDER>
1
2

> <PUBCHEM_MMFF94_PARTIAL_CHARGES>
18
1 -0.57
10 0.41
11 0.54
12 0.41
13 0.47
18 0.4
19 0.37
2 -0.87
20 0.15
21 0.4
22 0.4
3 -0.73
4 -0.62
5 -0.62
6 -0.9
7 0.37
8 0.3
9 0.09

> <PUBCHEM_EFFECTIVE_ROTOR_COUNT>
0.8

> <PUBCHEM_PHARMACOPHORE_FEATURES>
9
1 1 acceptor
1 2 donor
1 3 donor
1 6 cation
1 6 donor
3 2 4 10 cation
3 4 5 13 cation
6 4 5 9 10 12 13 rings
7 2 3 7 8 9 10 11 rings

> <PUBCHEM_HEAVY_ATOM_COUNT>
13

> <PUBCHEM_ATOM_DEF_STEREO_COUNT>
0

> <PUBCHEM_ATOM_UDEF_STEREO_COUNT>
0

> <PUBCHEM_BOND_DEF_STEREO_COUNT>
0

> <PUBCHEM_BOND_UDEF_STEREO_COUNT>
0

> <PUBCHEM_ISOTOPIC_ATOM_COUNT>
0

> <PUBCHEM_COMPONENT_COUNT>
1

> <PUBCHEM_CACTVS_TAUTO_COUNT>
22

> <PUBCHEM_CONFORMER_ID>
02F85C2200000001

> <PUBCHEM_MMFF94_ENERGY>
58.1211

> <PUBCHEM_FEATURE_SELFOVERLAP>
45.811

> <PUBCHEM_SHAPE_FINGERPRINT>
10967382 1 18410573976582635053
12382932 28 18340762723602866960
12423570 1 15518946708797027837
12524768 44 18338801108885630871
15775835 57 18339935920876109953
16945 1 18410008879182599468
17990270 104 18265051340640411001
18185500 45 17762900274330909231
193761 8 18410852204717271646
20588541 1 17617099109638207221
21040471 1 18411699915281528300
2334 1 18410855421489325884
23552423 10 18261675977445473612
23559900 14 17838059209384796118
241688 4 16538766163256865347
2748010 2 18265893558020773340
2897 32 18336828718100795636
5084963 1 18059568058011775475
5255222 1 18339637944550820808
528886 8 18122621918738520906
63268167 104 18411703162218652153
66348 1 18194401095674131889

> <PUBCHEM_SHAPE_MULTIPOLES>
236.76
3.62
2.38
0.66
0.39
0.54
0.02
-0.64
0.45
-0.32
-0.25
0.16
0.02
0.05

> <PUBCHEM_SHAPE_SELFOVERLAP>
509.029

> <PUBCHEM_SHAPE_VOLUME>
127.3

> <PUBCHEM_COORDINATE_TYPE>
2
5
10

$$$$
