53257410
  -OEChem-10052115143D

 32 35  0     0  0  0  0  0  0999 V2000
   -3.7668   -0.1672    0.0002 O   0  0  0  0  0  0  0  0  0  0  0  0
   -2.8014    2.2855    0.0000 O   0  0  0  0  0  0  0  0  0  0  0  0
   -2.3172   -1.9722   -0.0002 O   0  0  0  0  0  0  0  0  0  0  0  0
   -0.4636    2.3609    0.0002 N   0  0  0  0  0  0  0  0  0  0  0  0
    2.0411   -0.1561    0.0000 C   0  0  0  0  0  0  0  0  0  0  0  0
    0.8786   -0.9266    0.0002 C   0  0  0  0  0  0  0  0  0  0  0  0
   -0.2038    0.0292    0.0004 C   0  0  0  0  0  0  0  0  0  0  0  0
    1.8037    1.2152   -0.0001 C   0  0  0  0  0  0  0  0  0  0  0  0
    0.3647    1.3781    0.0001 C   0  0  0  0  0  0  0  0  0  0  0  0
    3.3251   -0.6952   -0.0001 C   0  0  0  0  0  0  0  0  0  0  0  0
   -1.5126    0.2573    0.0005 C   0  0  0  0  0  0  0  0  0  0  0  0
    0.9579   -2.3032    0.0003 C   0  0  0  0  0  0  0  0  0  0  0  0
    2.8321    2.1306   -0.0005 C   0  0  0  0  0  0  0  0  0  0  0  0
    3.4070   -2.1024   -0.0001 C   0  0  0  0  0  0  0  0  0  0  0  0
    4.3911    0.2308   -0.0001 C   0  0  0  0  0  0  0  0  0  0  0  0
   -1.7071    1.7424    0.0003 C   0  0  0  0  0  0  0  0  0  0  0  0
    2.2341   -2.8887    0.0000 C   0  0  0  0  0  0  0  0  0  0  0  0
    4.1390    1.6223   -0.0003 C   0  0  0  0  0  0  0  0  0  0  0  0
   -2.5435   -0.7648    0.0002 C   0  0  0  0  0  0  0  0  0  0  0  0
   -4.8940   -1.0495   -0.0005 C   0  0  0  0  0  0  0  0  0  0  0  0
   -6.1645   -0.2265   -0.0005 C   0  0  0  0  0  0  0  0  0  0  0  0
    0.0753   -2.9312    0.0004 H   0  0  0  0  0  0  0  0  0  0  0  0
    2.6494    3.1986   -0.0007 H   0  0  0  0  0  0  0  0  0  0  0  0
    4.3762   -2.5952   -0.0001 H   0  0  0  0  0  0  0  0  0  0  0  0
    5.4203   -0.1204    0.0000 H   0  0  0  0  0  0  0  0  0  0  0  0
    2.3231   -3.9725    0.0000 H   0  0  0  0  0  0  0  0  0  0  0  0
    4.9796    2.3122   -0.0004 H   0  0  0  0  0  0  0  0  0  0  0  0
   -4.8612   -1.6816   -0.8949 H   0  0  0  0  0  0  0  0  0  0  0  0
   -4.8617   -1.6824    0.8932 H   0  0  0  0  0  0  0  0  0  0  0  0
   -6.2016    0.4245    0.8792 H   0  0  0  0  0  0  0  0  0  0  0  0
   -6.2011    0.4253   -0.8797 H   0  0  0  0  0  0  0  0  0  0  0  0
   -7.0481   -0.8707   -0.0011 H   0  0  0  0  0  0  0  0  0  0  0  0
  1 19  1  0  0  0  0
  1 20  1  0  0  0  0
  2 16  2  0  0  0  0
  3 19  2  0  0  0  0
  4  9  2  0  0  0  0
  4 16  1  0  0  0  0
  5  6  1  0  0  0  0
  5  8  1  0  0  0  0
  5 10  2  0  0  0  0
  6  7  1  0  0  0  0
  6 12  2  0  0  0  0
  7  9  1  0  0  0  0
  7 11  2  0  0  0  0
  8  9  1  0  0  0  0
  8 13  2  0  0  0  0
 10 14  1  0  0  0  0
 10 15  1  0  0  0  0
 11 16  1  0  0  0  0
 11 19  1  0  0  0  0
 12 17  1  0  0  0  0
 12 22  1  0  0  0  0
 13 18  1  0  0  0  0
 13 23  1  0  0  0  0
 14 17  2  0  0  0  0
 14 24  1  0  0  0  0
 15 18  2  0  0  0  0
 15 25  1  0  0  0  0
 17 26  1  0  0  0  0
 18 27  1  0  0  0  0
 20 21  1  0  0  0  0
 20 28  1  0  0  0  0
 20 29  1  0  0  0  0
 21 30  1  0  0  0  0
 21 31  1  0  0  0  0
 21 32  1  0  0  0  0
M  END
> <PUBCHEM_COMPOUND_CID>
53257410

> <PUBCHEM_CONFORMER_RMSD>
0.6

> <PUBCHEM_CONFORMER_DIVERSEORDER>
1
6
7
10
11
4
5
2
3
8
9

> <PUBCHEM_MMFF94_PARTIAL_CHARGES>
24
1 -0.43
11 0.03
12 -0.15
13 -0.15
14 -0.15
15 -0.15
16 0.77
17 -0.15
18 -0.15
19 0.71
2 -0.57
20 0.28
22 0.15
23 0.15
24 0.15
25 0.15
26 0.15
27 0.15
3 -0.57
4 -0.66
6 0.03
7 -0.01
8 0.09
9 0.35

> <PUBCHEM_EFFECTIVE_ROTOR_COUNT>
3

> <PUBCHEM_PHARMACOPHORE_FEATURES>
8
1 2 acceptor
1 3 acceptor
1 4 acceptor
1 4 donor
5 4 7 9 11 16 rings
5 5 6 7 8 9 rings
6 5 6 10 12 14 17 rings
6 5 8 10 13 15 18 rings

> <PUBCHEM_HEAVY_ATOM_COUNT>
21

> <PUBCHEM_ATOM_DEF_STEREO_COUNT>
0

> <PUBCHEM_ATOM_UDEF_STEREO_COUNT>
0

> <PUBCHEM_BOND_DEF_STEREO_COUNT>
0

> <PUBCHEM_BOND_UDEF_STEREO_COUNT>
0

> <PUBCHEM_ISOTOPIC_ATOM_COUNT>
0

> <PUBCHEM_COMPONENT_COUNT>
1

> <PUBCHEM_CACTVS_TAUTO_COUNT>
1

> <PUBCHEM_CONFORMER_ID>
032CA4C200000001

> <PUBCHEM_MMFF94_ENERGY>
76.3439

> <PUBCHEM_FEATURE_SELFOVERLAP>
41.154

> <PUBCHEM_SHAPE_FINGERPRINT>
10411042 1 18122626042261585606
10616163 171 18411703200841916966
10906281 52 18189071913375735305
10967382 1 18410856590100225510
1100329 8 18051409866623265896
11471102 20 18410291440738485335
11578080 2 17097198438411924222
12107183 9 17766570049524230793
12236239 1 17775006812644993631
12553582 1 18341037601625920255
12838862 33 18267847527643617452
13140716 1 18050277365493822106
14178342 30 18123174728675076880
14223421 5 18337952294709828036
14790565 3 17905052804129391501
15196674 1 18338517439101387173
15442244 35 18195246603278803488
15536298 74 18342176640016783430
16945 1 18122061992869506080
17492 89 18267020561682112963
1813 80 17385730192561188261
19591789 44 17761778764033578390
200 152 18273210902899344105
20645477 70 18409164407113517255
20691752 17 17458916915983787296
21033650 10 15430876476057746799
21197605 99 18050576436894548499
21267235 1 18411144606096220478
21279426 13 18263922143079802861
21421861 104 18188202109383735523
21501502 16 18338801100406498552
221490 88 18337678503509075458
2334 1 18410855469261584236
23366157 5 18041284258227336430
23402539 116 18198336450106969142
23558518 356 18189906322553039241
23559900 14 18196363715724925354
23566358 2 18337667516713330575
2748010 2 18410011031462439708
2871803 45 18409167705511081598
335352 9 18410856594632764950
33824 294 18409447011877525890
34934 24 18340764948485713727
350125 39 18410292545173126604
42630746 31 18413388761036716054
46194498 28 17534322712624416407
5104073 3 18339641127147637009
5283173 99 18042393652501495277
5486654 2 18267590285352464908
59755656 215 18409452488055787046
7364860 26 18412826854981828734
8272917 22 18412267245990932367
9709674 26 18337958895848254275

> <PUBCHEM_SHAPE_MULTIPOLES>
409.58
9.36
2.89
0.6
11.3
0.43
0
0.96
0
-1.61
0
-0.04
0.01
0

> <PUBCHEM_SHAPE_SELFOVERLAP>
940.807

> <PUBCHEM_SHAPE_VOLUME>
214.1

> <PUBCHEM_COORDINATE_TYPE>
2
5
10

$$$$
