44565014
  -OEChem-10062122033D

 60 65  0     0  0  0  0  0  0999 V2000
    4.6217   -2.4759    0.3703 S   0  0  0  0  0  0  0  0  0  0  0  0
   -6.5209   -1.6509   -0.4306 O   0  0  0  0  0  0  0  0  0  0  0  0
   -7.0688    0.9517   -1.2343 O   0  0  0  0  0  0  0  0  0  0  0  0
   -1.6514   -1.5963    1.0068 N   0  0  0  0  0  0  0  0  0  0  0  0
   -1.0188    0.6410    0.6464 N   0  0  0  0  0  0  0  0  0  0  0  0
   -2.5990    2.2418   -0.2180 N   0  0  0  0  0  0  0  0  0  0  0  0
   -0.3953    2.8703    0.2869 N   0  0  0  0  0  0  0  0  0  0  0  0
    3.1222   -0.7933   -0.8838 N   0  0  0  0  0  0  0  0  0  0  0  0
    2.8494    2.2973    1.3927 N   0  0  0  0  0  0  0  0  0  0  0  0
    1.6248    1.7996    1.1499 N   0  0  0  0  0  0  0  0  0  0  0  0
   -3.2842   -0.0291    0.1353 C   0  0  0  0  0  0  0  0  0  0  0  0
   -1.9920   -0.2871    0.5842 C   0  0  0  0  0  0  0  0  0  0  0  0
   -3.5477    1.2903   -0.2673 C   0  0  0  0  0  0  0  0  0  0  0  0
   -0.4452   -2.3140    0.9877 C   0  0  0  0  0  0  0  0  0  0  0  0
   -4.2840   -1.0157    0.0795 C   0  0  0  0  0  0  0  0  0  0  0  0
    1.9086   -2.4366    0.4563 C   0  0  0  0  0  0  0  0  0  0  0  0
   -4.8300    1.5871   -0.7227 C   0  0  0  0  0  0  0  0  0  0  0  0
   -5.5566   -0.6914   -0.3798 C   0  0  0  0  0  0  0  0  0  0  0  0
   -5.8296    0.6116   -0.7812 C   0  0  0  0  0  0  0  0  0  0  0  0
    0.7099   -1.7234    0.4749 C   0  0  0  0  0  0  0  0  0  0  0  0
   -1.3863    1.8656    0.2361 C   0  0  0  0  0  0  0  0  0  0  0  0
    3.1032   -1.8261   -0.0738 C   0  0  0  0  0  0  0  0  0  0  0  0
   -0.4015   -3.6177    1.4819 C   0  0  0  0  0  0  0  0  0  0  0  0
    1.9522   -3.7404    0.9505 C   0  0  0  0  0  0  0  0  0  0  0  0
    0.7973   -4.3308    1.4635 C   0  0  0  0  0  0  0  0  0  0  0  0
    5.4042   -1.2830   -0.5980 C   0  0  0  0  0  0  0  0  0  0  0  0
    4.4352   -0.4699   -1.1935 C   0  0  0  0  0  0  0  0  0  0  0  0
    0.9522    2.8589    0.6922 C   0  0  0  0  0  0  0  0  0  0  0  0
    1.7412    4.0239    0.6429 C   0  0  0  0  0  0  0  0  0  0  0  0
    6.7768   -1.0814   -0.8151 C   0  0  0  0  0  0  0  0  0  0  0  0
    4.8575    0.5818   -2.0355 C   0  0  0  0  0  0  0  0  0  0  0  0
    2.9714    3.6252    1.1059 C   0  0  0  0  0  0  0  0  0  0  0  0
    7.1678   -0.0338   -1.6528 C   0  0  0  0  0  0  0  0  0  0  0  0
    6.2223    0.7882   -2.2560 C   0  0  0  0  0  0  0  0  0  0  0  0
    4.2325    4.3575    1.3035 C   0  0  0  0  0  0  0  0  0  0  0  0
   -6.6280   -2.3996   -1.6405 C   0  0  0  0  0  0  0  0  0  0  0  0
   -8.0113    1.4046   -0.2644 C   0  0  0  0  0  0  0  0  0  0  0  0
   -2.3979   -2.0787    1.4972 H   0  0  0  0  0  0  0  0  0  0  0  0
   -4.0986   -2.0443    0.3763 H   0  0  0  0  0  0  0  0  0  0  0  0
   -5.0618    2.6022   -1.0420 H   0  0  0  0  0  0  0  0  0  0  0  0
    0.7058   -0.7303    0.0451 H   0  0  0  0  0  0  0  0  0  0  0  0
   -1.2941   -4.0911    1.8828 H   0  0  0  0  0  0  0  0  0  0  0  0
    2.8440   -4.3596    0.9408 H   0  0  0  0  0  0  0  0  0  0  0  0
    0.8288   -5.3481    1.8428 H   0  0  0  0  0  0  0  0  0  0  0  0
   -0.7745    3.7564   -0.0428 H   0  0  0  0  0  0  0  0  0  0  0  0
    1.4615    5.0161    0.3179 H   0  0  0  0  0  0  0  0  0  0  0  0
    7.5206   -1.7191   -0.3474 H   0  0  0  0  0  0  0  0  0  0  0  0
    4.1272    1.2306   -2.5107 H   0  0  0  0  0  0  0  0  0  0  0  0
    8.2253    0.1396   -1.8340 H   0  0  0  0  0  0  0  0  0  0  0  0
    6.5451    1.5984   -2.9040 H   0  0  0  0  0  0  0  0  0  0  0  0
    3.5575    1.6699    1.7535 H   0  0  0  0  0  0  0  0  0  0  0  0
    4.1300    5.4069    1.0090 H   0  0  0  0  0  0  0  0  0  0  0  0
    4.5355    4.3314    2.3552 H   0  0  0  0  0  0  0  0  0  0  0  0
    5.0349    3.9166    0.7030 H   0  0  0  0  0  0  0  0  0  0  0  0
   -6.8578   -1.7396   -2.4829 H   0  0  0  0  0  0  0  0  0  0  0  0
   -5.7011   -2.9486   -1.8346 H   0  0  0  0  0  0  0  0  0  0  0  0
   -7.4437   -3.1188   -1.5269 H   0  0  0  0  0  0  0  0  0  0  0  0
   -8.1994    0.6270    0.4827 H   0  0  0  0  0  0  0  0  0  0  0  0
   -7.6514    2.3158    0.2237 H   0  0  0  0  0  0  0  0  0  0  0  0
   -8.9498    1.6302   -0.7780 H   0  0  0  0  0  0  0  0  0  0  0  0
  1 22  1  0  0  0  0
  1 26  1  0  0  0  0
  2 18  1  0  0  0  0
  2 36  1  0  0  0  0
  3 19  1  0  0  0  0
  3 37  1  0  0  0  0
  4 12  1  0  0  0  0
  4 14  1  0  0  0  0
  4 38  1  0  0  0  0
  5 12  2  0  0  0  0
  5 21  1  0  0  0  0
  6 13  1  0  0  0  0
  6 21  2  0  0  0  0
  7 21  1  0  0  0  0
  7 28  1  0  0  0  0
  7 45  1  0  0  0  0
  8 22  2  0  0  0  0
  8 27  1  0  0  0  0
  9 10  1  0  0  0  0
  9 32  1  0  0  0  0
  9 51  1  0  0  0  0
 10 28  2  0  0  0  0
 11 12  1  0  0  0  0
 11 13  1  0  0  0  0
 11 15  2  0  0  0  0
 13 17  2  0  0  0  0
 14 20  1  0  0  0  0
 14 23  2  0  0  0  0
 15 18  1  0  0  0  0
 15 39  1  0  0  0  0
 16 20  2  0  0  0  0
 16 22  1  0  0  0  0
 16 24  1  0  0  0  0
 17 19  1  0  0  0  0
 17 40  1  0  0  0  0
 18 19  2  0  0  0  0
 20 41  1  0  0  0  0
 23 25  1  0  0  0  0
 23 42  1  0  0  0  0
 24 25  2  0  0  0  0
 24 43  1  0  0  0  0
 25 44  1  0  0  0  0
 26 27  1  0  0  0  0
 26 30  2  0  0  0  0
 27 31  2  0  0  0  0
 28 29  1  0  0  0  0
 29 32  2  0  0  0  0
 29 46  1  0  0  0  0
 30 33  1  0  0  0  0
 30 47  1  0  0  0  0
 31 34  1  0  0  0  0
 31 48  1  0  0  0  0
 32 35  1  0  0  0  0
 33 34  2  0  0  0  0
 33 49  1  0  0  0  0
 34 50  1  0  0  0  0
 35 52  1  0  0  0  0
 35 53  1  0  0  0  0
 35 54  1  0  0  0  0
 36 55  1  0  0  0  0
 36 56  1  0  0  0  0
 36 57  1  0  0  0  0
 37 58  1  0  0  0  0
 37 59  1  0  0  0  0
 37 60  1  0  0  0  0
M  END
> <PUBCHEM_COMPOUND_CID>
44565014

> <PUBCHEM_CONFORMER_RMSD>
1

> <PUBCHEM_CONFORMER_DIVERSEORDER>
1
151
11
40
225
106
70
63
115
34
148
125
61
168
165
77
215
166
117
135
60
53
145
209
222
122
10
98
156
193
130
141
185
107
184
220
114
206
30
79
207
64
192
6
174
128
161
218
104
81
202
55
116
187
8
28
143
94
37
97
31
42
175
36
170
208
108
99
154
205
152
212
159
133
190
118
67
129
216
136
101
183
178
38
126
88
197
105
39
137
211
173
68
103
186
131
41
189
27
102
65
150
80
149
201
146
110
72
127
23
164
223
66
199
12
219
213
139
83
33
111
182
214
9
198
123
132
52
196
203
217
142
21
180
35
22
181
204
124
48
167
191
2
25
59
16
46
90
162
224
177
221
96
71
169
194
179
147
140
32
45
121
75
200
29
43
56
84
26
51
113
172
112
95
160
155
188
158
62
44
92
49
82
134
69
17
76
163
5
119
153
144
89
74
100
57
47
210
15
171
78
138
50
58
19
120
87
91
195
20
176
73
157
93
14
3
18
54
85
7
4
109
86
13
24

> <PUBCHEM_MMFF94_PARTIAL_CHARGES>
50
1 -0.08
10 -0.71
12 0.41
13 0.31
14 0.1
15 -0.15
16 0.05
17 -0.15
18 0.08
19 0.08
2 -0.36
20 -0.15
21 0.72
22 0.33
23 -0.15
24 -0.15
25 -0.15
26 0.04
27 0.23
28 0.37
29 -0.15
3 -0.36
30 -0.15
31 -0.15
32 -0.33
33 -0.15
34 -0.15
35 0.18
36 0.28
37 0.28
38 0.4
39 0.15
4 -0.6
40 0.15
41 0.15
42 0.15
43 0.15
44 0.15
45 0.4
46 0.15
47 0.15
48 0.15
49 0.15
5 -0.62
50 0.15
51 0.27
6 -0.62
7 -0.58
8 -0.57
9 0.3

> <PUBCHEM_EFFECTIVE_ROTOR_COUNT>
7

> <PUBCHEM_PHARMACOPHORE_FEATURES>
13
1 2 acceptor
1 3 acceptor
1 4 donor
1 7 donor
1 8 acceptor
1 9 donor
4 5 6 7 21 cation
5 1 8 22 26 27 rings
5 9 10 28 29 32 rings
6 11 13 15 17 18 19 rings
6 14 16 20 23 24 25 rings
6 26 27 30 31 33 34 rings
6 5 6 11 12 13 21 rings

> <PUBCHEM_HEAVY_ATOM_COUNT>
37

> <PUBCHEM_ATOM_DEF_STEREO_COUNT>
0

> <PUBCHEM_ATOM_UDEF_STEREO_COUNT>
0

> <PUBCHEM_BOND_DEF_STEREO_COUNT>
0

> <PUBCHEM_BOND_UDEF_STEREO_COUNT>
0

> <PUBCHEM_ISOTOPIC_ATOM_COUNT>
0

> <PUBCHEM_COMPONENT_COUNT>
1

> <PUBCHEM_CACTVS_TAUTO_COUNT>
75

> <PUBCHEM_CONFORMER_ID>
02A8021600000001

> <PUBCHEM_MMFF94_ENERGY>
132.7744

> <PUBCHEM_FEATURE_SELFOVERLAP>
66.081

> <PUBCHEM_SHAPE_FINGERPRINT>
10032420 55 18336263445129496380
10864689 126 18410856546871354510
11135609 187 18186524284904817613
11146851 88 18335144185711202092
11204353 107 18268711786886359446
11621639 179 17971742274244294077
12107698 1 18060140937692396845
12124843 1 18337966635853667350
12202916 173 18272654541768939142
12522641 33 18195517315052250185
13617811 41 18114181925729673925
13947947 74 18411145735952473460
14068700 675 18202001001850542040
14725015 67 18339068316672302088
14767858 380 18335420175313796407
14931854 50 18337123289092116910
14932702 115 18048629137782929828
15160630 1 18338249240834349273
15351339 4 18335705980197238154
15439362 3 18267864059332046736
15890870 6 18260274031976011286
15927050 60 18124305262440629507
16067689 134 17911250420790081833
17492 54 18336557044714208330
18608769 82 18041293136030473235
19319366 153 18261110712579383686
20609170 92 18050577532480149268
20642791 35 18412257342228604659
20775438 99 18055337291919266622
21049683 271 18333734594482625437
23522609 53 18126577709027146937
23559900 14 18261395589333392157
3534868 343 17904198135728619175
484989 97 18262812876764003202
5776283 40 18336552719882860888
6371009 1 18187649068489285486
6669772 16 18268138941058424720

> <PUBCHEM_SHAPE_MULTIPOLES>
718.69
18.25
5.47
1.6
15.63
1.19
0.45
0.64
12.57
-4.22
-3.54
-1.82
-0.02
0.57

> <PUBCHEM_SHAPE_SELFOVERLAP>
1593.737

> <PUBCHEM_SHAPE_VOLUME>
388

> <PUBCHEM_COORDINATE_TYPE>
2
5
10

$$$$
