44427519
  -OEChem-10062122003D

 78 83  0     0  0  0  0  0  0999 V2000
   -9.5805   -4.3972    0.6117 O   0  0  0  0  0  0  0  0  0  0  0  0
   -4.4875    3.2232    0.5113 O   0  0  0  0  0  0  0  0  0  0  0  0
    1.8275    1.2411    3.8174 O   0  0  0  0  0  0  0  0  0  0  0  0
    7.8966   -2.8022   -2.4744 O   0  0  0  0  0  0  0  0  0  0  0  0
   -7.5425   -2.5319    0.0956 N   0  0  0  0  0  0  0  0  0  0  0  0
   -3.8816    1.5613   -1.0208 N   0  0  0  0  0  0  0  0  0  0  0  0
    2.4675    1.1299   -0.4802 N   0  0  0  0  0  0  0  0  0  0  0  0
    0.7880    1.8444    1.9382 N   0  0  0  0  0  0  0  0  0  0  0  0
   10.2677   -2.7000   -0.9629 N   0  0  0  0  0  0  0  0  0  0  0  0
   -2.6182    3.6687   -1.0143 C   0  0  0  0  0  0  0  0  0  0  0  0
   -1.2927    3.0065   -0.8566 C   0  0  0  0  0  0  0  0  0  0  0  0
   -2.6050    5.0456   -0.2775 C   0  0  0  0  0  0  0  0  0  0  0  0
   -3.0581    3.9957   -2.4815 C   0  0  0  0  0  0  0  0  0  0  0  0
   -3.7848    2.8093   -0.4084 C   0  0  0  0  0  0  0  0  0  0  0  0
   -0.8036    2.7042    0.4118 C   0  0  0  0  0  0  0  0  0  0  0  0
    0.4491    2.0760    0.5994 C   0  0  0  0  0  0  0  0  0  0  0  0
   -0.5343    2.6851   -1.9669 C   0  0  0  0  0  0  0  0  0  0  0  0
    1.2183    1.7492   -0.5099 C   0  0  0  0  0  0  0  0  0  0  0  0
   -8.4213   -2.9909   -0.9889 C   0  0  0  0  0  0  0  0  0  0  0  0
   -8.0938   -2.6718    1.4477 C   0  0  0  0  0  0  0  0  0  0  0  0
   -6.6287   -1.5102   -0.1830 C   0  0  0  0  0  0  0  0  0  0  0  0
    0.7018    2.0659   -1.7913 C   0  0  0  0  0  0  0  0  0  0  0  0
   -8.9492   -4.3848   -0.6686 C   0  0  0  0  0  0  0  0  0  0  0  0
   -8.6402   -4.0825    1.6381 C   0  0  0  0  0  0  0  0  0  0  0  0
   -4.8064    0.5277   -0.7388 C   0  0  0  0  0  0  0  0  0  0  0  0
    3.3061    0.6648    0.5362 C   0  0  0  0  0  0  0  0  0  0  0  0
    3.0612    0.7200    1.9088 C   0  0  0  0  0  0  0  0  0  0  0  0
   -5.6581   -1.6921   -1.1680 C   0  0  0  0  0  0  0  0  0  0  0  0
   -6.6882   -0.3093    0.5242 C   0  0  0  0  0  0  0  0  0  0  0  0
   -4.7470   -0.6731   -1.4461 C   0  0  0  0  0  0  0  0  0  0  0  0
   -5.7770    0.7096    0.2463 C   0  0  0  0  0  0  0  0  0  0  0  0
    1.8628    1.2819    2.5808 C   0  0  0  0  0  0  0  0  0  0  0  0
    4.5252    0.0814    0.0977 C   0  0  0  0  0  0  0  0  0  0  0  0
    5.4737   -0.4314    0.9778 C   0  0  0  0  0  0  0  0  0  0  0  0
    4.0391    0.1924    2.7912 C   0  0  0  0  0  0  0  0  0  0  0  0
    5.2280   -0.3753    2.3346 C   0  0  0  0  0  0  0  0  0  0  0  0
    6.6992   -1.0133    0.4776 C   0  0  0  0  0  0  0  0  0  0  0  0
    6.7172   -1.6364   -0.7702 C   0  0  0  0  0  0  0  0  0  0  0  0
    7.8636   -0.9515    1.2431 C   0  0  0  0  0  0  0  0  0  0  0  0
    7.8995   -2.1978   -1.2527 C   0  0  0  0  0  0  0  0  0  0  0  0
    9.0459   -1.5132    0.7608 C   0  0  0  0  0  0  0  0  0  0  0  0
    9.0639   -2.1361   -0.4871 C   0  0  0  0  0  0  0  0  0  0  0  0
    8.1969   -1.9830   -3.6023 C   0  0  0  0  0  0  0  0  0  0  0  0
   -3.5550    5.5771   -0.4113 H   0  0  0  0  0  0  0  0  0  0  0  0
   -1.8045    5.6887   -0.6624 H   0  0  0  0  0  0  0  0  0  0  0  0
   -2.4542    4.9392    0.8027 H   0  0  0  0  0  0  0  0  0  0  0  0
   -4.0590    4.4447   -2.4963 H   0  0  0  0  0  0  0  0  0  0  0  0
   -3.1071    3.1021   -3.1137 H   0  0  0  0  0  0  0  0  0  0  0  0
   -2.3704    4.7070   -2.9540 H   0  0  0  0  0  0  0  0  0  0  0  0
   -1.4080    2.9468    1.2854 H   0  0  0  0  0  0  0  0  0  0  0  0
   -0.8509    2.8917   -2.9828 H   0  0  0  0  0  0  0  0  0  0  0  0
   -7.9063   -3.0232   -1.9551 H   0  0  0  0  0  0  0  0  0  0  0  0
   -9.2590   -2.2883   -1.0785 H   0  0  0  0  0  0  0  0  0  0  0  0
   -8.9075   -1.9485    1.5823 H   0  0  0  0  0  0  0  0  0  0  0  0
   -7.3288   -2.4864    2.2110 H   0  0  0  0  0  0  0  0  0  0  0  0
    1.2804    1.8229   -2.6823 H   0  0  0  0  0  0  0  0  0  0  0  0
   -3.2130    1.3417   -1.7553 H   0  0  0  0  0  0  0  0  0  0  0  0
   -9.6941   -4.6821   -1.4135 H   0  0  0  0  0  0  0  0  0  0  0  0
   -8.1453   -5.1305   -0.6862 H   0  0  0  0  0  0  0  0  0  0  0  0
   -7.8345   -4.8267    1.6345 H   0  0  0  0  0  0  0  0  0  0  0  0
   -9.1553   -4.1566    2.6011 H   0  0  0  0  0  0  0  0  0  0  0  0
    2.8526    0.9832   -1.4100 H   0  0  0  0  0  0  0  0  0  0  0  0
    0.0801    2.1634    2.5974 H   0  0  0  0  0  0  0  0  0  0  0  0
   -5.5870   -2.6256   -1.7204 H   0  0  0  0  0  0  0  0  0  0  0  0
   -7.4406   -0.1290    1.2870 H   0  0  0  0  0  0  0  0  0  0  0  0
   -3.9937   -0.8288   -2.2141 H   0  0  0  0  0  0  0  0  0  0  0  0
   -5.8930    1.6110    0.8309 H   0  0  0  0  0  0  0  0  0  0  0  0
    4.7169    0.0782   -0.9755 H   0  0  0  0  0  0  0  0  0  0  0  0
    3.8931    0.2053    3.8701 H   0  0  0  0  0  0  0  0  0  0  0  0
    5.9094   -0.7817    3.0764 H   0  0  0  0  0  0  0  0  0  0  0  0
    5.8238   -1.7340   -1.3819 H   0  0  0  0  0  0  0  0  0  0  0  0
    7.9042   -0.4512    2.2068 H   0  0  0  0  0  0  0  0  0  0  0  0
    9.9482   -1.4529    1.3641 H   0  0  0  0  0  0  0  0  0  0  0  0
   11.1066   -2.6537   -0.4001 H   0  0  0  0  0  0  0  0  0  0  0  0
   10.2857   -3.1675   -1.8595 H   0  0  0  0  0  0  0  0  0  0  0  0
    8.1910   -2.6142   -4.4952 H   0  0  0  0  0  0  0  0  0  0  0  0
    9.1877   -1.5288   -3.5020 H   0  0  0  0  0  0  0  0  0  0  0  0
    7.4376   -1.2034   -3.7204 H   0  0  0  0  0  0  0  0  0  0  0  0
  1 23  1  0  0  0  0
  1 24  1  0  0  0  0
  2 14  2  0  0  0  0
  3 32  2  0  0  0  0
  4 40  1  0  0  0  0
  4 43  1  0  0  0  0
  5 19  1  0  0  0  0
  5 20  1  0  0  0  0
  5 21  1  0  0  0  0
  6 14  1  0  0  0  0
  6 25  1  0  0  0  0
  6 57  1  0  0  0  0
  7 18  1  0  0  0  0
  7 26  1  0  0  0  0
  7 62  1  0  0  0  0
  8 16  1  0  0  0  0
  8 32  1  0  0  0  0
  8 63  1  0  0  0  0
  9 42  1  0  0  0  0
  9 74  1  0  0  0  0
  9 75  1  0  0  0  0
 10 11  1  0  0  0  0
 10 12  1  0  0  0  0
 10 13  1  0  0  0  0
 10 14  1  0  0  0  0
 11 15  2  0  0  0  0
 11 17  1  0  0  0  0
 12 44  1  0  0  0  0
 12 45  1  0  0  0  0
 12 46  1  0  0  0  0
 13 47  1  0  0  0  0
 13 48  1  0  0  0  0
 13 49  1  0  0  0  0
 15 16  1  0  0  0  0
 15 50  1  0  0  0  0
 16 18  2  0  0  0  0
 17 22  2  0  0  0  0
 17 51  1  0  0  0  0
 18 22  1  0  0  0  0
 19 23  1  0  0  0  0
 19 52  1  0  0  0  0
 19 53  1  0  0  0  0
 20 24  1  0  0  0  0
 20 54  1  0  0  0  0
 20 55  1  0  0  0  0
 21 28  2  0  0  0  0
 21 29  1  0  0  0  0
 22 56  1  0  0  0  0
 23 58  1  0  0  0  0
 23 59  1  0  0  0  0
 24 60  1  0  0  0  0
 24 61  1  0  0  0  0
 25 30  2  0  0  0  0
 25 31  1  0  0  0  0
 26 27  2  0  0  0  0
 26 33  1  0  0  0  0
 27 32  1  0  0  0  0
 27 35  1  0  0  0  0
 28 30  1  0  0  0  0
 28 64  1  0  0  0  0
 29 31  2  0  0  0  0
 29 65  1  0  0  0  0
 30 66  1  0  0  0  0
 31 67  1  0  0  0  0
 33 34  2  0  0  0  0
 33 68  1  0  0  0  0
 34 36  1  0  0  0  0
 34 37  1  0  0  0  0
 35 36  2  0  0  0  0
 35 69  1  0  0  0  0
 36 70  1  0  0  0  0
 37 38  2  0  0  0  0
 37 39  1  0  0  0  0
 38 40  1  0  0  0  0
 38 71  1  0  0  0  0
 39 41  2  0  0  0  0
 39 72  1  0  0  0  0
 40 42  2  0  0  0  0
 41 42  1  0  0  0  0
 41 73  1  0  0  0  0
 43 76  1  0  0  0  0
 43 77  1  0  0  0  0
 43 78  1  0  0  0  0
M  END
> <PUBCHEM_COMPOUND_CID>
44427519

> <PUBCHEM_CONFORMER_RMSD>
1

> <PUBCHEM_CONFORMER_DIVERSEORDER>
1
53
67
78
106
58
139
159
153
138
123
29
44
43
104
134
10
34
158
88
108
99
59
80
55
66
112
126
172
169
147
19
95
154
72
75
69
65
82
110
25
47
41
137
6
149
28
120
54
11
113
100
133
122
173
93
9
76
128
142
36
7
109
63
144
38
152
32
168
129
165
85
148
96
31
98
157
33
119
162
5
8
60
62
73
107
170
97
49
164
84
146
118
136
140
130
87
101
61
4
89
20
116
105
27
26
150
124
45
102
94
143
115
127
17
35
23
160
14
24
42
145
16
151
163
117
79
13
161
103
114
57
22
52
155
30
46
70
86
40
56
141
50
132
48
18
166
3
167
131
37
21
135
74
81
12
15
125
171
39
71
68
83
91
64
111
156
121
2
77
51
90
92

> <PUBCHEM_MMFF94_PARTIAL_CHARGES>
57
1 -0.56
10 0.2
11 -0.14
14 0.57
15 -0.15
16 0.12
17 -0.15
18 0.1
19 0.37
2 -0.57
20 0.37
21 0.1
22 -0.15
23 0.28
24 0.28
25 0.12
26 0.1
27 0.09
28 -0.15
29 -0.15
3 -0.57
30 -0.15
31 -0.15
32 0.54
33 -0.15
35 -0.15
36 -0.15
38 -0.15
39 -0.15
4 -0.36
40 0.08
41 -0.15
42 0.1
43 0.28
5 -0.84
50 0.15
51 0.15
56 0.15
57 0.37
6 -0.55
62 0.4
63 0.37
64 0.15
65 0.15
66 0.15
67 0.15
68 0.15
69 0.15
7 -0.6
70 0.15
71 0.15
72 0.15
73 0.15
74 0.4
75 0.4
8 -0.55
9 -0.9

> <PUBCHEM_EFFECTIVE_ROTOR_COUNT>
8.6

> <PUBCHEM_PHARMACOPHORE_FEATURES>
18
1 1 acceptor
1 2 acceptor
1 3 acceptor
1 4 acceptor
1 5 cation
1 6 donor
1 7 cation
1 7 donor
1 8 donor
1 9 cation
1 9 donor
3 10 12 13 hydrophobe
6 1 5 19 20 23 24 rings
6 11 15 16 17 18 22 rings
6 21 25 28 29 30 31 rings
6 26 27 33 34 35 36 rings
6 37 38 39 40 41 42 rings
7 7 8 16 18 26 27 32 rings

> <PUBCHEM_HEAVY_ATOM_COUNT>
43

> <PUBCHEM_ATOM_DEF_STEREO_COUNT>
0

> <PUBCHEM_ATOM_UDEF_STEREO_COUNT>
0

> <PUBCHEM_BOND_DEF_STEREO_COUNT>
0

> <PUBCHEM_BOND_UDEF_STEREO_COUNT>
0

> <PUBCHEM_ISOTOPIC_ATOM_COUNT>
0

> <PUBCHEM_COMPONENT_COUNT>
1

> <PUBCHEM_CACTVS_TAUTO_COUNT>
126

> <PUBCHEM_CONFORMER_ID>
02A5E8FF00000001

> <PUBCHEM_MMFF94_ENERGY>
208.8543

> <PUBCHEM_FEATURE_SELFOVERLAP>
91.362

> <PUBCHEM_SHAPE_FINGERPRINT>
10258705 36 18200879466100523014
10280341 67 9655581799034170371
10952577 141 14997663411032823023
11181472 205 11527939081317874458
117089 54 18261113015351312979
11761917 116 18260264140344516754
12124843 1 16298652920335621091
12342043 65 18201708579039383697
13782708 43 18201141175489355248
14344974 204 18411981351661867863
15152005 1 18265331888828352327
15152005 77 18201433719045675191
15392192 29 17895203182327206753
16067689 68 18059868272812189643
16989713 51 18187360978799254965
16991971 28 18114460158559255563
19246450 95 14764067805333626777
19841028 212 18042398201193036777
208703 8 18188201109310261701
20982279 24 17274269332116367446
21792938 703 17968097585242103977
23523788 1 17846512439050405383
25242607 90 18338790234772437659
25269216 80 18334860481678237030
406291 66 18261951946970728867
4149490 64 18058719210552699794
437795 150 18337947905116069421
44280117 145 18336265648363700124
44880168 125 18200020867767179791
45377200 153 18336828589293884170
4756326 101 10809343360541897618
4760202 70 18041566952890994116
5372103 7 11458419128960383979
6058803 2 16085567399527676512
6201320 77 17632300042623289996
6289498 60 11023821799290101006
6691757 9 18267298722036594445
999808 66 17560510712775848868

> <PUBCHEM_SHAPE_MULTIPOLES>
836.54
34.12
6.1
2.78
10.15
0.87
0.42
-60.11
-6.49
-15.44
-2.08
5.12
-0.08
5.67

> <PUBCHEM_SHAPE_SELFOVERLAP>
1841.205

> <PUBCHEM_SHAPE_VOLUME>
447.2

> <PUBCHEM_COORDINATE_TYPE>
2
5
10

$$$$
