49830425
  -OEChem-10052115183D

 40 42  0     0  0  0  0  0  0999 V2000
   -8.6707   -1.3093    0.0590 Cl  0  0  0  0  0  0  0  0  0  0  0  0
    8.2084    0.5540   -0.3280 O   0  0  0  0  0  0  0  0  0  0  0  0
   -2.1778    1.2289   -0.0687 O   0  0  0  0  0  0  0  0  0  0  0  0
   -1.2899   -0.9393   -0.0870 N   0  0  0  0  0  0  0  0  0  0  0  0
    4.8552    0.0635   -1.3617 N   0  0  0  0  0  0  0  0  0  0  0  0
    6.1914    0.2696   -1.3866 N   0  0  0  0  0  0  0  0  0  0  0  0
   -3.5803   -0.6421   -0.0428 N   0  0  0  0  0  0  0  0  0  0  0  0
    2.8408   -0.2745   -0.1687 C   0  0  0  0  0  0  0  0  0  0  0  0
    4.2960   -0.0390   -0.1984 C   0  0  0  0  0  0  0  0  0  0  0  0
    4.9961    0.0689    1.1112 C   0  0  0  0  0  0  0  0  0  0  0  0
    0.0871   -0.7175   -0.1133 C   0  0  0  0  0  0  0  0  0  0  0  0
    1.9605    0.8075   -0.1498 C   0  0  0  0  0  0  0  0  0  0  0  0
    2.3441   -1.5779   -0.1601 C   0  0  0  0  0  0  0  0  0  0  0  0
    0.5837    0.5860   -0.1221 C   0  0  0  0  0  0  0  0  0  0  0  0
    0.9673   -1.7994   -0.1323 C   0  0  0  0  0  0  0  0  0  0  0  0
    6.3153    0.2723    1.0307 C   0  0  0  0  0  0  0  0  0  0  0  0
    4.2703   -0.0062    2.4165 C   0  0  0  0  0  0  0  0  0  0  0  0
    6.9933    0.3763   -0.2776 C   0  0  0  0  0  0  0  0  0  0  0  0
   -2.3385    0.0127   -0.0663 C   0  0  0  0  0  0  0  0  0  0  0  0
   -4.8705   -0.0619   -0.0177 C   0  0  0  0  0  0  0  0  0  0  0  0
   -6.0022   -0.8770    0.0048 C   0  0  0  0  0  0  0  0  0  0  0  0
   -5.0103    1.3261   -0.0148 C   0  0  0  0  0  0  0  0  0  0  0  0
   -7.2738   -0.3041    0.0302 C   0  0  0  0  0  0  0  0  0  0  0  0
   -6.2818    1.8987    0.0106 C   0  0  0  0  0  0  0  0  0  0  0  0
   -7.4137    1.0837    0.0329 C   0  0  0  0  0  0  0  0  0  0  0  0
    2.3380    1.8269   -0.1565 H   0  0  0  0  0  0  0  0  0  0  0  0
    3.0211   -2.4282   -0.1748 H   0  0  0  0  0  0  0  0  0  0  0  0
   -0.0304    1.4750   -0.1087 H   0  0  0  0  0  0  0  0  0  0  0  0
    0.5943   -2.8204   -0.1260 H   0  0  0  0  0  0  0  0  0  0  0  0
    6.9318    0.3767    1.9171 H   0  0  0  0  0  0  0  0  0  0  0  0
   -1.5752   -1.9154   -0.0823 H   0  0  0  0  0  0  0  0  0  0  0  0
    3.7753   -0.9758    2.5300 H   0  0  0  0  0  0  0  0  0  0  0  0
    4.9511    0.1122    3.2668 H   0  0  0  0  0  0  0  0  0  0  0  0
    3.5186    0.7859    2.4903 H   0  0  0  0  0  0  0  0  0  0  0  0
    6.5901    0.3376   -2.3175 H   0  0  0  0  0  0  0  0  0  0  0  0
   -3.5601   -1.6588   -0.0434 H   0  0  0  0  0  0  0  0  0  0  0  0
   -5.8921   -1.9593    0.0028 H   0  0  0  0  0  0  0  0  0  0  0  0
   -4.1858    2.0242   -0.0312 H   0  0  0  0  0  0  0  0  0  0  0  0
   -6.3921    2.9793    0.0129 H   0  0  0  0  0  0  0  0  0  0  0  0
   -8.3981    1.5441    0.0526 H   0  0  0  0  0  0  0  0  0  0  0  0
  1 23  1  0  0  0  0
  2 18  2  0  0  0  0
  3 19  2  0  0  0  0
  4 11  1  0  0  0  0
  4 19  1  0  0  0  0
  4 31  1  0  0  0  0
  5  6  1  0  0  0  0
  5  9  2  0  0  0  0
  6 18  1  0  0  0  0
  6 35  1  0  0  0  0
  7 19  1  0  0  0  0
  7 20  1  0  0  0  0
  7 36  1  0  0  0  0
  8  9  1  0  0  0  0
  8 12  2  0  0  0  0
  8 13  1  0  0  0  0
  9 10  1  0  0  0  0
 10 16  2  0  0  0  0
 10 17  1  0  0  0  0
 11 14  2  0  0  0  0
 11 15  1  0  0  0  0
 12 14  1  0  0  0  0
 12 26  1  0  0  0  0
 13 15  2  0  0  0  0
 13 27  1  0  0  0  0
 14 28  1  0  0  0  0
 15 29  1  0  0  0  0
 16 18  1  0  0  0  0
 16 30  1  0  0  0  0
 17 32  1  0  0  0  0
 17 33  1  0  0  0  0
 17 34  1  0  0  0  0
 20 21  2  0  0  0  0
 20 22  1  0  0  0  0
 21 23  1  0  0  0  0
 21 37  1  0  0  0  0
 22 24  2  0  0  0  0
 22 38  1  0  0  0  0
 23 25  2  0  0  0  0
 24 25  1  0  0  0  0
 24 39  1  0  0  0  0
 25 40  1  0  0  0  0
M  END
> <PUBCHEM_COMPOUND_CID>
49830425

> <PUBCHEM_CONFORMER_RMSD>
0.8

> <PUBCHEM_CONFORMER_DIVERSEORDER>
1
12
27
16
7
32
11
29
8
20
21
30
18
14
5
31
22
10
15
6
17
9
13
19
25
4
28
3
26
23
2
24

> <PUBCHEM_MMFF94_PARTIAL_CHARGES>
37
1 -0.18
10 -0.12
11 0.12
12 -0.15
13 -0.15
14 -0.15
15 -0.15
16 -0.14
17 0.14
18 0.62
19 0.69
2 -0.57
20 0.12
21 -0.15
22 -0.15
23 0.18
24 -0.15
25 -0.15
26 0.15
27 0.15
28 0.15
29 0.15
3 -0.57
30 0.15
31 0.37
35 0.37
36 0.37
37 0.15
38 0.15
39 0.15
4 -0.55
40 0.15
5 -0.51
6 -0.37
7 -0.55
8 0.09
9 0.35

> <PUBCHEM_EFFECTIVE_ROTOR_COUNT>
5

> <PUBCHEM_PHARMACOPHORE_FEATURES>
9
1 2 acceptor
1 3 acceptor
1 4 donor
1 5 acceptor
1 6 donor
1 7 donor
6 20 21 22 23 24 25 rings
6 5 6 9 10 16 18 rings
6 8 11 12 13 14 15 rings

> <PUBCHEM_HEAVY_ATOM_COUNT>
25

> <PUBCHEM_ATOM_DEF_STEREO_COUNT>
0

> <PUBCHEM_ATOM_UDEF_STEREO_COUNT>
0

> <PUBCHEM_BOND_DEF_STEREO_COUNT>
0

> <PUBCHEM_BOND_UDEF_STEREO_COUNT>
0

> <PUBCHEM_ISOTOPIC_ATOM_COUNT>
0

> <PUBCHEM_COMPONENT_COUNT>
1

> <PUBCHEM_CACTVS_TAUTO_COUNT>
44

> <PUBCHEM_CONFORMER_ID>
02F85A1900000001

> <PUBCHEM_MMFF94_ENERGY>
84.1512

> <PUBCHEM_FEATURE_SELFOVERLAP>
45.721

> <PUBCHEM_SHAPE_FINGERPRINT>
10 15 18334293175593944003
10050765 1 18050569543064829988
10162869 55 16515684493522726711
10299344 5 17676487250512075353
10319688 140 16629414540600691622
11315181 36 17603588543807780505
11646440 116 17917996091833884265
11719270 70 18409445860552575146
11724838 91 17967252004981378734
12236239 1 17822007610580523058
12516196 113 18131350804635038841
12730499 353 17632578232214120814
13073987 5 18340487756250630795
13533116 47 17845653647265451558
14118638 360 18342174424315045987
14123256 10 18342178869036290319
14170010 4 16200430282804147664
14251757 52 18334577984272975788
14251764 18 17822009813534774915
14251764 46 18334577949100366990
14294032 229 18335695031697691093
14461889 52 18410013247687209523
14933364 13 17275105024702499353
15183329 4 18113337509816048809
15328684 2 17896307039882112161
15419008 47 17704067382925115521
1577012 14 18260828155871443801
15840311 113 17894353315710466484
15849732 13 17561082518566602613
16120349 18 16008750251179530182
18335252 114 15697991942758340888
18335252 98 18343869913904859175
18681886 176 18343578573234944617
20157964 124 15769773568326080296
20281389 69 17748825215541121901
21033648 29 17631152243306115386
21130935 74 18338515232069193291
21150785 3 16702021971956002039
21267235 1 18340773724010831925
221357 26 16415760813009246920
22224240 67 17967813859797338722
22956985 138 17828192204590038618
249057 3 15626219144007432300
3004659 81 18335140907728612509
335352 9 18409731797915111604
34797466 226 16702021989157080464
3545911 37 18131069333647210303
397830 11 17345461781637340659
4073 2 18114189622891109107
4325135 7 18334295375092070231
4340502 62 15719393932656560514
5758199 1 18334576836783114635
59682541 35 18336264630307991473
59755656 215 18131351886528824118

> <PUBCHEM_SHAPE_MULTIPOLES>
484.7
25.97
1.41
1.08
16.27
0.05
0.46
-3.06
0.1
2.11
-0.04
-2.35
-0.05
0.06

> <PUBCHEM_SHAPE_SELFOVERLAP>
1041.582

> <PUBCHEM_SHAPE_VOLUME>
265.6

> <PUBCHEM_COORDINATE_TYPE>
2
5
10

$$$$
