24905154
  -OEChem-10052115143D

 46 49  0     0  0  0  0  0  0999 V2000
    4.4101    2.6671    0.2621 S   0  0  0  0  0  0  0  0  0  0  0  0
    4.0843   -1.8898    0.3295 O   0  0  0  0  0  0  0  0  0  0  0  0
   -3.3689    0.1950    1.1439 N   0  0  0  0  0  0  0  0  0  0  0  0
   -2.3406   -0.6690    1.2330 N   0  0  0  0  0  0  0  0  0  0  0  0
   -4.3535    1.7440   -0.4352 N   0  0  0  0  0  0  0  0  0  0  0  0
   -3.1274    1.7838   -2.5437 N   0  0  0  0  0  0  0  0  0  0  0  0
   -1.1991    0.4341   -2.9401 N   0  0  0  0  0  0  0  0  0  0  0  0
    3.2999    0.2836    0.0649 N   0  0  0  0  0  0  0  0  0  0  0  0
    5.5707    0.3544    0.6590 N   0  0  0  0  0  0  0  0  0  0  0  0
   -4.2583    0.3615    2.2689 C   0  0  0  0  0  0  0  0  0  0  0  0
   -3.4415    0.8338   -0.0582 C   0  0  0  0  0  0  0  0  0  0  0  0
   -2.3842    0.3532   -0.8106 C   0  0  0  0  0  0  0  0  0  0  0  0
   -1.7448   -0.5682    0.0397 C   0  0  0  0  0  0  0  0  0  0  0  0
   -0.5767   -1.3620   -0.2470 C   0  0  0  0  0  0  0  0  0  0  0  0
   -3.5196    0.9034    3.4951 C   0  0  0  0  0  0  0  0  0  0  0  0
   -4.9909   -0.9399    2.6047 C   0  0  0  0  0  0  0  0  0  0  0  0
   -2.2415    0.8610   -2.0977 C   0  0  0  0  0  0  0  0  0  0  0  0
    0.6939   -0.8635    0.0406 C   0  0  0  0  0  0  0  0  0  0  0  0
   -0.7170   -2.6293   -0.8126 C   0  0  0  0  0  0  0  0  0  0  0  0
    1.8242   -1.6324   -0.2373 C   0  0  0  0  0  0  0  0  0  0  0  0
    0.4132   -3.3980   -1.0908 C   0  0  0  0  0  0  0  0  0  0  0  0
    1.6839   -2.8995   -0.8031 C   0  0  0  0  0  0  0  0  0  0  0  0
   -4.1142    2.1625   -1.6968 C   0  0  0  0  0  0  0  0  0  0  0  0
    3.1493   -1.1138    0.0632 C   0  0  0  0  0  0  0  0  0  0  0  0
    4.4602    0.9352    0.3519 C   0  0  0  0  0  0  0  0  0  0  0  0
    6.2128    2.6956    0.2546 C   0  0  0  0  0  0  0  0  0  0  0  0
    6.5757    1.3971    0.9621 C   0  0  0  0  0  0  0  0  0  0  0  0
   -5.0134    1.1030    1.9815 H   0  0  0  0  0  0  0  0  0  0  0  0
   -2.7704    0.1938    3.8633 H   0  0  0  0  0  0  0  0  0  0  0  0
   -4.2215    1.1047    4.3114 H   0  0  0  0  0  0  0  0  0  0  0  0
   -3.0022    1.8392    3.2563 H   0  0  0  0  0  0  0  0  0  0  0  0
   -4.2983   -1.7204    2.9387 H   0  0  0  0  0  0  0  0  0  0  0  0
   -5.5262   -1.3228    1.7287 H   0  0  0  0  0  0  0  0  0  0  0  0
   -5.7231   -0.7763    3.4026 H   0  0  0  0  0  0  0  0  0  0  0  0
    0.7725    0.1135    0.5111 H   0  0  0  0  0  0  0  0  0  0  0  0
   -1.7003   -3.0322   -1.0437 H   0  0  0  0  0  0  0  0  0  0  0  0
    0.3039   -4.3841   -1.5327 H   0  0  0  0  0  0  0  0  0  0  0  0
    2.5522   -3.5121   -1.0314 H   0  0  0  0  0  0  0  0  0  0  0  0
   -4.8057    2.9025   -2.0856 H   0  0  0  0  0  0  0  0  0  0  0  0
   -0.5238   -0.2515   -2.6354 H   0  0  0  0  0  0  0  0  0  0  0  0
   -1.1318    0.8291   -3.8686 H   0  0  0  0  0  0  0  0  0  0  0  0
    2.5150    0.8732   -0.1935 H   0  0  0  0  0  0  0  0  0  0  0  0
    6.6172    3.5744    0.7630 H   0  0  0  0  0  0  0  0  0  0  0  0
    6.5635    2.6848   -0.7821 H   0  0  0  0  0  0  0  0  0  0  0  0
    7.5655    1.0576    0.6386 H   0  0  0  0  0  0  0  0  0  0  0  0
    6.6208    1.5404    2.0490 H   0  0  0  0  0  0  0  0  0  0  0  0
  1 25  1  0  0  0  0
  1 26  1  0  0  0  0
  2 24  2  0  0  0  0
  3  4  1  0  0  0  0
  3 10  1  0  0  0  0
  3 11  1  0  0  0  0
  4 13  2  0  0  0  0
  5 11  2  0  0  0  0
  5 23  1  0  0  0  0
  6 17  1  0  0  0  0
  6 23  2  0  0  0  0
  7 17  1  0  0  0  0
  7 40  1  0  0  0  0
  7 41  1  0  0  0  0
  8 24  1  0  0  0  0
  8 25  1  0  0  0  0
  8 42  1  0  0  0  0
  9 25  2  0  0  0  0
  9 27  1  0  0  0  0
 10 15  1  0  0  0  0
 10 16  1  0  0  0  0
 10 28  1  0  0  0  0
 11 12  1  0  0  0  0
 12 13  1  0  0  0  0
 12 17  2  0  0  0  0
 13 14  1  0  0  0  0
 14 18  2  0  0  0  0
 14 19  1  0  0  0  0
 15 29  1  0  0  0  0
 15 30  1  0  0  0  0
 15 31  1  0  0  0  0
 16 32  1  0  0  0  0
 16 33  1  0  0  0  0
 16 34  1  0  0  0  0
 18 20  1  0  0  0  0
 18 35  1  0  0  0  0
 19 21  2  0  0  0  0
 19 36  1  0  0  0  0
 20 22  2  0  0  0  0
 20 24  1  0  0  0  0
 21 22  1  0  0  0  0
 21 37  1  0  0  0  0
 22 38  1  0  0  0  0
 23 39  1  0  0  0  0
 26 27  1  0  0  0  0
 26 43  1  0  0  0  0
 26 44  1  0  0  0  0
 27 45  1  0  0  0  0
 27 46  1  0  0  0  0
M  END
> <PUBCHEM_COMPOUND_CID>
24905154

> <PUBCHEM_CONFORMER_RMSD>
0.8

> <PUBCHEM_CONFORMER_DIVERSEORDER>
2
20
27
14
17
6
37
26
38
30
9
33
21
35
7
4
5
3
13
19
29
18
16
23
25
10
34
36
11
24
8
12
31
28
22
15
32
1

> <PUBCHEM_MMFF94_PARTIAL_CHARGES>
32
1 -0.37
10 0.26
11 0.11
13 0.23
14 0.05
17 0.41
18 -0.15
19 -0.15
2 -0.57
20 0.09
21 -0.15
22 -0.15
23 0.47
24 0.54
25 0.65
26 0.23
27 0.25
3 0.31
35 0.15
36 0.15
37 0.15
38 0.15
39 0.15
4 -0.71
40 0.4
41 0.4
42 0.37
5 -0.57
6 -0.62
7 -0.9
8 -0.49
9 -0.7

> <PUBCHEM_EFFECTIVE_ROTOR_COUNT>
5.6

> <PUBCHEM_PHARMACOPHORE_FEATURES>
12
1 2 acceptor
1 4 acceptor
1 7 cation
1 7 donor
1 8 donor
3 10 15 16 hydrophobe
3 3 5 11 cation
3 5 6 23 cation
5 1 9 25 26 27 rings
5 3 4 11 12 13 rings
6 14 18 19 20 21 22 rings
6 5 6 11 12 17 23 rings

> <PUBCHEM_HEAVY_ATOM_COUNT>
27

> <PUBCHEM_ATOM_DEF_STEREO_COUNT>
0

> <PUBCHEM_ATOM_UDEF_STEREO_COUNT>
0

> <PUBCHEM_BOND_DEF_STEREO_COUNT>
0

> <PUBCHEM_BOND_UDEF_STEREO_COUNT>
0

> <PUBCHEM_ISOTOPIC_ATOM_COUNT>
0

> <PUBCHEM_COMPONENT_COUNT>
1

> <PUBCHEM_CACTVS_TAUTO_COUNT>
15

> <PUBCHEM_CONFORMER_ID>
017C05C200000002

> <PUBCHEM_MMFF94_ENERGY>
64.0859

> <PUBCHEM_FEATURE_SELFOVERLAP>
61.175

> <PUBCHEM_SHAPE_FINGERPRINT>
10319926 262 17240482455974500538
10369192 42 17986407770017937452
11049842 53 14978276773559291311
11135609 201 17917433180661743274
11578080 2 18338240345914751297
12128747 34 16952518093028133754
12390115 104 18200887291440569666
12403259 118 17748829626472307636
12403259 415 18336271158732497918
12422481 6 17894907443426456748
12549972 3 17389391407051654083
12760667 363 8069759485185119802
12788726 201 17487034898624615942
12892183 10 17312817169844958170
13034934 17 18259988149935151751
13583140 156 17968372317236535386
13761468 95 16054663537468309736
13828863 39 18059871574887341067
15119646 57 17130148834806948280
15163728 17 15193908652271704001
15188451 53 15357980117693137179
15324884 4 17898307008746653095
15342168 16 18131360682463694739
15513586 35 17469048108613025544
1768 210 17630306748734285536
1813 80 11963959100792613138
19304152 47 17603861252276601444
21033648 29 18041282075914373918
21033650 10 14979959163878502986
21223535 225 17631748058539605072
21344244 78 17609542407804750497
21756936 100 17346606299937183186
22122407 14 18055638317755874617
22393880 68 13254796828659066884
23557571 272 17315091977866948303
23559900 14 17098064823146531575
283562 15 18055062426950394126
312425 54 16081358619244842880
312425 83 15338845300214569480
350125 39 18198056091368457782
3552219 110 17913770785208810023
38570 142 17488206870982258224
469060 322 17750790141504147239
474 4 18130500825864008086
50009960 94 16811259750005726739
5081480 168 17772775796330964092
5104073 3 17968094170821958544
5252454 2 18268151027771674400
56638632 10 18272654601271227441
57634706 280 17243562094035266893
57724786 102 18201166460109416090
59755656 520 17988652925522873566
6034566 193 18272369801683107684
633830 44 17631464396785964526
6431902 208 9006790808495961920
6608658 132 16773799160591274985
7288768 16 18271820046017361482
7399639 24 18262248741874426747
7970288 3 11169910619580710848

> <PUBCHEM_SHAPE_MULTIPOLES>
518.76
13.28
3.3
2.57
17.2
1.82
-0.37
-11.77
-5.67
2.88
0.88
-5.86
-1.38
1.1

> <PUBCHEM_SHAPE_SELFOVERLAP>
1123.711

> <PUBCHEM_SHAPE_VOLUME>
287.1

> <PUBCHEM_COORDINATE_TYPE>
2
5
10

$$$$
