44352928
  -OEChem-10052115143D

 67 74  0     1  0  0  0  0  0999 V2000
   -0.9701   -0.3692    2.1529 O   0  0  0  0  0  0  0  0  0  0  0  0
   -1.8498    0.2802   -0.9979 O   0  0  0  0  0  0  0  0  0  0  0  0
    5.6450   -1.1604   -0.9631 O   0  0  0  0  0  0  0  0  0  0  0  0
   -6.1461   -0.9778   -1.4337 O   0  0  0  0  0  0  0  0  0  0  0  0
   -5.4819    0.5878    0.0933 O   0  0  0  0  0  0  0  0  0  0  0  0
   -0.2223    1.3707    0.8028 N   0  0  0  0  0  0  0  0  0  0  0  0
    0.4503   -1.5527    0.7412 N   0  0  0  0  0  0  0  0  0  0  0  0
   -4.1562   -1.2975   -0.3139 N   0  0  0  0  0  0  0  0  0  0  0  0
    5.5261    1.1744   -1.0602 N   0  0  0  0  0  0  0  0  0  0  0  0
   -1.4073    0.7467    1.3721 C   0  0  1  0  0  0  0  0  0  0  0  0
   -2.4668    0.3843    0.2929 C   0  0  2  0  0  0  0  0  0  0  0  0
   -0.8012   -1.5830    1.4629 C   0  0  2  0  0  0  0  0  0  0  0  0
   -3.1132   -0.9582    0.6232 C   0  0  2  0  0  0  0  0  0  0  0  0
   -2.0254   -2.0281    0.6499 C   0  0  0  0  0  0  0  0  0  0  0  0
    1.0012    0.8437    0.4600 C   0  0  0  0  0  0  0  0  0  0  0  0
    1.3184   -0.5459    0.4207 C   0  0  0  0  0  0  0  0  0  0  0  0
    2.0692    1.7156    0.0266 C   0  0  0  0  0  0  0  0  0  0  0  0
    2.6611   -0.8599   -0.0400 C   0  0  0  0  0  0  0  0  0  0  0  0
   -0.0568    2.7119    0.4272 C   0  0  0  0  0  0  0  0  0  0  0  0
   -2.0688    1.5967    2.4824 C   0  0  0  0  0  0  0  0  0  0  0  0
    1.2054   -2.6900    0.4368 C   0  0  0  0  0  0  0  0  0  0  0  0
    1.3024    2.9557    0.0635 C   0  0  0  0  0  0  0  0  0  0  0  0
    3.3719    1.3993   -0.3449 C   0  0  0  0  0  0  0  0  0  0  0  0
    3.6654    0.0449   -0.3772 C   0  0  0  0  0  0  0  0  0  0  0  0
    2.5071   -2.3195   -0.0138 C   0  0  0  0  0  0  0  0  0  0  0  0
    4.5439    2.2047   -0.7962 C   0  0  0  0  0  0  0  0  0  0  0  0
   -0.9956    3.7622    0.3555 C   0  0  0  0  0  0  0  0  0  0  0  0
    5.0468   -0.1111   -0.8283 C   0  0  0  0  0  0  0  0  0  0  0  0
    0.8335   -4.0466    0.5481 C   0  0  0  0  0  0  0  0  0  0  0  0
    1.6834    4.2798   -0.2725 C   0  0  0  0  0  0  0  0  0  0  0  0
    3.3967   -3.3706   -0.3545 C   0  0  0  0  0  0  0  0  0  0  0  0
   -3.9871   -2.5449   -1.0606 C   0  0  0  0  0  0  0  0  0  0  0  0
   -5.2806   -0.4701   -0.5008 C   0  0  0  0  0  0  0  0  0  0  0  0
   -2.8011    0.4190   -2.0454 C   0  0  0  0  0  0  0  0  0  0  0  0
   -0.5800    5.0506    0.0098 C   0  0  0  0  0  0  0  0  0  0  0  0
    0.7468    5.3126   -0.2848 C   0  0  0  0  0  0  0  0  0  0  0  0
    1.7456   -5.0424    0.2022 C   0  0  0  0  0  0  0  0  0  0  0  0
    3.0128   -4.7101   -0.2450 C   0  0  0  0  0  0  0  0  0  0  0  0
   -7.3229   -0.2029   -1.6913 C   0  0  0  0  0  0  0  0  0  0  0  0
   -3.1856    1.2091    0.2542 H   0  0  0  0  0  0  0  0  0  0  0  0
   -0.6489   -2.3284    2.2543 H   0  0  0  0  0  0  0  0  0  0  0  0
   -3.5910   -0.8912    1.6091 H   0  0  0  0  0  0  0  0  0  0  0  0
   -2.4206   -2.9438    1.1090 H   0  0  0  0  0  0  0  0  0  0  0  0
   -1.6629   -2.3112   -0.3429 H   0  0  0  0  0  0  0  0  0  0  0  0
   -1.3165    1.9856    3.1797 H   0  0  0  0  0  0  0  0  0  0  0  0
   -2.7543    0.9837    3.0817 H   0  0  0  0  0  0  0  0  0  0  0  0
   -2.6535    2.4380    2.1093 H   0  0  0  0  0  0  0  0  0  0  0  0
    4.3450    2.7496   -1.7221 H   0  0  0  0  0  0  0  0  0  0  0  0
    4.9215    2.8665   -0.0132 H   0  0  0  0  0  0  0  0  0  0  0  0
   -2.0496    3.5960    0.5436 H   0  0  0  0  0  0  0  0  0  0  0  0
   -0.1557   -4.3285    0.8971 H   0  0  0  0  0  0  0  0  0  0  0  0
    2.7114    4.4997   -0.5494 H   0  0  0  0  0  0  0  0  0  0  0  0
    4.3978   -3.1587   -0.7123 H   0  0  0  0  0  0  0  0  0  0  0  0
   -3.0991   -2.5250   -1.6953 H   0  0  0  0  0  0  0  0  0  0  0  0
   -4.8290   -2.7368   -1.7308 H   0  0  0  0  0  0  0  0  0  0  0  0
   -3.9584   -3.3902   -0.3669 H   0  0  0  0  0  0  0  0  0  0  0  0
    6.4685    1.3681   -1.3840 H   0  0  0  0  0  0  0  0  0  0  0  0
   -2.2603    0.8750   -2.8830 H   0  0  0  0  0  0  0  0  0  0  0  0
   -3.6170    1.1087   -1.8144 H   0  0  0  0  0  0  0  0  0  0  0  0
   -3.1482   -0.5352   -2.4325 H   0  0  0  0  0  0  0  0  0  0  0  0
   -1.3107    5.8541   -0.0327 H   0  0  0  0  0  0  0  0  0  0  0  0
    1.0561    6.3188   -0.5530 H   0  0  0  0  0  0  0  0  0  0  0  0
    1.4576   -6.0868    0.2852 H   0  0  0  0  0  0  0  0  0  0  0  0
    3.7157   -5.4939   -0.5133 H   0  0  0  0  0  0  0  0  0  0  0  0
   -7.9133   -0.7244   -2.4492 H   0  0  0  0  0  0  0  0  0  0  0  0
   -7.0488    0.7836   -2.0769 H   0  0  0  0  0  0  0  0  0  0  0  0
   -7.9222   -0.1112   -0.7805 H   0  0  0  0  0  0  0  0  0  0  0  0
  1 10  1  0  0  0  0
  1 12  1  0  0  0  0
  2 11  1  0  0  0  0
  2 34  1  0  0  0  0
  3 28  2  0  0  0  0
  4 33  1  0  0  0  0
  4 39  1  0  0  0  0
  5 33  2  0  0  0  0
  6 10  1  0  0  0  0
  6 15  1  0  0  0  0
  6 19  1  0  0  0  0
  7 12  1  0  0  0  0
  7 16  1  0  0  0  0
  7 21  1  0  0  0  0
  8 13  1  0  0  0  0
  8 32  1  0  0  0  0
  8 33  1  0  0  0  0
  9 26  1  0  0  0  0
  9 28  1  0  0  0  0
  9 57  1  0  0  0  0
 10 11  1  0  0  0  0
 10 20  1  0  0  0  0
 11 13  1  0  0  0  0
 11 40  1  0  0  0  0
 12 14  1  0  0  0  0
 12 41  1  0  0  0  0
 13 14  1  0  0  0  0
 13 42  1  0  0  0  0
 14 43  1  0  0  0  0
 14 44  1  0  0  0  0
 15 16  2  0  0  0  0
 15 17  1  0  0  0  0
 16 18  1  0  0  0  0
 17 22  1  0  0  0  0
 17 23  2  0  0  0  0
 18 24  2  0  0  0  0
 18 25  1  0  0  0  0
 19 22  1  0  0  0  0
 19 27  2  0  0  0  0
 20 45  1  0  0  0  0
 20 46  1  0  0  0  0
 20 47  1  0  0  0  0
 21 25  1  0  0  0  0
 21 29  2  0  0  0  0
 22 30  2  0  0  0  0
 23 24  1  0  0  0  0
 23 26  1  0  0  0  0
 24 28  1  0  0  0  0
 25 31  2  0  0  0  0
 26 48  1  0  0  0  0
 26 49  1  0  0  0  0
 27 35  1  0  0  0  0
 27 50  1  0  0  0  0
 29 37  1  0  0  0  0
 29 51  1  0  0  0  0
 30 36  1  0  0  0  0
 30 52  1  0  0  0  0
 31 38  1  0  0  0  0
 31 53  1  0  0  0  0
 32 54  1  0  0  0  0
 32 55  1  0  0  0  0
 32 56  1  0  0  0  0
 34 58  1  0  0  0  0
 34 59  1  0  0  0  0
 34 60  1  0  0  0  0
 35 36  2  0  0  0  0
 35 61  1  0  0  0  0
 36 62  1  0  0  0  0
 37 38  2  0  0  0  0
 37 63  1  0  0  0  0
 38 64  1  0  0  0  0
 39 65  1  0  0  0  0
 39 66  1  0  0  0  0
 39 67  1  0  0  0  0
M  END
> <PUBCHEM_COMPOUND_CID>
44352928

> <PUBCHEM_CONFORMER_RMSD>
1

> <PUBCHEM_CONFORMER_DIVERSEORDER>
1
3
4
2

> <PUBCHEM_MMFF94_PARTIAL_CHARGES>
44
1 -0.56
10 0.54
11 0.28
12 0.54
13 0.3
15 -0.05
16 -0.05
17 -0.01
18 -0.01
19 -0.15
2 -0.56
21 -0.15
23 -0.14
24 0.09
26 0.44
27 -0.15
28 0.54
29 -0.15
3 -0.57
30 -0.15
31 -0.15
32 0.3
33 0.78
34 0.28
35 -0.15
36 -0.15
37 -0.15
38 -0.15
39 0.28
4 -0.43
5 -0.57
50 0.15
51 0.15
52 0.15
53 0.15
57 0.37
6 -0.04
61 0.15
62 0.15
63 0.15
64 0.15
7 -0.04
8 -0.66
9 -0.73

> <PUBCHEM_EFFECTIVE_ROTOR_COUNT>
5.2

> <PUBCHEM_PHARMACOPHORE_FEATURES>
15
1 1 acceptor
1 2 acceptor
1 3 acceptor
1 5 acceptor
1 6 cation
1 7 cation
1 9 donor
5 6 15 17 19 22 rings
5 7 16 18 21 25 rings
5 9 23 24 26 28 rings
6 1 10 11 12 13 14 rings
6 15 16 17 18 23 24 rings
6 19 22 27 30 35 36 rings
6 21 25 29 31 37 38 rings
7 1 6 7 10 12 15 16 rings

> <PUBCHEM_HEAVY_ATOM_COUNT>
39

> <PUBCHEM_ATOM_DEF_STEREO_COUNT>
4

> <PUBCHEM_ATOM_UDEF_STEREO_COUNT>
0

> <PUBCHEM_BOND_DEF_STEREO_COUNT>
0

> <PUBCHEM_BOND_UDEF_STEREO_COUNT>
0

> <PUBCHEM_ISOTOPIC_ATOM_COUNT>
0

> <PUBCHEM_COMPONENT_COUNT>
1

> <PUBCHEM_CACTVS_TAUTO_COUNT>
2

> <PUBCHEM_CONFORMER_ID>
02A4C5A000000001

> <PUBCHEM_MMFF94_ENERGY>
182.0327

> <PUBCHEM_FEATURE_SELFOVERLAP>
77.08

> <PUBCHEM_SHAPE_FINGERPRINT>
10675989 125 18408889533796712184
10693767 8 18202279208325719550
1100329 8 17763199320551480690
11115154 58 17918273156797177121
11135609 187 18338237188470411584
11445158 3 17393086058358345833
11513181 2 17981334382902517014
12788726 201 18262796246592578576
13140716 1 16685999094327435136
1361 2 18267018534425153685
13636023 51 14606905876549244436
13642711 20 18338512049107407126
13911987 19 18262253225841071388
14068700 675 18131631209558361456
14681490 219 18409728418066168717
15324884 4 17391357681966544481
15328829 1 17702968988700330363
15420108 30 17625003550729684273
15439362 3 17979351190090783157
15444296 8 17767692654569308767
15484559 13 18339917207698866014
15840311 113 18045231449506223413
15927050 60 17833562189430434180
15950262 2 15430892062604762924
20028762 73 18271810103911954062
20642791 105 16684282773782889104
20775438 99 17762010468956267797
21133410 171 17539926686625533539
23559900 14 18268142248784772393
24771293 8 18200873006448428816
24771750 20 17899709139343100381
283562 15 18340778061538184064
3388396 114 18338242570396262710
3882209 13 17901361434594562394
4353968 344 18268999696641419278
463206 1 18410012173386092591
484989 97 17832432272870041307
57527452 28 16128384808409757021
6004065 56 18268142235346034305
70251023 43 18193276282526378059

> <PUBCHEM_SHAPE_MULTIPOLES>
753.33
10.6
6.8
1.43
10.88
2.03
-0.25
-3.96
6.93
-5.32
-0.08
1.5
0.07
-1

> <PUBCHEM_SHAPE_SELFOVERLAP>
1724.682

> <PUBCHEM_SHAPE_VOLUME>
388.3

> <PUBCHEM_COORDINATE_TYPE>
2
5
10

$$$$
