49831042
  -OEChem-10062121533D

 46 49  0     1  0  0  0  0  0999 V2000
   -1.2480   -0.4722   -2.1678 O   0  0  0  0  0  0  0  0  0  0  0  0
    0.6636   -0.9603   -0.8725 N   0  0  3  0  0  0  0  0  0  0  0  0
   -3.4522    3.6791   -0.3809 N   0  0  0  0  0  0  0  0  0  0  0  0
    5.2790   -0.9960    0.7131 N   0  0  0  0  0  0  0  0  0  0  0  0
   -0.7182   -0.4354   -0.8305 C   0  0  1  0  0  0  0  0  0  0  0  0
   -0.8225    1.0334   -0.4275 C   0  0  0  0  0  0  0  0  0  0  0  0
    1.7226   -0.3093   -0.2347 C   0  0  0  0  0  0  0  0  0  0  0  0
    0.2871    1.7229    0.0963 C   0  0  0  0  0  0  0  0  0  0  0  0
    1.5730    1.0081    0.2700 C   0  0  0  0  0  0  0  0  0  0  0  0
   -1.5658   -1.3162    0.1046 C   0  0  0  0  0  0  0  0  0  0  0  0
    0.8778   -2.2832   -1.4676 C   0  0  0  0  0  0  0  0  0  0  0  0
   -2.0622    1.6982   -0.5722 C   0  0  0  0  0  0  0  0  0  0  0  0
    2.9803   -0.9400   -0.0731 C   0  0  0  0  0  0  0  0  0  0  0  0
    0.1100    3.0833    0.4288 C   0  0  0  0  0  0  0  0  0  0  0  0
    2.6708    1.6061    0.9330 C   0  0  0  0  0  0  0  0  0  0  0  0
   -2.2087    3.0360   -0.2251 C   0  0  0  0  0  0  0  0  0  0  0  0
    1.5295   -2.1437   -2.8299 C   0  0  0  0  0  0  0  0  0  0  0  0
   -1.2971   -1.3408    1.4731 C   0  0  0  0  0  0  0  0  0  0  0  0
   -2.6027   -2.0899   -0.4165 C   0  0  0  0  0  0  0  0  0  0  0  0
    4.0490   -0.3222    0.5740 C   0  0  0  0  0  0  0  0  0  0  0  0
   -1.1187    3.7307    0.2719 C   0  0  0  0  0  0  0  0  0  0  0  0
    3.8921    0.9523    1.0827 C   0  0  0  0  0  0  0  0  0  0  0  0
   -2.0654   -2.1393    2.3206 C   0  0  0  0  0  0  0  0  0  0  0  0
   -3.3710   -2.8883    0.4308 C   0  0  0  0  0  0  0  0  0  0  0  0
   -3.1023   -2.9131    1.7993 C   0  0  0  0  0  0  0  0  0  0  0  0
    1.4309   -2.9604   -0.8082 H   0  0  0  0  0  0  0  0  0  0  0  0
   -0.0799   -2.7927   -1.6268 H   0  0  0  0  0  0  0  0  0  0  0  0
   -2.9210    1.1559   -0.9649 H   0  0  0  0  0  0  0  0  0  0  0  0
    3.1619   -1.9435   -0.4485 H   0  0  0  0  0  0  0  0  0  0  0  0
    0.9263    3.6860    0.8165 H   0  0  0  0  0  0  0  0  0  0  0  0
    2.6038    2.6032    1.3590 H   0  0  0  0  0  0  0  0  0  0  0  0
   -0.5965   -0.0380   -2.7445 H   0  0  0  0  0  0  0  0  0  0  0  0
    0.9114   -1.5516   -3.5119 H   0  0  0  0  0  0  0  0  0  0  0  0
    2.5110   -1.6638   -2.7768 H   0  0  0  0  0  0  0  0  0  0  0  0
    1.6674   -3.1317   -3.2812 H   0  0  0  0  0  0  0  0  0  0  0  0
   -0.4938   -0.7495    1.9026 H   0  0  0  0  0  0  0  0  0  0  0  0
   -2.8388   -2.0989   -1.4763 H   0  0  0  0  0  0  0  0  0  0  0  0
   -1.2042    4.7795    0.5449 H   0  0  0  0  0  0  0  0  0  0  0  0
    4.7068    1.4541    1.5979 H   0  0  0  0  0  0  0  0  0  0  0  0
   -1.8558   -2.1591    3.3861 H   0  0  0  0  0  0  0  0  0  0  0  0
   -4.1780   -3.4916    0.0253 H   0  0  0  0  0  0  0  0  0  0  0  0
   -3.7003   -3.5350    2.4589 H   0  0  0  0  0  0  0  0  0  0  0  0
   -4.2469    3.1661   -0.7387 H   0  0  0  0  0  0  0  0  0  0  0  0
   -3.5557    4.6512   -0.1216 H   0  0  0  0  0  0  0  0  0  0  0  0
    5.3941   -1.9257    0.3321 H   0  0  0  0  0  0  0  0  0  0  0  0
    6.0554   -0.5421    1.1757 H   0  0  0  0  0  0  0  0  0  0  0  0
  1  5  1  0  0  0  0
  1 32  1  0  0  0  0
  2  5  1  0  0  0  0
  2  7  1  0  0  0  0
  2 11  1  0  0  0  0
  3 16  1  0  0  0  0
  3 43  1  0  0  0  0
  3 44  1  0  0  0  0
  4 20  1  0  0  0  0
  4 45  1  0  0  0  0
  4 46  1  0  0  0  0
  5  6  1  0  0  0  0
  5 10  1  0  0  0  0
  6  8  2  0  0  0  0
  6 12  1  0  0  0  0
  7  9  2  0  0  0  0
  7 13  1  0  0  0  0
  8  9  1  0  0  0  0
  8 14  1  0  0  0  0
  9 15  1  0  0  0  0
 10 18  2  0  0  0  0
 10 19  1  0  0  0  0
 11 17  1  0  0  0  0
 11 26  1  0  0  0  0
 11 27  1  0  0  0  0
 12 16  2  0  0  0  0
 12 28  1  0  0  0  0
 13 20  2  0  0  0  0
 13 29  1  0  0  0  0
 14 21  2  0  0  0  0
 14 30  1  0  0  0  0
 15 22  2  0  0  0  0
 15 31  1  0  0  0  0
 16 21  1  0  0  0  0
 17 33  1  0  0  0  0
 17 34  1  0  0  0  0
 17 35  1  0  0  0  0
 18 23  1  0  0  0  0
 18 36  1  0  0  0  0
 19 24  2  0  0  0  0
 19 37  1  0  0  0  0
 20 22  1  0  0  0  0
 21 38  1  0  0  0  0
 22 39  1  0  0  0  0
 23 25  2  0  0  0  0
 23 40  1  0  0  0  0
 24 25  1  0  0  0  0
 24 41  1  0  0  0  0
 25 42  1  0  0  0  0
M  END
> <PUBCHEM_COMPOUND_CID>
49831042

> <PUBCHEM_CONFORMER_RMSD>
0.6

> <PUBCHEM_CONFORMER_DIVERSEORDER>
1
4
2
3

> <PUBCHEM_MMFF94_PARTIAL_CHARGES>
38
1 -0.68
10 -0.14
11 0.37
12 -0.15
13 -0.15
14 -0.15
15 -0.15
16 0.1
18 -0.15
19 -0.15
2 -0.84
20 0.1
21 -0.15
22 -0.15
23 -0.15
24 -0.15
25 -0.15
28 0.15
29 0.15
3 -0.9
30 0.15
31 0.15
32 0.4
36 0.15
37 0.15
38 0.15
39 0.15
4 -0.9
40 0.15
41 0.15
42 0.15
43 0.4
44 0.4
45 0.4
46 0.4
5 0.94
6 -0.14
7 0.1

> <PUBCHEM_EFFECTIVE_ROTOR_COUNT>
2.4

> <PUBCHEM_PHARMACOPHORE_FEATURES>
11
1 1 acceptor
1 1 donor
1 2 cation
1 3 cation
1 3 donor
1 4 cation
1 4 donor
6 10 18 19 23 24 25 rings
6 2 5 6 7 8 9 rings
6 6 8 12 14 16 21 rings
6 7 9 13 15 20 22 rings

> <PUBCHEM_HEAVY_ATOM_COUNT>
25

> <PUBCHEM_ATOM_DEF_STEREO_COUNT>
0

> <PUBCHEM_ATOM_UDEF_STEREO_COUNT>
1

> <PUBCHEM_BOND_DEF_STEREO_COUNT>
0

> <PUBCHEM_BOND_UDEF_STEREO_COUNT>
0

> <PUBCHEM_ISOTOPIC_ATOM_COUNT>
0

> <PUBCHEM_COMPONENT_COUNT>
1

> <PUBCHEM_CACTVS_TAUTO_COUNT>
1

> <PUBCHEM_CONFORMER_ID>
02F85C8200000001

> <PUBCHEM_MMFF94_ENERGY>
111.305

> <PUBCHEM_FEATURE_SELFOVERLAP>
55.862

> <PUBCHEM_SHAPE_FINGERPRINT>
108634 29 18410293567290577103
10906281 52 18413113853139224565
11578080 2 17698765503316106068
12160290 23 18043837315404846319
12293681 25 18056492663696288215
12293681 4 18409442610010755791
12363563 72 18116440434181645802
12553582 1 17908130324638170564
12788726 201 18116174262431314593
13134695 92 17903074774426393383
13140716 1 18342453751217609528
13149001 5 17766301789692605734
13965767 371 17844547688448146410
14787075 74 18269542854715841413
14790565 3 17111009799148659293
14840074 17 17693090078272246920
14866123 147 18262230006884034923
14955137 171 17543635687417207840
15420108 30 17481723256876644273
15775530 1 17985005716309090606
15927050 60 18048311146245383427
16945 1 17841977906557319852
17980427 23 17702401722172874803
17980427 26 17401191279830739693
1813 80 18126305257132828374
19319366 153 15891416593386381472
20567600 347 17611755505082516337
20600515 1 17751372887135876499
20739085 24 17983598551883884386
21041028 32 18192145117052693344
22182313 1 17917439666547637222
23419403 2 17827898939657925343
23558518 356 18337665322154282453
23559900 14 17169537730701791806
2748010 2 18273207621370451812
3493558 16 16880182575524272805
35225 105 17753081352100816769
352729 6 18271801281569086112
3759504 43 18116995481521771148
376196 1 17697286566120711224
5104073 3 18339062840868373640
59444896 2 15322890278203982188
59755656 520 18043521707769237588
81228 2 18262256434028432751
9709674 26 18199462182573358206
9981440 41 17985524698982911338

> <PUBCHEM_SHAPE_MULTIPOLES>
493.68
6.27
4.6
1.84
5.03
4.49
-0.52
-3.47
2.96
-4.21
-0.14
-0.35
-1.76
1.99

> <PUBCHEM_SHAPE_SELFOVERLAP>
1095.98

> <PUBCHEM_SHAPE_VOLUME>
261.7

> <PUBCHEM_COORDINATE_TYPE>
2
5
10

$$$$
