49830357
  -OEChem-10052120443D

 52 55  0     0  0  0  0  0  0999 V2000
    4.9676    0.4775   -2.0741 S   0  0  0  0  0  0  0  0  0  0  0  0
   -7.3280    2.2183    0.9079 F   0  0  0  0  0  0  0  0  0  0  0  0
    7.6438   -0.7079   -1.4808 O   0  0  0  0  0  0  0  0  0  0  0  0
   -3.6493   -0.9456   -0.5136 O   0  0  0  0  0  0  0  0  0  0  0  0
    4.7042   -0.7720    2.2192 N   0  0  0  0  0  0  0  0  0  0  0  0
   -2.7626    1.1471    0.0551 N   0  0  0  0  0  0  0  0  0  0  0  0
    2.3787   -0.3537    2.1527 N   0  0  0  0  0  0  0  0  0  0  0  0
    8.5506   -0.2855    0.6112 N   0  0  0  0  0  0  0  0  0  0  0  0
   -5.0409    0.7941    0.1978 N   0  0  0  0  0  0  0  0  0  0  0  0
    3.7501    0.0127    0.1587 C   0  0  0  0  0  0  0  0  0  0  0  0
    2.7606    0.4645   -0.7774 C   0  0  0  0  0  0  0  0  0  0  0  0
    5.0185   -0.0278   -0.4270 C   0  0  0  0  0  0  0  0  0  0  0  0
    1.3448    0.6395   -0.5648 C   0  0  0  0  0  0  0  0  0  0  0  0
    6.1421   -0.4392    0.2999 C   0  0  0  0  0  0  0  0  0  0  0  0
    3.2856    0.7481   -2.0159 C   0  0  0  0  0  0  0  0  0  0  0  0
    3.6294   -0.3723    1.5034 C   0  0  0  0  0  0  0  0  0  0  0  0
    0.4673   -0.4179   -0.8051 C   0  0  0  0  0  0  0  0  0  0  0  0
    0.8531    1.8660   -0.1179 C   0  0  0  0  0  0  0  0  0  0  0  0
   -1.3934    0.9779   -0.1523 C   0  0  0  0  0  0  0  0  0  0  0  0
    5.9089   -0.7963    1.6164 C   0  0  0  0  0  0  0  0  0  0  0  0
   -0.9017   -0.2487   -0.5990 C   0  0  0  0  0  0  0  0  0  0  0  0
   -0.5159    2.0353    0.0882 C   0  0  0  0  0  0  0  0  0  0  0  0
    7.4776   -0.4977   -0.2645 C   0  0  0  0  0  0  0  0  0  0  0  0
   -6.3251    0.2018    0.1526 C   0  0  0  0  0  0  0  0  0  0  0  0
   -3.8070    0.2082   -0.1276 C   0  0  0  0  0  0  0  0  0  0  0  0
   -7.7298   -1.7110   -0.2995 C   0  0  0  0  0  0  0  0  0  0  0  0
   -6.4649   -1.1248   -0.2546 C   0  0  0  0  0  0  0  0  0  0  0  0
   -7.4502    0.9423    0.5152 C   0  0  0  0  0  0  0  0  0  0  0  0
   -8.8549   -0.9705    0.0632 C   0  0  0  0  0  0  0  0  0  0  0  0
   -8.7152    0.3560    0.4705 C   0  0  0  0  0  0  0  0  0  0  0  0
    9.9355   -0.2890    0.1975 C   0  0  0  0  0  0  0  0  0  0  0  0
   -7.8800   -3.1296   -0.7353 C   0  0  0  0  0  0  0  0  0  0  0  0
    2.7687    1.1021   -2.8981 H   0  0  0  0  0  0  0  0  0  0  0  0
    0.8359   -1.3805   -1.1523 H   0  0  0  0  0  0  0  0  0  0  0  0
    1.5238    2.6999    0.0757 H   0  0  0  0  0  0  0  0  0  0  0  0
    6.7015   -1.1554    2.2660 H   0  0  0  0  0  0  0  0  0  0  0  0
   -1.5142   -1.1143   -0.8071 H   0  0  0  0  0  0  0  0  0  0  0  0
   -0.8851    2.9963    0.4371 H   0  0  0  0  0  0  0  0  0  0  0  0
   -3.0446    2.0683    0.3810 H   0  0  0  0  0  0  0  0  0  0  0  0
    2.3467   -0.6406    3.1226 H   0  0  0  0  0  0  0  0  0  0  0  0
    1.5255   -0.0711    1.7020 H   0  0  0  0  0  0  0  0  0  0  0  0
    8.3693   -0.0417    1.5794 H   0  0  0  0  0  0  0  0  0  0  0  0
   -5.0216    1.7633    0.5049 H   0  0  0  0  0  0  0  0  0  0  0  0
   -5.6376   -1.7557   -0.5469 H   0  0  0  0  0  0  0  0  0  0  0  0
   -9.8464   -1.4144    0.0346 H   0  0  0  0  0  0  0  0  0  0  0  0
   -9.5908    0.9328    0.7532 H   0  0  0  0  0  0  0  0  0  0  0  0
   10.5460   -0.6396    1.0328 H   0  0  0  0  0  0  0  0  0  0  0  0
   10.2183    0.7341   -0.0622 H   0  0  0  0  0  0  0  0  0  0  0  0
   10.0754   -0.9397   -0.6691 H   0  0  0  0  0  0  0  0  0  0  0  0
   -7.3024   -3.3159   -1.6470 H   0  0  0  0  0  0  0  0  0  0  0  0
   -7.5298   -3.8043    0.0523 H   0  0  0  0  0  0  0  0  0  0  0  0
   -8.9236   -3.3767   -0.9576 H   0  0  0  0  0  0  0  0  0  0  0  0
  1 12  1  0  0  0  0
  1 15  1  0  0  0  0
  2 28  1  0  0  0  0
  3 23  2  0  0  0  0
  4 25  2  0  0  0  0
  5 16  2  0  0  0  0
  5 20  1  0  0  0  0
  6 19  1  0  0  0  0
  6 25  1  0  0  0  0
  6 39  1  0  0  0  0
  7 16  1  0  0  0  0
  7 40  1  0  0  0  0
  7 41  1  0  0  0  0
  8 23  1  0  0  0  0
  8 31  1  0  0  0  0
  8 42  1  0  0  0  0
  9 24  1  0  0  0  0
  9 25  1  0  0  0  0
  9 43  1  0  0  0  0
 10 11  1  0  0  0  0
 10 12  2  0  0  0  0
 10 16  1  0  0  0  0
 11 13  1  0  0  0  0
 11 15  2  0  0  0  0
 12 14  1  0  0  0  0
 13 17  2  0  0  0  0
 13 18  1  0  0  0  0
 14 20  2  0  0  0  0
 14 23  1  0  0  0  0
 15 33  1  0  0  0  0
 17 21  1  0  0  0  0
 17 34  1  0  0  0  0
 18 22  2  0  0  0  0
 18 35  1  0  0  0  0
 19 21  2  0  0  0  0
 19 22  1  0  0  0  0
 20 36  1  0  0  0  0
 21 37  1  0  0  0  0
 22 38  1  0  0  0  0
 24 27  1  0  0  0  0
 24 28  2  0  0  0  0
 26 27  2  0  0  0  0
 26 29  1  0  0  0  0
 26 32  1  0  0  0  0
 27 44  1  0  0  0  0
 28 30  1  0  0  0  0
 29 30  2  0  0  0  0
 29 45  1  0  0  0  0
 30 46  1  0  0  0  0
 31 47  1  0  0  0  0
 31 48  1  0  0  0  0
 31 49  1  0  0  0  0
 32 50  1  0  0  0  0
 32 51  1  0  0  0  0
 32 52  1  0  0  0  0
M  END
> <PUBCHEM_COMPOUND_CID>
49830357

> <PUBCHEM_CONFORMER_RMSD>
1

> <PUBCHEM_CONFORMER_DIVERSEORDER>
1
23
26
10
6
22
8
11
2
9
13
17
24
16
21
20
3
15
27
18
5
25
7
4
12
14
19

> <PUBCHEM_MMFF94_PARTIAL_CHARGES>
45
1 -0.08
11 -0.05
12 0.04
13 0.05
14 0.09
15 -0.11
16 0.41
17 -0.15
18 -0.15
19 0.12
2 -0.19
20 0.16
21 -0.15
22 -0.15
23 0.54
24 0.12
25 0.69
26 -0.14
27 -0.15
28 0.19
29 -0.15
3 -0.57
30 -0.15
31 0.3
32 0.14
33 0.15
34 0.15
35 0.15
36 0.15
37 0.15
38 0.15
39 0.37
4 -0.57
40 0.4
41 0.4
42 0.37
43 0.37
44 0.15
45 0.15
46 0.15
5 -0.62
6 -0.55
7 -0.9
8 -0.73
9 -0.55

> <PUBCHEM_EFFECTIVE_ROTOR_COUNT>
7

> <PUBCHEM_PHARMACOPHORE_FEATURES>
11
1 3 acceptor
1 4 acceptor
1 6 donor
1 7 donor
1 8 donor
1 9 donor
3 5 7 16 cation
5 1 10 11 12 15 rings
6 13 17 18 19 21 22 rings
6 24 26 27 28 29 30 rings
6 5 10 12 14 16 20 rings

> <PUBCHEM_HEAVY_ATOM_COUNT>
32

> <PUBCHEM_ATOM_DEF_STEREO_COUNT>
0

> <PUBCHEM_ATOM_UDEF_STEREO_COUNT>
0

> <PUBCHEM_BOND_DEF_STEREO_COUNT>
0

> <PUBCHEM_BOND_UDEF_STEREO_COUNT>
0

> <PUBCHEM_ISOTOPIC_ATOM_COUNT>
0

> <PUBCHEM_COMPONENT_COUNT>
1

> <PUBCHEM_CACTVS_TAUTO_COUNT>
21

> <PUBCHEM_CONFORMER_ID>
02F859D500000001

> <PUBCHEM_MMFF94_ENERGY>
101.2189

> <PUBCHEM_FEATURE_SELFOVERLAP>
55.936

> <PUBCHEM_SHAPE_FINGERPRINT>
10 15 16630525133148546845
10299344 5 18040155115424831139
10533779 47 16271941405787424911
106641 1 18273212011217268824
11135609 127 11314608528003814382
11456790 92 15698001795682738866
11607047 74 18267028426991196020
12089408 11 18333735719310006132
12236239 1 18040998394010437732
12592606 108 18334012813478304675
12741549 16 17203607065531404424
14068700 675 18410016546549374021
14118638 360 15936680489457197189
14150022 121 16988288581934474545
14251764 18 17967814946634853155
15119646 104 18040151791072944395
15183329 4 16877657972762982529
15198563 99 14562800020231942871
15247644 1 17821449071570020067
15301273 46 17775566420581095700
15328684 2 18189331269492918961
15419008 47 17203608160299860337
15419008 91 17846204541514945753
15510794 2 17632863009767266807
15840311 113 18334577976068053036
19315958 150 16200436875283535462
20105231 36 18131635565652264374
21150785 3 14129060309413577853
21792961 116 14996278106741081612
22002106 203 17345462882125266103
22224240 67 16056879130960383581
22956985 138 17977666407680710422
23081809 10 18040721381399272125
232437 2 18335702728933459214
23522609 53 18042995145692300445
23576562 1 8934128457139648371
249057 3 16153714244909656570
3178227 256 15841548570938484766
335352 9 16660650648908391118
3383291 50 18059857320566840055
3411729 13 18056471979703990080
3633792 109 16370722613006108797
397830 11 16629954564587936431
4098825 35 16515677811212952189
44389302 135 18336820889304714010
5219985 9 18040997341105595301
59682541 35 17561361794556681792
9962374 69 18409445929308273860

> <PUBCHEM_SHAPE_MULTIPOLES>
618.48
32.17
1.72
1.51
20.35
0.24
0.08
12.23
1.35
3.71
-0.1
-2.48
0.18
-3

> <PUBCHEM_SHAPE_SELFOVERLAP>
1350.249

> <PUBCHEM_SHAPE_VOLUME>
340.5

> <PUBCHEM_COORDINATE_TYPE>
2
5
10

$$$$
