10043997
  -OEChem-10052115193D

 44 47  0     0  0  0  0  0  0999 V2000
    5.7210   -1.7061   -0.8192 O   0  0  0  0  0  0  0  0  0  0  0  0
   -2.6377    0.1975   -1.2153 O   0  0  0  0  0  0  0  0  0  0  0  0
   -1.7585   -0.5526    0.8228 N   0  0  0  0  0  0  0  0  0  0  0  0
    7.1922    0.1355   -0.4380 N   0  0  0  0  0  0  0  0  0  0  0  0
   -4.0378   -0.2503    0.6035 N   0  0  0  0  0  0  0  0  0  0  0  0
    6.0777    2.1217    0.4249 N   0  0  0  0  0  0  0  0  0  0  0  0
    3.7326    2.2049    0.8448 N   0  0  0  0  0  0  0  0  0  0  0  0
    3.7674   -0.7873   -0.1799 C   0  0  0  0  0  0  0  0  0  0  0  0
    2.3587   -0.7282    0.0755 C   0  0  0  0  0  0  0  0  0  0  0  0
    4.7855    0.1834   -0.0194 C   0  0  0  0  0  0  0  0  0  0  0  0
    5.9697   -0.4245   -0.4244 C   0  0  0  0  0  0  0  0  0  0  0  0
    1.8586   -1.0840    1.3297 C   0  0  0  0  0  0  0  0  0  0  0  0
    1.4816   -0.3136   -0.9289 C   0  0  0  0  0  0  0  0  0  0  0  0
    4.3870   -1.9149   -0.6675 C   0  0  0  0  0  0  0  0  0  0  0  0
   -0.3869   -0.6110    0.5736 C   0  0  0  0  0  0  0  0  0  0  0  0
    4.8742    1.5036    0.4154 C   0  0  0  0  0  0  0  0  0  0  0  0
    0.4874   -1.0256    1.5785 C   0  0  0  0  0  0  0  0  0  0  0  0
    0.1103   -0.2551   -0.6802 C   0  0  0  0  0  0  0  0  0  0  0  0
   -5.3212    0.0474    0.0874 C   0  0  0  0  0  0  0  0  0  0  0  0
   -7.6965    0.1906    0.3914 C   0  0  0  0  0  0  0  0  0  0  0  0
   -2.8002   -0.1626   -0.0537 C   0  0  0  0  0  0  0  0  0  0  0  0
   -6.4319   -0.1031    0.9013 C   0  0  0  0  0  0  0  0  0  0  0  0
   -5.4398    0.4831   -1.2222 C   0  0  0  0  0  0  0  0  0  0  0  0
    7.1470    1.4090    0.0033 C   0  0  0  0  0  0  0  0  0  0  0  0
   -7.8327    0.6306   -0.9253 C   0  0  0  0  0  0  0  0  0  0  0  0
   -6.7044    0.7769   -1.7320 C   0  0  0  0  0  0  0  0  0  0  0  0
   -8.9033    0.0348    1.2540 C   0  0  0  0  0  0  0  0  0  0  0  0
    2.5260   -1.4081    2.1249 H   0  0  0  0  0  0  0  0  0  0  0  0
    1.8537   -0.0314   -1.9113 H   0  0  0  0  0  0  0  0  0  0  0  0
    4.0406   -2.9006   -0.9453 H   0  0  0  0  0  0  0  0  0  0  0  0
    0.1139   -1.3055    2.5602 H   0  0  0  0  0  0  0  0  0  0  0  0
   -0.4993    0.0758   -1.5087 H   0  0  0  0  0  0  0  0  0  0  0  0
   -2.0443   -0.8273    1.7594 H   0  0  0  0  0  0  0  0  0  0  0  0
   -6.3239   -0.4442    1.9279 H   0  0  0  0  0  0  0  0  0  0  0  0
   -4.0186   -0.5654    1.5702 H   0  0  0  0  0  0  0  0  0  0  0  0
   -4.6197    0.6222   -1.9103 H   0  0  0  0  0  0  0  0  0  0  0  0
    8.0962    1.9336    0.0234 H   0  0  0  0  0  0  0  0  0  0  0  0
   -8.8123    0.8644   -1.3337 H   0  0  0  0  0  0  0  0  0  0  0  0
    3.8373    3.1620    1.1539 H   0  0  0  0  0  0  0  0  0  0  0  0
    2.8211    1.7709    0.8500 H   0  0  0  0  0  0  0  0  0  0  0  0
   -6.8120    1.1200   -2.7570 H   0  0  0  0  0  0  0  0  0  0  0  0
   -8.7731   -0.7841    1.9697 H   0  0  0  0  0  0  0  0  0  0  0  0
   -9.0907    0.9598    1.8083 H   0  0  0  0  0  0  0  0  0  0  0  0
   -9.7902   -0.2010    0.6559 H   0  0  0  0  0  0  0  0  0  0  0  0
  1 11  1  0  0  0  0
  1 14  1  0  0  0  0
  2 21  2  0  0  0  0
  3 15  1  0  0  0  0
  3 21  1  0  0  0  0
  3 33  1  0  0  0  0
  4 11  2  0  0  0  0
  4 24  1  0  0  0  0
  5 19  1  0  0  0  0
  5 21  1  0  0  0  0
  5 35  1  0  0  0  0
  6 16  1  0  0  0  0
  6 24  2  0  0  0  0
  7 16  1  0  0  0  0
  7 39  1  0  0  0  0
  7 40  1  0  0  0  0
  8  9  1  0  0  0  0
  8 10  1  0  0  0  0
  8 14  2  0  0  0  0
  9 12  2  0  0  0  0
  9 13  1  0  0  0  0
 10 11  1  0  0  0  0
 10 16  2  0  0  0  0
 12 17  1  0  0  0  0
 12 28  1  0  0  0  0
 13 18  2  0  0  0  0
 13 29  1  0  0  0  0
 14 30  1  0  0  0  0
 15 17  2  0  0  0  0
 15 18  1  0  0  0  0
 17 31  1  0  0  0  0
 18 32  1  0  0  0  0
 19 22  1  0  0  0  0
 19 23  2  0  0  0  0
 20 22  2  0  0  0  0
 20 25  1  0  0  0  0
 20 27  1  0  0  0  0
 22 34  1  0  0  0  0
 23 26  1  0  0  0  0
 23 36  1  0  0  0  0
 24 37  1  0  0  0  0
 25 26  2  0  0  0  0
 25 38  1  0  0  0  0
 26 41  1  0  0  0  0
 27 42  1  0  0  0  0
 27 43  1  0  0  0  0
 27 44  1  0  0  0  0
M  END
> <PUBCHEM_COMPOUND_CID>
10043997

> <PUBCHEM_CONFORMER_RMSD>
0.8

> <PUBCHEM_CONFORMER_DIVERSEORDER>
1
16
12
18
8
14
9
11
2
17
4
10
13
15
7
5
3
6

> <PUBCHEM_MMFF94_PARTIAL_CHARGES>
40
1 -0.28
11 0.4
12 -0.15
13 -0.15
14 -0.01
15 0.12
16 0.41
17 -0.15
18 -0.15
19 0.12
2 -0.57
20 -0.14
21 0.69
22 -0.15
23 -0.15
24 0.47
25 -0.15
26 -0.15
27 0.14
28 0.15
29 0.15
3 -0.55
30 0.15
31 0.15
32 0.15
33 0.37
34 0.15
35 0.37
36 0.15
37 0.15
38 0.15
39 0.4
4 -0.57
40 0.4
41 0.15
5 -0.55
6 -0.62
7 -0.9
8 -0.05
9 0.05

> <PUBCHEM_EFFECTIVE_ROTOR_COUNT>
5

> <PUBCHEM_PHARMACOPHORE_FEATURES>
10
1 2 acceptor
1 3 donor
1 5 donor
1 7 cation
1 7 donor
3 4 6 24 cation
5 1 8 10 11 14 rings
6 19 20 22 23 25 26 rings
6 4 6 10 11 16 24 rings
6 9 12 13 15 17 18 rings

> <PUBCHEM_HEAVY_ATOM_COUNT>
27

> <PUBCHEM_ATOM_DEF_STEREO_COUNT>
0

> <PUBCHEM_ATOM_UDEF_STEREO_COUNT>
0

> <PUBCHEM_BOND_DEF_STEREO_COUNT>
0

> <PUBCHEM_BOND_UDEF_STEREO_COUNT>
0

> <PUBCHEM_ISOTOPIC_ATOM_COUNT>
0

> <PUBCHEM_COMPONENT_COUNT>
1

> <PUBCHEM_CACTVS_TAUTO_COUNT>
12

> <PUBCHEM_CONFORMER_ID>
0099425D00000001

> <PUBCHEM_MMFF94_ENERGY>
81.9622

> <PUBCHEM_FEATURE_SELFOVERLAP>
50.918

> <PUBCHEM_SHAPE_FINGERPRINT>
10 15 16588027939119446564
10066227 112 18341890801421936831
10299344 5 17132114632990596095
10319688 140 18193837041962848626
10411042 1 17982739568191811510
10638233 991 17846778520627365289
106641 1 15430036591235269140
11181472 205 18056479440536260961
11315181 36 18272370876764653715
11646440 116 17894635850568295669
11719270 70 15936406723830738963
11963148 33 14548730686158345868
12236239 1 17060342916328989798
12516196 113 17894349965218912525
12730499 353 18260829272294350690
12838862 33 16878213239183616959
13533116 47 17703509892259969126
13617811 41 14476967791591147136
13668630 136 12319733679187604477
14028597 1 13912591733003027877
14068700 675 15626224624216768081
14170010 4 18260832609088047564
14251764 18 16702301239957903871
14251764 46 17489588956829574462
14461889 52 16660369177598862147
14856354 85 16630521861196045837
14933364 13 18411982459979233317
15183329 4 15123793985458667923
15419008 47 18040992938880467109
1577012 14 17275100635372452061
15849732 13 18333452041131286311
18335252 114 18130783469156245128
18608769 82 17458345252021575453
20157964 124 18343303661131870374
20554085 129 17240479217284115384
20771845 171 16701752592092734708
21033648 29 18115864273599522312
21130935 74 16878217555499097771
21150785 3 17561362885356997105
21344244 78 13046212919282499862
21521721 280 18413390942690341451
221357 26 18342455920371214224
22149856 69 16661210218253182269
22224240 67 16732984236584774923
22956985 138 14998223049017611778
23081809 10 17131835343909840971
23424782 7 18335423521441278155
23516275 137 17202226065731610975
23522609 53 16773256057834241753
23576562 1 16271068488260385497
24771293 8 17604991588810665460
249057 3 18201719570261152766
249999 5 17023734616131160562
255183 451 17201093491798342782
3004659 81 15195280945366666779
3092352 35 17632578249752731799
335352 9 15123787371794419121
34797466 226 18342460322395902254
397830 11 18116724095786859387
4073 2 18335705000132915298
4093350 32 18343021073241678646
4325135 7 17060341816406009373
5104073 3 16734093553754912185
5283156 175 16702307828253184590
5385378 56 16443619117236167858
5758199 1 17603868888722932379
58902169 19 17489582398293564964
59682541 35 16950286234568203401
67123 10 18343866628734607267

> <PUBCHEM_SHAPE_MULTIPOLES>
519
26.39
1.5
1.29
29.72
0.32
0.04
7.64
0.33
-2.92
-0.2
1.06
-0.01
2.31

> <PUBCHEM_SHAPE_SELFOVERLAP>
1153.666

> <PUBCHEM_SHAPE_VOLUME>
275.7

> <PUBCHEM_COORDINATE_TYPE>
2
5
10

$$$$
