9932061
  -OEChem-10062121573D

 49 56  0     1  0  0  0  0  0999 V2000
    0.4584   -2.6730   -1.5739 O   0  0  0  0  0  0  0  0  0  0  0  0
    2.2002   -3.9303    2.6056 O   0  0  0  0  0  0  0  0  0  0  0  0
    1.2206    4.4454    0.3832 O   0  0  0  0  0  0  0  0  0  0  0  0
   -3.2594    3.3919    0.4754 O   0  0  0  0  0  0  0  0  0  0  0  0
    1.6319   -0.9610   -0.5248 N   0  0  0  0  0  0  0  0  0  0  0  0
   -1.2478   -1.6356   -0.4262 N   0  0  0  0  0  0  0  0  0  0  0  0
   -1.1041    4.2853    0.4912 N   0  0  0  0  0  0  0  0  0  0  0  0
    1.6264   -2.3766   -0.8122 C   0  0  1  0  0  0  0  0  0  0  0  0
    1.5569   -3.3168    0.3881 C   0  0  2  0  0  0  0  0  0  0  0  0
   -0.5726   -2.8956   -0.6144 C   0  0  2  0  0  0  0  0  0  0  0  0
    0.0690   -3.4005    0.6744 C   0  0  0  0  0  0  0  0  0  0  0  0
    0.6325   -0.0499   -0.3053 C   0  0  0  0  0  0  0  0  0  0  0  0
   -0.7552   -0.3715   -0.2668 C   0  0  0  0  0  0  0  0  0  0  0  0
    0.9471    1.3503   -0.0973 C   0  0  0  0  0  0  0  0  0  0  0  0
   -1.6534    0.7402   -0.0365 C   0  0  0  0  0  0  0  0  0  0  0  0
    2.7698   -0.1535   -0.4595 C   0  0  0  0  0  0  0  0  0  0  0  0
   -2.6182   -1.4341   -0.2951 C   0  0  0  0  0  0  0  0  0  0  0  0
    2.3971   -2.9508    1.5992 C   0  0  0  0  0  0  0  0  0  0  0  0
    2.4037    1.2050   -0.2083 C   0  0  0  0  0  0  0  0  0  0  0  0
   -2.8934   -0.0479   -0.0753 C   0  0  0  0  0  0  0  0  0  0  0  0
    0.0445    2.3861    0.1226 C   0  0  0  0  0  0  0  0  0  0  0  0
   -1.3005    2.0714    0.1500 C   0  0  0  0  0  0  0  0  0  0  0  0
    4.1233   -0.5234   -0.6035 C   0  0  0  0  0  0  0  0  0  0  0  0
   -3.6603   -2.3818   -0.3461 C   0  0  0  0  0  0  0  0  0  0  0  0
    0.1811    3.8184    0.3425 C   0  0  0  0  0  0  0  0  0  0  0  0
   -2.0518    3.2941    0.3894 C   0  0  0  0  0  0  0  0  0  0  0  0
    3.4543    2.1529   -0.1133 C   0  0  0  0  0  0  0  0  0  0  0  0
   -4.2527    0.3274    0.0739 C   0  0  0  0  0  0  0  0  0  0  0  0
    5.1190    0.4474   -0.5005 C   0  0  0  0  0  0  0  0  0  0  0  0
   -4.9810   -1.9606   -0.1917 C   0  0  0  0  0  0  0  0  0  0  0  0
    4.7905    1.7702   -0.2586 C   0  0  0  0  0  0  0  0  0  0  0  0
   -5.2757   -0.6230    0.0136 C   0  0  0  0  0  0  0  0  0  0  0  0
    2.4929   -2.6009   -1.4412 H   0  0  0  0  0  0  0  0  0  0  0  0
    1.8594   -4.3188    0.0498 H   0  0  0  0  0  0  0  0  0  0  0  0
   -1.2750   -3.6200   -1.0340 H   0  0  0  0  0  0  0  0  0  0  0  0
   -0.2262   -4.4376    0.8721 H   0  0  0  0  0  0  0  0  0  0  0  0
   -0.2362   -2.8126    1.5481 H   0  0  0  0  0  0  0  0  0  0  0  0
    2.1329   -1.9738    2.0161 H   0  0  0  0  0  0  0  0  0  0  0  0
    3.4604   -2.9391    1.3422 H   0  0  0  0  0  0  0  0  0  0  0  0
    4.4056   -1.5557   -0.7889 H   0  0  0  0  0  0  0  0  0  0  0  0
   -3.4535   -3.4362   -0.5033 H   0  0  0  0  0  0  0  0  0  0  0  0
    3.2427    3.1995    0.0757 H   0  0  0  0  0  0  0  0  0  0  0  0
   -4.5279    1.3628    0.2415 H   0  0  0  0  0  0  0  0  0  0  0  0
   -1.3293    5.2595    0.6597 H   0  0  0  0  0  0  0  0  0  0  0  0
    1.2964   -3.8318    2.9490 H   0  0  0  0  0  0  0  0  0  0  0  0
    6.1613    0.1605   -0.6103 H   0  0  0  0  0  0  0  0  0  0  0  0
   -5.7848   -2.6906   -0.2330 H   0  0  0  0  0  0  0  0  0  0  0  0
    5.5749    2.5179   -0.1801 H   0  0  0  0  0  0  0  0  0  0  0  0
   -6.3088   -0.3080    0.1322 H   0  0  0  0  0  0  0  0  0  0  0  0
  1  8  1  0  0  0  0
  1 10  1  0  0  0  0
  2 18  1  0  0  0  0
  2 45  1  0  0  0  0
  3 25  2  0  0  0  0
  4 26  2  0  0  0  0
  5  8  1  0  0  0  0
  5 12  1  0  0  0  0
  5 16  1  0  0  0  0
  6 10  1  0  0  0  0
  6 13  1  0  0  0  0
  6 17  1  0  0  0  0
  7 25  1  0  0  0  0
  7 26  1  0  0  0  0
  7 44  1  0  0  0  0
  8  9  1  0  0  0  0
  8 33  1  0  0  0  0
  9 11  1  0  0  0  0
  9 18  1  0  0  0  0
  9 34  1  0  0  0  0
 10 11  1  0  0  0  0
 10 35  1  0  0  0  0
 11 36  1  0  0  0  0
 11 37  1  0  0  0  0
 12 13  2  0  0  0  0
 12 14  1  0  0  0  0
 13 15  1  0  0  0  0
 14 19  1  0  0  0  0
 14 21  2  0  0  0  0
 15 20  1  0  0  0  0
 15 22  2  0  0  0  0
 16 19  1  0  0  0  0
 16 23  2  0  0  0  0
 17 20  1  0  0  0  0
 17 24  2  0  0  0  0
 18 38  1  0  0  0  0
 18 39  1  0  0  0  0
 19 27  2  0  0  0  0
 20 28  2  0  0  0  0
 21 22  1  0  0  0  0
 21 25  1  0  0  0  0
 22 26  1  0  0  0  0
 23 29  1  0  0  0  0
 23 40  1  0  0  0  0
 24 30  1  0  0  0  0
 24 41  1  0  0  0  0
 27 31  1  0  0  0  0
 27 42  1  0  0  0  0
 28 32  1  0  0  0  0
 28 43  1  0  0  0  0
 29 31  2  0  0  0  0
 29 46  1  0  0  0  0
 30 32  2  0  0  0  0
 30 47  1  0  0  0  0
 31 48  1  0  0  0  0
 32 49  1  0  0  0  0
M  END
> <PUBCHEM_COMPOUND_CID>
9932061

> <PUBCHEM_CONFORMER_RMSD>
0.6

> <PUBCHEM_CONFORMER_DIVERSEORDER>
1

> <PUBCHEM_MMFF94_PARTIAL_CHARGES>
38
1 -0.56
10 0.54
12 -0.05
13 -0.05
14 -0.01
15 -0.01
16 -0.15
17 -0.15
18 0.28
2 -0.68
21 0.09
22 0.09
23 -0.15
24 -0.15
25 0.54
26 0.54
27 -0.15
28 -0.15
29 -0.15
3 -0.57
30 -0.15
31 -0.15
32 -0.15
4 -0.57
40 0.15
41 0.15
42 0.15
43 0.15
44 0.37
45 0.4
46 0.15
47 0.15
48 0.15
49 0.15
5 -0.04
6 -0.04
7 -0.49
8 0.54

> <PUBCHEM_EFFECTIVE_ROTOR_COUNT>
1.8

> <PUBCHEM_PHARMACOPHORE_FEATURES>
16
1 1 acceptor
1 2 acceptor
1 2 donor
1 3 acceptor
1 4 acceptor
1 5 cation
1 6 cation
1 7 donor
5 1 8 9 10 11 rings
5 5 12 14 16 19 rings
5 6 13 15 17 20 rings
5 7 21 22 25 26 rings
6 12 13 14 15 21 22 rings
6 16 19 23 27 29 31 rings
6 17 20 24 28 30 32 rings
7 1 5 6 8 10 12 13 rings

> <PUBCHEM_HEAVY_ATOM_COUNT>
32

> <PUBCHEM_ATOM_DEF_STEREO_COUNT>
3

> <PUBCHEM_ATOM_UDEF_STEREO_COUNT>
0

> <PUBCHEM_BOND_DEF_STEREO_COUNT>
0

> <PUBCHEM_BOND_UDEF_STEREO_COUNT>
0

> <PUBCHEM_ISOTOPIC_ATOM_COUNT>
0

> <PUBCHEM_COMPONENT_COUNT>
1

> <PUBCHEM_CACTVS_TAUTO_COUNT>
3

> <PUBCHEM_CONFORMER_ID>
00978D1D00000001

> <PUBCHEM_MMFF94_ENERGY>
129.7522

> <PUBCHEM_FEATURE_SELFOVERLAP>
82.999

> <PUBCHEM_SHAPE_FINGERPRINT>
10006869 2 18341043009237529423
10074138 170 16892821079380954530
10906281 52 18053688011560675204
10967382 1 17981045528702285069
1100329 8 18123188180011513532
11007060 377 18337969947901172888
11578080 2 17241877684279338079
12553582 1 18341040883144211311
12788726 201 18337678619916076832
13140716 1 18050003595145075753
138480 1 16250263086678628436
14020679 6 17828481710663988578
14787075 74 18335703909100127566
14790565 3 18339652259904009533
15420108 30 17770812046941590257
15927050 60 18053674576681427213
16112460 7 17982753049117766137
16728300 4 17753013217187987240
18681886 176 18058163015464892735
19319366 153 18114741667832569702
19591789 44 18413110584368321260
20642791 178 18117572927364538645
20905425 154 18270967821257476878
21421861 104 18263934228458488307
22113638 7 18126846229437876933
23558518 356 18192164710503502772
23559900 14 17983577700234880776
24771293 8 17843676905409596936
283562 15 18412549816200270600
3178227 256 18192162709771449235
335352 9 18269276948530933229
34934 24 18413951685479004583
350125 39 18340210696057110884
352729 6 17764872390517600837
392239 28 18411143545159891506
469060 322 18340499910190843345
6004065 56 18055625377134962527
6138700 20 18412549842381388302
7097593 13 17612024876588289650

> <PUBCHEM_SHAPE_MULTIPOLES>
620.12
8.21
5.9
1.04
1.95
2.27
-0.45
-0.34
0.94
-0.53
-2.17
-0.59
-1.19
-1.18

> <PUBCHEM_SHAPE_SELFOVERLAP>
1462.374

> <PUBCHEM_SHAPE_VOLUME>
310.3

> <PUBCHEM_COORDINATE_TYPE>
2
5
10

$$$$
