16109001
  -OEChem-10062121593D

 73 76  0     1  0  0  0  0  0999 V2000
   -7.3817    1.0150    1.3966 F   0  0  0  0  0  0  0  0  0  0  0  0
   -7.0721   -0.9483    0.5284 F   0  0  0  0  0  0  0  0  0  0  0  0
   -6.2237   -0.4771    2.4743 F   0  0  0  0  0  0  0  0  0  0  0  0
   -1.7939   -4.9189   -0.8825 F   0  0  0  0  0  0  0  0  0  0  0  0
   -2.7801   -2.8409    0.3546 O   0  0  0  0  0  0  0  0  0  0  0  0
    2.9470   -2.1492   -0.8075 O   0  0  0  0  0  0  0  0  0  0  0  0
   -1.6739    1.9036   -1.2407 N   0  0  3  0  0  0  0  0  0  0  0  0
    1.5488    4.5968   -0.0882 N   0  0  0  0  0  0  0  0  0  0  0  0
   -1.9263   -0.8199   -0.4889 N   0  0  0  0  0  0  0  0  0  0  0  0
    2.3704   -0.7976   -2.6023 N   0  0  0  0  0  0  0  0  0  0  0  0
    3.4358   -0.3972    1.5542 N   0  0  0  0  0  0  0  0  0  0  0  0
    5.5334    0.2863    0.6108 N   0  0  0  0  0  0  0  0  0  0  0  0
    3.3273   -0.9398    3.8330 N   0  0  0  0  0  0  0  0  0  0  0  0
    5.3910   -0.2740    2.9396 N   0  0  0  0  0  0  0  0  0  0  0  0
   -0.5812    2.4335   -0.4614 C   0  0  0  0  0  0  0  0  0  0  0  0
   -0.8293    3.9000   -0.1099 C   0  0  0  0  0  0  0  0  0  0  0  0
    0.3053    4.5689    0.6722 C   0  0  0  0  0  0  0  0  0  0  0  0
   -2.8434    1.4267   -0.6316 C   0  0  0  0  0  0  0  0  0  0  0  0
   -2.9649    0.0873   -0.2610 C   0  0  0  0  0  0  0  0  0  0  0  0
   -1.5490    1.8828   -2.6995 C   0  0  0  0  0  0  0  0  0  0  0  0
   -3.8935    2.3138   -0.3950 C   0  0  0  0  0  0  0  0  0  0  0  0
   -4.1366   -0.3647    0.3460 C   0  0  0  0  0  0  0  0  0  0  0  0
   -5.1867    0.5225    0.5824 C   0  0  0  0  0  0  0  0  0  0  0  0
   -5.0651    1.8617    0.2119 C   0  0  0  0  0  0  0  0  0  0  0  0
    2.6881    4.8513    0.7954 C   0  0  0  0  0  0  0  0  0  0  0  0
    1.4868    5.6120   -1.1412 C   0  0  0  0  0  0  0  0  0  0  0  0
   -6.4404    0.0392    1.2295 C   0  0  0  0  0  0  0  0  0  0  0  0
   -1.8928   -2.1843   -0.1796 C   0  0  0  0  0  0  0  0  0  0  0  0
   -0.6259   -2.8825   -0.5222 C   0  0  0  0  0  0  0  0  0  0  0  0
    0.5797   -2.1813   -0.5039 C   0  0  0  0  0  0  0  0  0  0  0  0
   -0.6409   -4.2352   -0.8619 C   0  0  0  0  0  0  0  0  0  0  0  0
    1.7705   -2.8329   -0.8255 C   0  0  0  0  0  0  0  0  0  0  0  0
    0.5498   -4.8870   -1.1834 C   0  0  0  0  0  0  0  0  0  0  0  0
    1.7554   -4.1858   -1.1651 C   0  0  0  0  0  0  0  0  0  0  0  0
    2.9723   -0.8957   -1.3957 C   0  0  0  0  0  0  0  0  0  0  0  0
    3.5897    0.1624   -0.7485 C   0  0  0  0  0  0  0  0  0  0  0  0
    3.5893    1.4012   -1.3803 C   0  0  0  0  0  0  0  0  0  0  0  0
    4.2215    0.0082    0.5437 C   0  0  0  0  0  0  0  0  0  0  0  0
    2.9802    1.5417   -2.6223 C   0  0  0  0  0  0  0  0  0  0  0  0
    2.3900    0.4218   -3.1857 C   0  0  0  0  0  0  0  0  0  0  0  0
    4.0883   -0.5160    2.7218 C   0  0  0  0  0  0  0  0  0  0  0  0
    6.0503    0.1232    1.8394 C   0  0  0  0  0  0  0  0  0  0  0  0
    1.9305   -1.2317    3.7500 C   0  0  0  0  0  0  0  0  0  0  0  0
   -0.4487    1.8492    0.4583 H   0  0  0  0  0  0  0  0  0  0  0  0
    0.3574    2.3310   -1.0171 H   0  0  0  0  0  0  0  0  0  0  0  0
   -1.7280    3.9678    0.5162 H   0  0  0  0  0  0  0  0  0  0  0  0
   -1.0663    4.4691   -1.0165 H   0  0  0  0  0  0  0  0  0  0  0  0
    0.0013    5.5763    0.9848 H   0  0  0  0  0  0  0  0  0  0  0  0
    0.4436    3.9881    1.5941 H   0  0  0  0  0  0  0  0  0  0  0  0
   -1.4626    0.8525   -3.0594 H   0  0  0  0  0  0  0  0  0  0  0  0
   -2.4248    2.3454   -3.1670 H   0  0  0  0  0  0  0  0  0  0  0  0
   -0.6653    2.4350   -3.0365 H   0  0  0  0  0  0  0  0  0  0  0  0
   -3.8177    3.3585   -0.6858 H   0  0  0  0  0  0  0  0  0  0  0  0
   -4.3055   -1.3842    0.6601 H   0  0  0  0  0  0  0  0  0  0  0  0
   -5.8727    2.5674    0.3858 H   0  0  0  0  0  0  0  0  0  0  0  0
    2.7772    4.0593    1.5475 H   0  0  0  0  0  0  0  0  0  0  0  0
    2.6026    5.8137    1.3130 H   0  0  0  0  0  0  0  0  0  0  0  0
    3.6251    4.8462    0.2272 H   0  0  0  0  0  0  0  0  0  0  0  0
    0.7152    5.3805   -1.8816 H   0  0  0  0  0  0  0  0  0  0  0  0
    2.4320    5.6406   -1.6961 H   0  0  0  0  0  0  0  0  0  0  0  0
    1.2990    6.6153   -0.7420 H   0  0  0  0  0  0  0  0  0  0  0  0
   -1.1237   -0.4170   -0.9647 H   0  0  0  0  0  0  0  0  0  0  0  0
    0.6134   -1.1426   -0.1863 H   0  0  0  0  0  0  0  0  0  0  0  0
    0.5377   -5.9402   -1.4478 H   0  0  0  0  0  0  0  0  0  0  0  0
    2.6798   -4.6986   -1.4166 H   0  0  0  0  0  0  0  0  0  0  0  0
    4.0547    2.2687   -0.9189 H   0  0  0  0  0  0  0  0  0  0  0  0
    2.9645    2.4986   -3.1314 H   0  0  0  0  0  0  0  0  0  0  0  0
    1.8991    0.4793   -4.1515 H   0  0  0  0  0  0  0  0  0  0  0  0
    7.1063    0.3335    1.9545 H   0  0  0  0  0  0  0  0  0  0  0  0
    3.8144   -1.0317    4.7165 H   0  0  0  0  0  0  0  0  0  0  0  0
    1.7369   -2.0502    3.0489 H   0  0  0  0  0  0  0  0  0  0  0  0
    1.5562   -1.5392    4.7313 H   0  0  0  0  0  0  0  0  0  0  0  0
    1.3588   -0.3520    3.4367 H   0  0  0  0  0  0  0  0  0  0  0  0
  1 27  1  0  0  0  0
  2 27  1  0  0  0  0
  3 27  1  0  0  0  0
  4 31  1  0  0  0  0
  5 28  2  0  0  0  0
  6 32  1  0  0  0  0
  6 35  1  0  0  0  0
  7 15  1  0  0  0  0
  7 18  1  0  0  0  0
  7 20  1  0  0  0  0
  8 17  1  0  0  0  0
  8 25  1  0  0  0  0
  8 26  1  0  0  0  0
  9 19  1  0  0  0  0
  9 28  1  0  0  0  0
  9 62  1  0  0  0  0
 10 35  1  0  0  0  0
 10 40  2  0  0  0  0
 11 38  2  0  0  0  0
 11 41  1  0  0  0  0
 12 38  1  0  0  0  0
 12 42  2  0  0  0  0
 13 41  1  0  0  0  0
 13 43  1  0  0  0  0
 13 70  1  0  0  0  0
 14 41  2  0  0  0  0
 14 42  1  0  0  0  0
 15 16  1  0  0  0  0
 15 44  1  0  0  0  0
 15 45  1  0  0  0  0
 16 17  1  0  0  0  0
 16 46  1  0  0  0  0
 16 47  1  0  0  0  0
 17 48  1  0  0  0  0
 17 49  1  0  0  0  0
 18 19  2  0  0  0  0
 18 21  1  0  0  0  0
 19 22  1  0  0  0  0
 20 50  1  0  0  0  0
 20 51  1  0  0  0  0
 20 52  1  0  0  0  0
 21 24  2  0  0  0  0
 21 53  1  0  0  0  0
 22 23  2  0  0  0  0
 22 54  1  0  0  0  0
 23 24  1  0  0  0  0
 23 27  1  0  0  0  0
 24 55  1  0  0  0  0
 25 56  1  0  0  0  0
 25 57  1  0  0  0  0
 25 58  1  0  0  0  0
 26 59  1  0  0  0  0
 26 60  1  0  0  0  0
 26 61  1  0  0  0  0
 28 29  1  0  0  0  0
 29 30  1  0  0  0  0
 29 31  2  0  0  0  0
 30 32  2  0  0  0  0
 30 63  1  0  0  0  0
 31 33  1  0  0  0  0
 32 34  1  0  0  0  0
 33 34  2  0  0  0  0
 33 64  1  0  0  0  0
 34 65  1  0  0  0  0
 35 36  2  0  0  0  0
 36 37  1  0  0  0  0
 36 38  1  0  0  0  0
 37 39  2  0  0  0  0
 37 66  1  0  0  0  0
 39 40  1  0  0  0  0
 39 67  1  0  0  0  0
 40 68  1  0  0  0  0
 42 69  1  0  0  0  0
 43 71  1  0  0  0  0
 43 72  1  0  0  0  0
 43 73  1  0  0  0  0
M  END
> <PUBCHEM_COMPOUND_CID>
16109001

> <PUBCHEM_CONFORMER_RMSD>
1.4

> <PUBCHEM_CONFORMER_DIVERSEORDER>
2
117
82
126
96
105
110
134
23
39
75
120
50
20
77
91
98
92
13
59
40
115
116
94
106
9
70
131
107
6
125
36
28
3
10
87
129
65
55
5
60
24
84
114
52
130
71
49
78
123
90
81
4
95
44
1
58
132
47
79
67
7
46
74
127
72
35
57
111
33
85
38
8
124
43
135
64
128
63
18
88
66
16
108
45
22
53
48
21
109
27
68
93
31
62
112
80
104
102
51
37
119
41
61
12
42
14
32
15
83
100
25
34
121
101
69
86
76
56
54
19
26
103
89
17
73
29
97
113
30
11
99
133
118
122

> <PUBCHEM_MMFF94_PARTIAL_CHARGES>
53
1 -0.34
10 -0.62
11 -0.62
12 -0.62
13 -0.87
14 -0.62
15 0.37
17 0.27
18 0.1
19 0.12
2 -0.34
20 0.37
21 -0.15
22 -0.15
23 -0.14
24 -0.15
25 0.27
26 0.27
27 1.16
28 0.54
29 0.09
3 -0.34
30 -0.15
31 0.19
32 0.08
33 -0.15
34 -0.15
35 0.39
37 -0.15
38 0.62
39 -0.15
4 -0.19
40 0.16
41 0.72
42 0.47
43 0.37
5 -0.57
53 0.15
54 0.15
55 0.15
6 -0.17
62 0.37
63 0.15
64 0.15
65 0.15
66 0.15
67 0.15
68 0.15
69 0.15
7 -0.84
70 0.4
8 -0.81
9 -0.55

> <PUBCHEM_EFFECTIVE_ROTOR_COUNT>
13

> <PUBCHEM_PHARMACOPHORE_FEATURES>
12
1 10 acceptor
1 13 donor
1 5 acceptor
1 6 acceptor
1 7 cation
1 8 cation
1 9 donor
4 11 13 14 41 cation
6 10 35 36 37 39 40 rings
6 11 12 14 38 41 42 rings
6 18 19 21 22 23 24 rings
6 29 30 31 32 33 34 rings

> <PUBCHEM_HEAVY_ATOM_COUNT>
43

> <PUBCHEM_ATOM_DEF_STEREO_COUNT>
0

> <PUBCHEM_ATOM_UDEF_STEREO_COUNT>
0

> <PUBCHEM_BOND_DEF_STEREO_COUNT>
0

> <PUBCHEM_BOND_UDEF_STEREO_COUNT>
0

> <PUBCHEM_ISOTOPIC_ATOM_COUNT>
0

> <PUBCHEM_COMPONENT_COUNT>
1

> <PUBCHEM_CACTVS_TAUTO_COUNT>
8

> <PUBCHEM_CONFORMER_ID>
00F5CDC900000002

> <PUBCHEM_MMFF94_ENERGY>
147.5394

> <PUBCHEM_FEATURE_SELFOVERLAP>
60.943

> <PUBCHEM_SHAPE_FINGERPRINT>
10908659 184 18335704918834004945
10985338 15 17632577158842139879
11136257 43 18333732403389623199
12422481 6 18115019701923252566
12758862 11 18128840615953385870
12758862 65 18115323257859212561
13726171 33 18052556640066191360
14747282 125 18340192090190382112
15297060 5 18127437676684462766
15403338 16 16950276308793365371
15406563 5 16153979146193258341
15927050 60 17910129219808432933
19315092 285 16877947092238356017
19319366 153 17676772079837288400
1979834 28 18337684013983693583
20764821 26 18268701886706466004
21033648 29 17988629840427209378
22149856 69 18268732541032659563
23559900 14 17830744153834128431
57527358 35 15792010039224123844
9961470 85 17619061729441977161

> <PUBCHEM_SHAPE_MULTIPOLES>
804.24
12.64
7
3.05
15.82
2.44
-1.82
1.33
-9.58
-1.61
2.7
-4.18
-0.45
-0.12

> <PUBCHEM_SHAPE_SELFOVERLAP>
1731.347

> <PUBCHEM_SHAPE_VOLUME>
443.2

> <PUBCHEM_COORDINATE_TYPE>
2
5
10

$$$$
