49830958
  -OEChem-10062121533D

 26 28  0     0  0  0  0  0  0999 V2000
   -0.0525    2.3261    0.0167 O   0  0  0  0  0  0  0  0  0  0  0  0
   -3.2702    1.0217   -0.0467 N   0  0  0  0  0  0  0  0  0  0  0  0
   -2.3864    2.0847    0.0082 N   0  0  0  0  0  0  0  0  0  0  0  0
   -1.1271    0.1941   -0.0009 C   0  0  0  0  0  0  0  0  0  0  0  0
   -0.1234   -0.7514    0.0020 C   0  0  0  0  0  0  0  0  0  0  0  0
   -2.4842   -0.1229    0.0166 C   0  0  0  0  0  0  0  0  0  0  0  0
    1.2792   -0.4068   -0.0005 C   0  0  0  0  0  0  0  0  0  0  0  0
   -1.0678    1.6563    0.0068 C   0  0  0  0  0  0  0  0  0  0  0  0
   -0.5221   -2.0881    0.0074 C   0  0  0  0  0  0  0  0  0  0  0  0
   -2.8811   -1.4446    0.0035 C   0  0  0  0  0  0  0  0  0  0  0  0
   -1.8880   -2.4321    0.0066 C   0  0  0  0  0  0  0  0  0  0  0  0
    1.9552   -0.2450   -1.2099 C   0  0  0  0  0  0  0  0  0  0  0  0
    1.9578   -0.2357    1.2060 C   0  0  0  0  0  0  0  0  0  0  0  0
    3.3098    0.0879   -1.2128 C   0  0  0  0  0  0  0  0  0  0  0  0
    3.3124    0.0971    1.2033 C   0  0  0  0  0  0  0  0  0  0  0  0
    3.9884    0.2588   -0.0062 C   0  0  0  0  0  0  0  0  0  0  0  0
    0.2153   -2.8883    0.0089 H   0  0  0  0  0  0  0  0  0  0  0  0
   -4.0958    1.0792   -0.6256 H   0  0  0  0  0  0  0  0  0  0  0  0
   -3.9301   -1.7202   -0.0111 H   0  0  0  0  0  0  0  0  0  0  0  0
   -2.7444    3.0313    0.0081 H   0  0  0  0  0  0  0  0  0  0  0  0
   -2.1743   -3.4807    0.0029 H   0  0  0  0  0  0  0  0  0  0  0  0
    1.4411   -0.3741   -2.1594 H   0  0  0  0  0  0  0  0  0  0  0  0
    1.4458   -0.3575    2.1576 H   0  0  0  0  0  0  0  0  0  0  0  0
    3.8362    0.2141   -2.1544 H   0  0  0  0  0  0  0  0  0  0  0  0
    3.8409    0.2305    2.1427 H   0  0  0  0  0  0  0  0  0  0  0  0
    5.0431    0.5181   -0.0082 H   0  0  0  0  0  0  0  0  0  0  0  0
  1  8  2  0  0  0  0
  2  3  1  0  0  0  0
  2  6  1  0  0  0  0
  2 18  1  0  0  0  0
  3  8  1  0  0  0  0
  3 20  1  0  0  0  0
  4  5  2  0  0  0  0
  4  6  1  0  0  0  0
  4  8  1  0  0  0  0
  5  7  1  0  0  0  0
  5  9  1  0  0  0  0
  6 10  2  0  0  0  0
  7 12  2  0  0  0  0
  7 13  1  0  0  0  0
  9 11  2  0  0  0  0
  9 17  1  0  0  0  0
 10 11  1  0  0  0  0
 10 19  1  0  0  0  0
 11 21  1  0  0  0  0
 12 14  1  0  0  0  0
 12 22  1  0  0  0  0
 13 15  2  0  0  0  0
 13 23  1  0  0  0  0
 14 16  2  0  0  0  0
 14 24  1  0  0  0  0
 15 16  1  0  0  0  0
 15 25  1  0  0  0  0
 16 26  1  0  0  0  0
M  END
> <PUBCHEM_COMPOUND_CID>
49830958

> <PUBCHEM_CONFORMER_RMSD>
0.6

> <PUBCHEM_CONFORMER_DIVERSEORDER>
1

> <PUBCHEM_MMFF94_PARTIAL_CHARGES>
24
1 -0.57
10 -0.15
11 -0.15
12 -0.15
13 -0.15
14 -0.15
15 -0.15
16 -0.15
17 0.15
18 0.4
19 0.15
2 -0.52
20 0.37
21 0.15
22 0.15
23 0.15
24 0.15
25 0.15
26 0.15
3 -0.41
4 0.09
6 0.1
8 0.54
9 -0.15

> <PUBCHEM_EFFECTIVE_ROTOR_COUNT>
1

> <PUBCHEM_PHARMACOPHORE_FEATURES>
6
1 1 acceptor
1 2 donor
1 3 donor
5 2 3 4 6 8 rings
6 4 5 6 9 10 11 rings
6 7 12 13 14 15 16 rings

> <PUBCHEM_HEAVY_ATOM_COUNT>
16

> <PUBCHEM_ATOM_DEF_STEREO_COUNT>
0

> <PUBCHEM_ATOM_UDEF_STEREO_COUNT>
0

> <PUBCHEM_BOND_DEF_STEREO_COUNT>
0

> <PUBCHEM_BOND_UDEF_STEREO_COUNT>
0

> <PUBCHEM_ISOTOPIC_ATOM_COUNT>
0

> <PUBCHEM_COMPONENT_COUNT>
1

> <PUBCHEM_CACTVS_TAUTO_COUNT>
13

> <PUBCHEM_CONFORMER_ID>
02F85C2E00000001

> <PUBCHEM_MMFF94_ENERGY>
65.0216

> <PUBCHEM_FEATURE_SELFOVERLAP>
32.042

> <PUBCHEM_SHAPE_FINGERPRINT>
10608611 8 18273492399150405400
10989021 7 18051976115053470255
11132069 177 18412262835054043065
11640471 11 17604166881827417468
12236239 1 17676486159706569474
12403814 3 17458061552125504037
12553582 1 18120940774076921075
13140716 1 18194406812924456275
13538477 17 18187079564004313626
13764800 53 18411144601795595433
14614273 12 18188766133316065061
15219456 202 17775286075602751070
15669948 3 18408321116075837358
15775835 57 18113339678516005396
16752209 62 18335974342042915511
16945 1 18410575119329045227
17357779 13 17986092214481202967
17846911 113 18339636754987083777
18175812 5 17775003522388659262
18186145 218 17846225410280176514
19049666 15 17916876698997621286
19868273 325 18337110162991519271
20510252 161 18342742922490299897
20645476 183 17894919524536366199
20871998 184 18272090538831079279
22802520 49 18059027063926072206
2334 1 17834113422238168743
23402539 116 18342164592311998998
23419403 2 17543587226773335965
23557571 272 18271815674220188228
23559900 14 18271812285802260870
2748010 2 18050841419185305343
350125 39 17762345712512056937
43471831 8 18334572404382679179
474 4 16952545830037805292
6333449 129 18342738515922529575
7097593 13 17898548914052321050
7364860 26 17693935194185353607
77492 1 17676204688966829826
81228 2 18411707620542547811
90316 7 18115291311655678160

> <PUBCHEM_SHAPE_MULTIPOLES>
313.44
5.87
2.16
0.98
3.13
0.22
0
0.21
-0.02
-2.24
0.01
1
-0.06
0.01

> <PUBCHEM_SHAPE_SELFOVERLAP>
705.842

> <PUBCHEM_SHAPE_VOLUME>
166.7

> <PUBCHEM_COORDINATE_TYPE>
2
5
10

$$$$
