11248978
  -OEChem-10052115143D

 61 67  0     0  0  0  0  0  0999 V2000
    5.5056   -3.1371   -0.3469 O   0  0  0  0  0  0  0  0  0  0  0  0
    5.4496    1.2182   -1.5789 O   0  0  0  0  0  0  0  0  0  0  0  0
   -3.3408    3.7432    0.2359 O   0  0  0  0  0  0  0  0  0  0  0  0
   -5.9698    0.1889   -0.9675 O   0  0  0  0  0  0  0  0  0  0  0  0
    0.7438    1.8857   -0.7645 N   0  0  0  0  0  0  0  0  0  0  0  0
    3.7095    1.6184   -0.1124 N   0  0  0  0  0  0  0  0  0  0  0  0
    5.0218   -0.3844    0.0095 N   0  0  0  0  0  0  0  0  0  0  0  0
   -4.9783    2.1930   -0.3253 N   0  0  0  0  0  0  0  0  0  0  0  0
   -3.0620   -1.8685   -0.0748 N   0  0  0  0  0  0  0  0  0  0  0  0
   -2.4725   -2.8132   -2.0147 N   0  0  0  0  0  0  0  0  0  0  0  0
    0.7544    1.5142    0.5699 C   0  0  0  0  0  0  0  0  0  0  0  0
    1.8769    2.1513   -1.6357 C   0  0  0  0  0  0  0  0  0  0  0  0
    1.8011    1.3494    1.5096 C   0  0  0  0  0  0  0  0  0  0  0  0
    3.1314    2.6668   -0.9513 C   0  0  0  0  0  0  0  0  0  0  0  0
    3.2713    1.6193    1.2845 C   0  0  0  0  0  0  0  0  0  0  0  0
   -0.5898    1.2923    0.9192 C   0  0  0  0  0  0  0  0  0  0  0  0
   -1.3882    1.5490   -0.2265 C   0  0  0  0  0  0  0  0  0  0  0  0
   -0.5444    1.9108   -1.2438 C   0  0  0  0  0  0  0  0  0  0  0  0
    4.7652    0.8395   -0.6195 C   0  0  0  0  0  0  0  0  0  0  0  0
   -2.8102    1.4670   -0.3484 C   0  0  0  0  0  0  0  0  0  0  0  0
    1.4207    0.9585    2.8139 C   0  0  0  0  0  0  0  0  0  0  0  0
   -0.9159    0.8895    2.2290 C   0  0  0  0  0  0  0  0  0  0  0  0
    6.3821   -0.9202    0.0414 C   0  0  0  0  0  0  0  0  0  0  0  0
    3.9901   -1.3673    0.3583 C   0  0  0  0  0  0  0  0  0  0  0  0
    0.0973    0.7256    3.1673 C   0  0  0  0  0  0  0  0  0  0  0  0
   -3.5929    0.4344   -0.7046 C   0  0  0  0  0  0  0  0  0  0  0  0
    6.4684   -2.1820   -0.8039 C   0  0  0  0  0  0  0  0  0  0  0  0
    4.1748   -2.6307   -0.4795 C   0  0  0  0  0  0  0  0  0  0  0  0
   -3.7046    2.6278   -0.0968 C   0  0  0  0  0  0  0  0  0  0  0  0
   -3.1729   -0.8823   -1.0285 C   0  0  0  0  0  0  0  0  0  0  0  0
   -5.0032    0.8810   -0.6982 C   0  0  0  0  0  0  0  0  0  0  0  0
   -2.8036   -1.4962   -2.2100 C   0  0  0  0  0  0  0  0  0  0  0  0
   -2.6330   -3.0232   -0.7241 C   0  0  0  0  0  0  0  0  0  0  0  0
   -3.3120   -1.8015    1.2930 C   0  0  0  0  0  0  0  0  0  0  0  0
   -2.4472   -4.1866    0.0788 C   0  0  0  0  0  0  0  0  0  0  0  0
   -3.1351   -2.9017    2.0425 C   0  0  0  0  0  0  0  0  0  0  0  0
   -2.6875   -4.1287    1.4030 C   0  0  0  0  0  0  0  0  0  0  0  0
    1.5474    2.8980   -2.3682 H   0  0  0  0  0  0  0  0  0  0  0  0
    2.0767    1.2152   -2.1715 H   0  0  0  0  0  0  0  0  0  0  0  0
    3.8522    2.9622   -1.7210 H   0  0  0  0  0  0  0  0  0  0  0  0
    2.9271    3.5553   -0.3426 H   0  0  0  0  0  0  0  0  0  0  0  0
    3.5110    2.6075    1.6976 H   0  0  0  0  0  0  0  0  0  0  0  0
    3.8720    0.9007    1.8511 H   0  0  0  0  0  0  0  0  0  0  0  0
   -0.7465    2.1769   -2.2737 H   0  0  0  0  0  0  0  0  0  0  0  0
    2.1862    0.8351    3.5791 H   0  0  0  0  0  0  0  0  0  0  0  0
   -1.9484    0.7228    2.5213 H   0  0  0  0  0  0  0  0  0  0  0  0
    6.6013   -1.1525    1.0900 H   0  0  0  0  0  0  0  0  0  0  0  0
    7.1015   -0.1701   -0.3014 H   0  0  0  0  0  0  0  0  0  0  0  0
    2.9919   -0.9585    0.1849 H   0  0  0  0  0  0  0  0  0  0  0  0
    4.1108   -1.5945    1.4230 H   0  0  0  0  0  0  0  0  0  0  0  0
   -0.1484    0.4245    4.1817 H   0  0  0  0  0  0  0  0  0  0  0  0
    6.2938   -1.9702   -1.8654 H   0  0  0  0  0  0  0  0  0  0  0  0
    7.4608   -2.6331   -0.7085 H   0  0  0  0  0  0  0  0  0  0  0  0
    3.4826   -3.4083   -0.1417 H   0  0  0  0  0  0  0  0  0  0  0  0
    3.9690   -2.4371   -1.5392 H   0  0  0  0  0  0  0  0  0  0  0  0
   -5.8036    2.7741   -0.2315 H   0  0  0  0  0  0  0  0  0  0  0  0
   -2.7596   -1.0513   -3.1941 H   0  0  0  0  0  0  0  0  0  0  0  0
   -3.6533   -0.8669    1.7196 H   0  0  0  0  0  0  0  0  0  0  0  0
   -2.1137   -5.1072   -0.3868 H   0  0  0  0  0  0  0  0  0  0  0  0
   -3.3198   -2.9029    3.1098 H   0  0  0  0  0  0  0  0  0  0  0  0
   -2.5520   -5.0032    2.0300 H   0  0  0  0  0  0  0  0  0  0  0  0
  1 27  1  0  0  0  0
  1 28  1  0  0  0  0
  2 19  2  0  0  0  0
  3 29  2  0  0  0  0
  4 31  2  0  0  0  0
  5 11  1  0  0  0  0
  5 12  1  0  0  0  0
  5 18  1  0  0  0  0
  6 14  1  0  0  0  0
  6 15  1  0  0  0  0
  6 19  1  0  0  0  0
  7 19  1  0  0  0  0
  7 23  1  0  0  0  0
  7 24  1  0  0  0  0
  8 29  1  0  0  0  0
  8 31  1  0  0  0  0
  8 56  1  0  0  0  0
  9 30  1  0  0  0  0
  9 33  1  0  0  0  0
  9 34  1  0  0  0  0
 10 32  1  0  0  0  0
 10 33  2  0  0  0  0
 11 13  2  0  0  0  0
 11 16  1  0  0  0  0
 12 14  1  0  0  0  0
 12 38  1  0  0  0  0
 12 39  1  0  0  0  0
 13 15  1  0  0  0  0
 13 21  1  0  0  0  0
 14 40  1  0  0  0  0
 14 41  1  0  0  0  0
 15 42  1  0  0  0  0
 15 43  1  0  0  0  0
 16 17  1  0  0  0  0
 16 22  2  0  0  0  0
 17 18  2  0  0  0  0
 17 20  1  0  0  0  0
 18 44  1  0  0  0  0
 20 26  2  0  0  0  0
 20 29  1  0  0  0  0
 21 25  2  0  0  0  0
 21 45  1  0  0  0  0
 22 25  1  0  0  0  0
 22 46  1  0  0  0  0
 23 27  1  0  0  0  0
 23 47  1  0  0  0  0
 23 48  1  0  0  0  0
 24 28  1  0  0  0  0
 24 49  1  0  0  0  0
 24 50  1  0  0  0  0
 25 51  1  0  0  0  0
 26 30  1  0  0  0  0
 26 31  1  0  0  0  0
 27 52  1  0  0  0  0
 27 53  1  0  0  0  0
 28 54  1  0  0  0  0
 28 55  1  0  0  0  0
 30 32  2  0  0  0  0
 32 57  1  0  0  0  0
 33 35  1  0  0  0  0
 34 36  2  0  0  0  0
 34 58  1  0  0  0  0
 35 37  2  0  0  0  0
 35 59  1  0  0  0  0
 36 37  1  0  0  0  0
 36 60  1  0  0  0  0
 37 61  1  0  0  0  0
M  END
> <PUBCHEM_COMPOUND_CID>
11248978

> <PUBCHEM_CONFORMER_RMSD>
1

> <PUBCHEM_CONFORMER_DIVERSEORDER>
1
58
57
19
81
11
23
74
5
70
8
31
39
49
21
47
77
76
63
25
22
78
44
35
12
46
42
80
48
64
72
14
24
52
75
82
17
79
50
56
38
73
71
36
28
83
10
53
32
45
68
13
16
27
60
62
4
69
34
55
3
6
29
54
67
37
20
61
7
41
2
43
18
51
30
65
59
33
15
26
40
66
9

> <PUBCHEM_MMFF94_PARTIAL_CHARGES>
46
1 -0.56
10 -0.57
11 -0.15
12 0.26
13 -0.14
14 0.3
15 0.44
17 -0.05
18 -0.3
19 0.69
2 -0.57
20 0.06
21 -0.15
22 -0.15
23 0.3
24 0.3
25 -0.15
26 0.06
27 0.28
28 0.28
29 0.62
3 -0.57
30 -0.2
31 0.62
32 0.08
33 0.14
34 -0.18
35 -0.11
36 -0.15
37 -0.15
4 -0.57
44 0.15
45 0.15
46 0.15
5 0.05
51 0.15
56 0.37
57 0.15
58 0.15
59 0.15
6 -0.66
60 0.15
61 0.15
7 -0.66
8 -0.49
9 0.33

> <PUBCHEM_EFFECTIVE_ROTOR_COUNT>
6.2

> <PUBCHEM_PHARMACOPHORE_FEATURES>
14
1 1 acceptor
1 2 acceptor
1 3 acceptor
1 4 acceptor
1 5 cation
1 8 donor
3 9 10 33 cation
5 5 11 16 17 18 rings
5 8 20 26 29 31 rings
5 9 10 30 32 33 rings
6 1 7 23 24 27 28 rings
6 11 13 16 21 22 25 rings
6 9 33 34 35 36 37 rings
7 5 6 11 12 13 14 15 rings

> <PUBCHEM_HEAVY_ATOM_COUNT>
37

> <PUBCHEM_ATOM_DEF_STEREO_COUNT>
0

> <PUBCHEM_ATOM_UDEF_STEREO_COUNT>
0

> <PUBCHEM_BOND_DEF_STEREO_COUNT>
0

> <PUBCHEM_BOND_UDEF_STEREO_COUNT>
0

> <PUBCHEM_ISOTOPIC_ATOM_COUNT>
0

> <PUBCHEM_COMPONENT_COUNT>
1

> <PUBCHEM_CACTVS_TAUTO_COUNT>
3

> <PUBCHEM_CONFORMER_ID>
00ABA55200000001

> <PUBCHEM_MMFF94_ENERGY>
98.4461

> <PUBCHEM_FEATURE_SELFOVERLAP>
71.296

> <PUBCHEM_SHAPE_FINGERPRINT>
10305334 12 16693867744827691662
10369192 42 13695879086326392474
10928967 22 17771632518681051542
11135609 12 18261680383987084531
11621639 254 17540569089743044628
117089 54 18118130405482580611
11796584 16 18060422426065881524
12156800 1 16518826829837229331
12633257 1 16485866880675477143
13583140 156 17845927567146827312
13636023 51 17987784324259236624
13782708 43 17131258182289562765
14910302 57 18271226283789158168
15406563 228 18041005076968975334
17909252 39 17829337130626177408
18603816 31 17987779844449565886
19309040 13 17099227157529751812
19315092 285 16197312213160961111
19958102 18 18336255769743396493
20775530 9 18413109464051958410
23559900 14 18272357715835632144
249057 3 18336546014980080108
3383291 50 18410852158042934739
4073 2 18338514244405822504
44062 13 18410857672257858966
463206 1 18336266756633300724
513202 73 18262248823515742043
5265222 85 18341048514948012629
56638632 33 17983844602239668298
5912855 24 18192725663629785125
6437827 68 18341049636071503742
70251023 43 17400076869758089103
7970288 3 17689440803105502975

> <PUBCHEM_SHAPE_MULTIPOLES>
708.08
13.01
4.87
2.22
14.47
3.95
-1.4
4.9
4.55
-2.8
0.14
-0.47
0.03
0.9

> <PUBCHEM_SHAPE_SELFOVERLAP>
1596.558

> <PUBCHEM_SHAPE_VOLUME>
370.2

> <PUBCHEM_COORDINATE_TYPE>
2
5
10

$$$$
