49830294
  -OEChem-10052120443D

 43 46  0     1  0  0  0  0  0999 V2000
    0.4142    5.0816    0.1709 Cl  0  0  0  0  0  0  0  0  0  0  0  0
    2.3726    0.6161    0.7340 N   0  0  0  0  0  0  0  0  0  0  0  0
    3.7945   -1.8806   -2.6319 N   0  0  0  0  0  0  0  0  0  0  0  0
    0.1135    0.6489    0.2045 N   0  0  0  0  0  0  0  0  0  0  0  0
    1.3714    2.6898    0.4492 N   0  0  0  0  0  0  0  0  0  0  0  0
   -4.1793    0.2247   -1.2099 N   0  0  0  0  0  0  0  0  0  0  0  0
   -4.6405   -1.9222   -0.2189 N   0  0  0  0  0  0  0  0  0  0  0  0
    2.3979   -0.8326    0.7769 C   0  0  1  0  0  0  0  0  0  0  0  0
    3.8008   -1.2151   -1.3285 C   0  0  1  0  0  0  0  0  0  0  0  0
    2.4398   -1.4082   -0.6436 C   0  0  0  0  0  0  0  0  0  0  0  0
    3.5797   -1.3090    1.6249 C   0  0  0  0  0  0  0  0  0  0  0  0
    4.9414   -1.7522   -0.4578 C   0  0  0  0  0  0  0  0  0  0  0  0
    4.9271   -1.1167    0.9301 C   0  0  0  0  0  0  0  0  0  0  0  0
    1.2370    1.3498    0.4495 C   0  0  0  0  0  0  0  0  0  0  0  0
   -0.9762    1.3967   -0.0672 C   0  0  0  0  0  0  0  0  0  0  0  0
   -2.1830    0.6680   -0.3329 C   0  0  0  0  0  0  0  0  0  0  0  0
   -2.6146   -0.5928    0.1579 C   0  0  0  0  0  0  0  0  0  0  0  0
   -0.9709    2.7763   -0.0987 C   0  0  0  0  0  0  0  0  0  0  0  0
    0.2431    3.3751    0.1702 C   0  0  0  0  0  0  0  0  0  0  0  0
   -3.8620   -0.8398   -0.4078 C   0  0  0  0  0  0  0  0  0  0  0  0
   -3.1658    1.1467   -1.1722 C   0  0  0  0  0  0  0  0  0  0  0  0
   -2.0931   -1.5679    1.0237 C   0  0  0  0  0  0  0  0  0  0  0  0
   -2.8583   -2.7095    1.2546 C   0  0  0  0  0  0  0  0  0  0  0  0
   -4.0893   -2.8272    0.6231 C   0  0  0  0  0  0  0  0  0  0  0  0
    1.4898   -1.1924    1.2778 H   0  0  0  0  0  0  0  0  0  0  0  0
    3.9635   -0.1435   -1.4990 H   0  0  0  0  0  0  0  0  0  0  0  0
    1.6480   -0.9757   -1.2674 H   0  0  0  0  0  0  0  0  0  0  0  0
    2.2231   -2.4839   -0.5785 H   0  0  0  0  0  0  0  0  0  0  0  0
    3.4501   -2.3771    1.8426 H   0  0  0  0  0  0  0  0  0  0  0  0
    3.5921   -0.7899    2.5911 H   0  0  0  0  0  0  0  0  0  0  0  0
    5.9083   -1.5525   -0.9358 H   0  0  0  0  0  0  0  0  0  0  0  0
    4.8573   -2.8422   -0.3552 H   0  0  0  0  0  0  0  0  0  0  0  0
    5.1593   -0.0484    0.8471 H   0  0  0  0  0  0  0  0  0  0  0  0
    5.7189   -1.5625    1.5432 H   0  0  0  0  0  0  0  0  0  0  0  0
    3.2288    1.1374    0.8810 H   0  0  0  0  0  0  0  0  0  0  0  0
    3.0685   -1.4746   -3.2209 H   0  0  0  0  0  0  0  0  0  0  0  0
    4.6799   -1.7110   -3.1073 H   0  0  0  0  0  0  0  0  0  0  0  0
   -1.8520    3.3725   -0.3040 H   0  0  0  0  0  0  0  0  0  0  0  0
   -3.2476    2.0519   -1.7590 H   0  0  0  0  0  0  0  0  0  0  0  0
   -5.0296    0.3141   -1.7486 H   0  0  0  0  0  0  0  0  0  0  0  0
   -1.1298   -1.4499    1.5086 H   0  0  0  0  0  0  0  0  0  0  0  0
   -2.4985   -3.4902    1.9162 H   0  0  0  0  0  0  0  0  0  0  0  0
   -4.6993   -3.7107    0.7921 H   0  0  0  0  0  0  0  0  0  0  0  0
  1 19  1  0  0  0  0
  2  8  1  0  0  0  0
  2 14  1  0  0  0  0
  2 35  1  0  0  0  0
  3  9  1  0  0  0  0
  3 36  1  0  0  0  0
  3 37  1  0  0  0  0
  4 14  2  0  0  0  0
  4 15  1  0  0  0  0
  5 14  1  0  0  0  0
  5 19  2  0  0  0  0
  6 20  1  0  0  0  0
  6 21  1  0  0  0  0
  6 40  1  0  0  0  0
  7 20  1  0  0  0  0
  7 24  2  0  0  0  0
  8 10  1  0  0  0  0
  8 11  1  0  0  0  0
  8 25  1  0  0  0  0
  9 10  1  0  0  0  0
  9 12  1  0  0  0  0
  9 26  1  0  0  0  0
 10 27  1  0  0  0  0
 10 28  1  0  0  0  0
 11 13  1  0  0  0  0
 11 29  1  0  0  0  0
 11 30  1  0  0  0  0
 12 13  1  0  0  0  0
 12 31  1  0  0  0  0
 12 32  1  0  0  0  0
 13 33  1  0  0  0  0
 13 34  1  0  0  0  0
 15 16  1  0  0  0  0
 15 18  2  0  0  0  0
 16 17  1  0  0  0  0
 16 21  2  0  0  0  0
 17 20  2  0  0  0  0
 17 22  1  0  0  0  0
 18 19  1  0  0  0  0
 18 38  1  0  0  0  0
 21 39  1  0  0  0  0
 22 23  2  0  0  0  0
 22 41  1  0  0  0  0
 23 24  1  0  0  0  0
 23 42  1  0  0  0  0
 24 43  1  0  0  0  0
M  END
> <PUBCHEM_COMPOUND_CID>
49830294

> <PUBCHEM_CONFORMER_RMSD>
0.8

> <PUBCHEM_CONFORMER_DIVERSEORDER>
1
44
105
58
139
34
51
119
136
145
61
97
35
91
25
65
50
90
153
37
8
80
43
126
155
45
150
158
23
79
144
74
87
10
100
39
142
77
41
85
72
171
28
29
36
116
81
162
160
12
103
157
56
60
47
98
148
89
71
135
30
21
101
82
42
120
141
14
67
131
3
161
40
68
117
16
123
118
170
31
115
143
147
99
93
57
108
48
168
127
106
166
38
107
129
15
138
55
111
46
159
2
20
104
165
121
137
63
122
53
66
9
154
95
173
167
149
96
125
130
132
146
83
134
33
169
59
102
110
163
32
11
109
84
75
128
5
152
86
73
94
7
22
156
114
133
6
88
17
164
69
24
172
78
4
113
13
92
64
124
19
52
49
140
18
151
62
27
70
76
112
26
54

> <PUBCHEM_MMFF94_PARTIAL_CHARGES>
28
1 -0.18
14 0.72
15 0.36
16 -0.05
18 -0.15
19 0.49
2 -0.87
20 0.11
21 -0.3
22 -0.15
23 -0.15
24 0.16
3 -0.99
35 0.4
36 0.36
37 0.36
38 0.15
39 0.15
4 -0.62
40 0.27
41 0.15
42 0.15
43 0.15
5 -0.62
6 0.03
7 -0.57
8 0.37
9 0.27

> <PUBCHEM_EFFECTIVE_ROTOR_COUNT>
4.2

> <PUBCHEM_PHARMACOPHORE_FEATURES>
12
1 2 donor
1 3 cation
1 3 donor
1 5 acceptor
1 6 cation
1 6 donor
1 7 acceptor
4 2 4 5 14 cation
5 6 16 17 20 21 rings
6 4 5 14 15 18 19 rings
6 7 17 20 22 23 24 rings
6 8 9 10 11 12 13 rings

> <PUBCHEM_HEAVY_ATOM_COUNT>
24

> <PUBCHEM_ATOM_DEF_STEREO_COUNT>
0

> <PUBCHEM_ATOM_UDEF_STEREO_COUNT>
2

> <PUBCHEM_BOND_DEF_STEREO_COUNT>
0

> <PUBCHEM_BOND_UDEF_STEREO_COUNT>
0

> <PUBCHEM_ISOTOPIC_ATOM_COUNT>
0

> <PUBCHEM_COMPONENT_COUNT>
1

> <PUBCHEM_CACTVS_TAUTO_COUNT>
16

> <PUBCHEM_CONFORMER_ID>
02F8599600000001

> <PUBCHEM_MMFF94_ENERGY>
44.6076

> <PUBCHEM_FEATURE_SELFOVERLAP>
61.009

> <PUBCHEM_SHAPE_FINGERPRINT>
107951 10 17478059250177973364
1100329 8 18337948987986768513
11488393 25 18047203113676597392
11578080 2 17097178784478235740
12363563 72 18412266129357392526
12553582 1 18337398136322366291
12623949 98 17905343071400009579
12707595 3 18409451422439810163
12788726 201 18119523237147108929
13140716 1 18410570678111399993
13533116 47 18125442171255870451
13540713 4 17898276446112159071
13544653 18 17775563109403832282
138480 1 14952083924057574504
14251757 5 18263086509119719469
14363568 33 18049180048130162578
14790565 3 17689713061182694721
14863182 85 16889494477191606349
14866123 147 18195805159792203569
14932701 244 12542414569004371291
15352361 1 18409442600619175866
15475509 8 18200036110816947157
17357779 13 18201715111662963166
1813 80 18272379667301997444
20403669 9 18410572907368478139
20600515 1 18339633456336539512
20645477 70 18122898996106739215
20693207 138 18114170991084842023
21120745 212 18199207143142505728
21133410 32 16083373044906382746
21279426 13 18116133620084649495
221490 88 18190175865798975689
22440779 20 16768217984108264886
23557571 272 18127686037890380816
23559900 14 18263628727682740817
238078 22 18335707109140633728
314173 41 18409448111083023185
3178227 256 18191314776291626681
329604 57 18334863844210361518
4280585 95 18261383426281077432
5486654 36 18335148596236427105
574716 61 15936700331948012358
6669772 16 17621048981325295140
6823239 73 18336539512378131546
81228 2 18126565617708018256
9709674 26 18191296285871016763

> <PUBCHEM_SHAPE_MULTIPOLES>
465.89
9.58
4.73
1.41
3.23
6.52
-0.56
-10.24
-1.55
-1.12
0.83
1.27
-0.92
1.69

> <PUBCHEM_SHAPE_SELFOVERLAP>
1012.223

> <PUBCHEM_SHAPE_VOLUME>
254

> <PUBCHEM_COORDINATE_TYPE>
2
5
10

$$$$
