6263849
  -OEChem-10052120443D

 35 38  0     0  0  0  0  0  0999 V2000
    4.0651    0.4282    0.0007 N   0  0  0  0  0  0  0  0  0  0  0  0
    0.2791    2.5307   -0.0002 N   0  0  0  0  0  0  0  0  0  0  0  0
    3.7708    1.7456    0.0008 N   0  0  0  0  0  0  0  0  0  0  0  0
    1.6048    2.8412    0.0002 N   0  0  0  0  0  0  0  0  0  0  0  0
    3.1472   -1.7334   -0.0001 N   0  0  0  0  0  0  0  0  0  0  0  0
    0.5713    0.0694   -0.0010 C   0  0  0  0  0  0  0  0  0  0  0  0
    1.8968    0.4484   -0.0004 C   0  0  0  0  0  0  0  0  0  0  0  0
   -0.1893    1.2327   -0.0008 C   0  0  0  0  0  0  0  0  0  0  0  0
    0.0820   -1.2813   -0.0007 C   0  0  0  0  0  0  0  0  0  0  0  0
    2.4342    1.7642    0.0001 C   0  0  0  0  0  0  0  0  0  0  0  0
    2.9729   -0.3967    0.0000 C   0  0  0  0  0  0  0  0  0  0  0  0
   -1.6376    1.1711   -0.0005 C   0  0  0  0  0  0  0  0  0  0  0  0
   -0.1597   -1.9461    1.2076 C   0  0  0  0  0  0  0  0  0  0  0  0
   -0.1589   -1.9474   -1.2084 C   0  0  0  0  0  0  0  0  0  0  0  0
   -2.3313    1.1416    1.2078 C   0  0  0  0  0  0  0  0  0  0  0  0
   -2.3323    1.1422   -1.2083 C   0  0  0  0  0  0  0  0  0  0  0  0
   -0.6350   -3.2574    1.2083 C   0  0  0  0  0  0  0  0  0  0  0  0
   -0.6344   -3.2588   -1.2077 C   0  0  0  0  0  0  0  0  0  0  0  0
   -0.8725   -3.9137    0.0008 C   0  0  0  0  0  0  0  0  0  0  0  0
   -3.7249    1.0825    1.2084 C   0  0  0  0  0  0  0  0  0  0  0  0
   -3.7259    1.0833   -1.2076 C   0  0  0  0  0  0  0  0  0  0  0  0
   -4.4223    1.0535    0.0008 C   0  0  0  0  0  0  0  0  0  0  0  0
    5.0404    0.1582    0.0012 H   0  0  0  0  0  0  0  0  0  0  0  0
    0.0198   -1.4503    2.1591 H   0  0  0  0  0  0  0  0  0  0  0  0
    0.0212   -1.4526   -2.1603 H   0  0  0  0  0  0  0  0  0  0  0  0
   -1.8024    1.1640    2.1577 H   0  0  0  0  0  0  0  0  0  0  0  0
   -1.8042    1.1651   -2.1585 H   0  0  0  0  0  0  0  0  0  0  0  0
   -0.8203   -3.7674    2.1491 H   0  0  0  0  0  0  0  0  0  0  0  0
   -0.8193   -3.7700   -2.1479 H   0  0  0  0  0  0  0  0  0  0  0  0
    2.3803   -2.3957   -0.0005 H   0  0  0  0  0  0  0  0  0  0  0  0
    4.0720   -2.1535    0.0004 H   0  0  0  0  0  0  0  0  0  0  0  0
   -1.2427   -4.9347    0.0012 H   0  0  0  0  0  0  0  0  0  0  0  0
   -4.2671    1.0591    2.1491 H   0  0  0  0  0  0  0  0  0  0  0  0
   -4.2690    1.0605   -2.1479 H   0  0  0  0  0  0  0  0  0  0  0  0
   -5.5073    1.0075    0.0012 H   0  0  0  0  0  0  0  0  0  0  0  0
  1  3  1  0  0  0  0
  1 11  1  0  0  0  0
  1 23  1  0  0  0  0
  2  4  2  0  0  0  0
  2  8  1  0  0  0  0
  3 10  2  0  0  0  0
  4 10  1  0  0  0  0
  5 11  1  0  0  0  0
  5 30  1  0  0  0  0
  5 31  1  0  0  0  0
  6  7  1  0  0  0  0
  6  8  2  0  0  0  0
  6  9  1  0  0  0  0
  7 10  1  0  0  0  0
  7 11  2  0  0  0  0
  8 12  1  0  0  0  0
  9 13  2  0  0  0  0
  9 14  1  0  0  0  0
 12 15  2  0  0  0  0
 12 16  1  0  0  0  0
 13 17  1  0  0  0  0
 13 24  1  0  0  0  0
 14 18  2  0  0  0  0
 14 25  1  0  0  0  0
 15 20  1  0  0  0  0
 15 26  1  0  0  0  0
 16 21  2  0  0  0  0
 16 27  1  0  0  0  0
 17 19  2  0  0  0  0
 17 28  1  0  0  0  0
 18 19  1  0  0  0  0
 18 29  1  0  0  0  0
 19 32  1  0  0  0  0
 20 22  2  0  0  0  0
 20 33  1  0  0  0  0
 21 22  1  0  0  0  0
 21 34  1  0  0  0  0
 22 35  1  0  0  0  0
M  END
> <PUBCHEM_COMPOUND_CID>
6263849

> <PUBCHEM_CONFORMER_RMSD>
0.6

> <PUBCHEM_CONFORMER_DIVERSEORDER>
1

> <PUBCHEM_MMFF94_PARTIAL_CHARGES>
31
1 0.3
10 0.54
11 -0.07
13 -0.15
14 -0.15
15 -0.15
16 -0.15
17 -0.15
18 -0.15
19 -0.15
2 -0.31
20 -0.15
21 -0.15
22 -0.15
23 0.27
24 0.15
25 0.15
26 0.15
27 0.15
28 0.15
29 0.15
3 -0.71
30 0.4
31 0.4
32 0.15
33 0.15
34 0.15
35 0.15
4 -0.26
5 -0.88
8 0.31

> <PUBCHEM_EFFECTIVE_ROTOR_COUNT>
2

> <PUBCHEM_PHARMACOPHORE_FEATURES>
8
1 1 donor
1 5 cation
1 5 donor
3 3 4 10 cation
5 1 3 7 10 11 rings
6 12 15 16 20 21 22 rings
6 2 4 6 7 8 10 rings
6 9 13 14 17 18 19 rings

> <PUBCHEM_HEAVY_ATOM_COUNT>
22

> <PUBCHEM_ATOM_DEF_STEREO_COUNT>
0

> <PUBCHEM_ATOM_UDEF_STEREO_COUNT>
0

> <PUBCHEM_BOND_DEF_STEREO_COUNT>
0

> <PUBCHEM_BOND_UDEF_STEREO_COUNT>
0

> <PUBCHEM_ISOTOPIC_ATOM_COUNT>
0

> <PUBCHEM_COMPONENT_COUNT>
1

> <PUBCHEM_CACTVS_TAUTO_COUNT>
10

> <PUBCHEM_CONFORMER_ID>
005F942900000001

> <PUBCHEM_MMFF94_ENERGY>
74.3478

> <PUBCHEM_FEATURE_SELFOVERLAP>
40.792

> <PUBCHEM_SHAPE_FINGERPRINT>
104564 63 17690009250342009652
10871710 139 17107933330916235453
10967382 1 18410855421821622244
1100329 8 18337381661213356378
11421498 54 17560809762969277345
11578080 2 16698074918406960179
116883 192 17979352289316814422
12035758 1 18197238995864051682
12236239 1 17775564213474788425
12422481 6 18047785803647806635
12553582 1 17042894491345723839
12592029 89 18262228916178235817
12730499 353 18188483559434751813
12788726 201 18050554441839134747
13083527 12 17757813551463074531
13140716 1 18410577240821311251
13583140 156 16660907959333899800
14178342 30 18124019385613005736
14790565 3 18267600017685586636
15309172 13 18410294692250612257
16945 1 18122624946632649990
17138139 8 17698969046934301119
19591789 44 18409446968748706131
20028762 73 18273212002390639935
20602899 9 16200158715726405406
20645477 70 18193828250807280925
20739085 24 18120678858455032088
20905425 154 17332244200172520550
21197605 99 18194700374319634843
21236236 1 18050004691153611568
21421861 104 17761782767091129689
21524375 3 18409448089740113867
2334 1 18411134761877937406
23419403 2 12990322483399127709
23558518 356 17682956948755455768
238 59 17901066829949651493
2748010 2 18336846228698344210
3060560 45 18335973173611208277
3383291 50 18121501250820562474
34934 24 18335698373646743224
350125 39 17689723373425435696
352729 6 18271254931347246068
4340502 62 18339658758974914761
474 4 18270404880231476633
5104073 3 18122892386732995856
57527452 28 15682999942399120055
6138700 20 17979359660224973622
633830 44 18130235839250870669
6438718 38 18057327394848212151
81228 2 17830443243681698281
8272917 22 18196656194803779621
9981440 41 16624296584282098456

> <PUBCHEM_SHAPE_MULTIPOLES>
427.84
6.07
4.14
1.16
1.06
4.16
0
-4.4
0
-0.5
0
0.91
0.45
0

> <PUBCHEM_SHAPE_SELFOVERLAP>
970.51

> <PUBCHEM_SHAPE_VOLUME>
218.4

> <PUBCHEM_COORDINATE_TYPE>
2
5
10

$$$$
