11590363
  -OEChem-10062121563D

 51 52  0     0  0  0  0  0  0999 V2000
   -6.8118   -2.1535   -0.3170 Cl  0  0  0  0  0  0  0  0  0  0  0  0
    6.2555   -0.4627   -0.3910 S   0  0  0  0  0  0  0  0  0  0  0  0
    1.9034    1.4825   -2.1816 O   0  0  0  0  0  0  0  0  0  0  0  0
    4.6609   -0.4976    2.1643 O   0  0  0  0  0  0  0  0  0  0  0  0
    6.4136   -1.7342    0.2983 O   0  0  0  0  0  0  0  0  0  0  0  0
    6.5951   -0.3558   -1.8024 O   0  0  0  0  0  0  0  0  0  0  0  0
   -0.1544   -0.8837   -0.1391 O   0  0  0  0  0  0  0  0  0  0  0  0
   -6.4427    0.7322    0.2964 O   0  0  0  0  0  0  0  0  0  0  0  0
   -1.7729    0.7750    0.2386 N   0  0  0  0  0  0  0  0  0  0  0  0
   -4.1374    0.7507    0.2683 N   0  0  0  0  0  0  0  0  0  0  0  0
   -4.0392   -3.3617   -0.6154 N   0  0  0  0  0  0  0  0  0  0  0  0
    1.9656    0.9185    0.1473 C   0  0  0  0  0  0  0  0  0  0  0  0
    4.6031    0.0656   -0.1677 C   0  0  0  0  0  0  0  0  0  0  0  0
    2.5786    0.9944   -1.1033 C   0  0  0  0  0  0  0  0  0  0  0  0
    3.9902   -0.0104    1.0829 C   0  0  0  0  0  0  0  0  0  0  0  0
    0.5549    1.3705    0.3342 C   0  0  0  0  0  0  0  0  0  0  0  0
    2.6715    0.4161    1.2404 C   0  0  0  0  0  0  0  0  0  0  0  0
    3.8973    0.5679   -1.2609 C   0  0  0  0  0  0  0  0  0  0  0  0
   -0.4805    0.2720    0.1123 C   0  0  0  0  0  0  0  0  0  0  0  0
    7.2248    0.7532    0.4709 C   0  0  0  0  0  0  0  0  0  0  0  0
   -2.9911    0.0670    0.1056 C   0  0  0  0  0  0  0  0  0  0  0  0
   -2.9029   -1.2780   -0.1843 C   0  0  0  0  0  0  0  0  0  0  0  0
    1.1712    0.5438   -2.9667 C   0  0  0  0  0  0  0  0  0  0  0  0
    3.9531   -0.5372    3.4018 C   0  0  0  0  0  0  0  0  0  0  0  0
   -4.0946   -1.9820   -0.3185 C   0  0  0  0  0  0  0  0  0  0  0  0
   -5.2751    0.0334    0.1305 C   0  0  0  0  0  0  0  0  0  0  0  0
   -5.3076   -1.3211   -0.1596 C   0  0  0  0  0  0  0  0  0  0  0  0
   -6.3222    2.1183    0.5921 C   0  0  0  0  0  0  0  0  0  0  0  0
   -7.7064    2.7165    0.7239 C   0  0  0  0  0  0  0  0  0  0  0  0
    0.4203    1.7603    1.3521 H   0  0  0  0  0  0  0  0  0  0  0  0
    0.3279    2.2106   -0.3342 H   0  0  0  0  0  0  0  0  0  0  0  0
    2.1409    0.3788    2.1859 H   0  0  0  0  0  0  0  0  0  0  0  0
    4.3545    0.6389   -2.2439 H   0  0  0  0  0  0  0  0  0  0  0  0
    6.9759    0.7366    1.5327 H   0  0  0  0  0  0  0  0  0  0  0  0
    8.2788    0.4994    0.3370 H   0  0  0  0  0  0  0  0  0  0  0  0
    7.0239    1.7360    0.0400 H   0  0  0  0  0  0  0  0  0  0  0  0
   -1.8852    1.7630    0.4523 H   0  0  0  0  0  0  0  0  0  0  0  0
   -1.9975   -1.8451   -0.3193 H   0  0  0  0  0  0  0  0  0  0  0  0
    1.3034    0.8024   -4.0210 H   0  0  0  0  0  0  0  0  0  0  0  0
    0.1082    0.6191   -2.7229 H   0  0  0  0  0  0  0  0  0  0  0  0
    1.5134   -0.4855   -2.8134 H   0  0  0  0  0  0  0  0  0  0  0  0
    3.0921   -1.2127    3.3542 H   0  0  0  0  0  0  0  0  0  0  0  0
    3.6808    0.4669    3.7448 H   0  0  0  0  0  0  0  0  0  0  0  0
    4.6378   -0.9510    4.1496 H   0  0  0  0  0  0  0  0  0  0  0  0
   -5.7892    2.6341   -0.2159 H   0  0  0  0  0  0  0  0  0  0  0  0
   -5.7825    2.2584    1.5364 H   0  0  0  0  0  0  0  0  0  0  0  0
   -4.8975   -3.8874   -0.7155 H   0  0  0  0  0  0  0  0  0  0  0  0
   -3.1471   -3.8247   -0.7266 H   0  0  0  0  0  0  0  0  0  0  0  0
   -7.6512    3.7846    0.9520 H   0  0  0  0  0  0  0  0  0  0  0  0
   -8.2745    2.5820   -0.2025 H   0  0  0  0  0  0  0  0  0  0  0  0
   -8.2695    2.2144    1.5177 H   0  0  0  0  0  0  0  0  0  0  0  0
  1 27  1  0  0  0  0
  2  5  2  0  0  0  0
  2  6  2  0  0  0  0
  2 13  1  0  0  0  0
  2 20  1  0  0  0  0
  3 14  1  0  0  0  0
  3 23  1  0  0  0  0
  4 15  1  0  0  0  0
  4 24  1  0  0  0  0
  7 19  2  0  0  0  0
  8 26  1  0  0  0  0
  8 28  1  0  0  0  0
  9 19  1  0  0  0  0
  9 21  1  0  0  0  0
  9 37  1  0  0  0  0
 10 21  2  0  0  0  0
 10 26  1  0  0  0  0
 11 25  1  0  0  0  0
 11 47  1  0  0  0  0
 11 48  1  0  0  0  0
 12 14  1  0  0  0  0
 12 16  1  0  0  0  0
 12 17  2  0  0  0  0
 13 15  2  0  0  0  0
 13 18  1  0  0  0  0
 14 18  2  0  0  0  0
 15 17  1  0  0  0  0
 16 19  1  0  0  0  0
 16 30  1  0  0  0  0
 16 31  1  0  0  0  0
 17 32  1  0  0  0  0
 18 33  1  0  0  0  0
 20 34  1  0  0  0  0
 20 35  1  0  0  0  0
 20 36  1  0  0  0  0
 21 22  1  0  0  0  0
 22 25  2  0  0  0  0
 22 38  1  0  0  0  0
 23 39  1  0  0  0  0
 23 40  1  0  0  0  0
 23 41  1  0  0  0  0
 24 42  1  0  0  0  0
 24 43  1  0  0  0  0
 24 44  1  0  0  0  0
 25 27  1  0  0  0  0
 26 27  2  0  0  0  0
 28 29  1  0  0  0  0
 28 45  1  0  0  0  0
 28 46  1  0  0  0  0
 29 49  1  0  0  0  0
 29 50  1  0  0  0  0
 29 51  1  0  0  0  0
M  END
> <PUBCHEM_COMPOUND_CID>
11590363

> <PUBCHEM_CONFORMER_RMSD>
1

> <PUBCHEM_CONFORMER_DIVERSEORDER>
1
46
23
28
18
29
17
48
35
15
47
33
19
10
4
21
31
38
11
27
43
41
39
36
25
22
24
49
40
32
20
5
7
42
6
26
14
12
3
13
45
30
16
8
2
9
44
34
37

> <PUBCHEM_MMFF94_PARTIAL_CHARGES>
34
1 -0.18
10 -0.62
11 -0.9
12 -0.14
13 -0.01
14 0.08
15 0.08
16 0.2
17 -0.15
18 -0.15
19 0.57
2 1.2
20 0.11
21 0.43
22 -0.15
23 0.28
24 0.28
25 0.1
26 0.39
27 0.18
28 0.28
3 -0.36
32 0.15
33 0.15
37 0.37
38 0.15
4 -0.36
47 0.4
48 0.4
5 -0.65
6 -0.65
7 -0.57
8 -0.36
9 -0.55

> <PUBCHEM_EFFECTIVE_ROTOR_COUNT>
9

> <PUBCHEM_PHARMACOPHORE_FEATURES>
11
1 11 cation
1 11 donor
1 3 acceptor
1 4 acceptor
1 5 acceptor
1 6 acceptor
1 7 acceptor
1 8 acceptor
1 9 donor
6 10 21 22 25 26 27 rings
6 12 13 14 15 17 18 rings

> <PUBCHEM_HEAVY_ATOM_COUNT>
29

> <PUBCHEM_ATOM_DEF_STEREO_COUNT>
0

> <PUBCHEM_ATOM_UDEF_STEREO_COUNT>
0

> <PUBCHEM_BOND_DEF_STEREO_COUNT>
0

> <PUBCHEM_BOND_UDEF_STEREO_COUNT>
0

> <PUBCHEM_ISOTOPIC_ATOM_COUNT>
0

> <PUBCHEM_COMPONENT_COUNT>
1

> <PUBCHEM_CACTVS_TAUTO_COUNT>
13

> <PUBCHEM_CONFORMER_ID>
00B0DADB00000001

> <PUBCHEM_MMFF94_ENERGY>
105.6332

> <PUBCHEM_FEATURE_SELFOVERLAP>
55.845

> <PUBCHEM_SHAPE_FINGERPRINT>
10299344 5 18113057134139781147
10319926 262 18202274823374548027
10673678 19 12902131798771723598
10693767 8 17604142641755218194
11315181 36 17060623308942248337
11331351 85 18113902606958194132
11524674 6 17060338539641628879
11719270 70 17346604054075320406
11796584 16 18343588442864315870
12166972 35 18334860553622315229
12236239 1 18259988192768871052
12616971 3 17894635872464826453
13782708 43 17560517438736910607
13878862 14 15338537389608488624
14294032 229 18263928731539432165
15021287 119 17530972375945598797
15183329 4 17967527982822021535
15328829 1 17968102971305549257
15348495 7 16701732873217642867
15461852 350 17203321230935885005
15475509 35 17988354881195714690
15537594 2 17603862304015971018
1577012 14 18114177523745910473
17844677 252 18271530913694035073
18681886 176 18338236076442731200
21033648 29 17560504166812829232
21267235 1 18338519755054481227
21315763 178 18040991847662432424
21521721 280 16515978059734410564
21623969 137 15985112941378348622
21641784 216 14996283553588126630
21792961 116 14129051505158142360
21859007 373 17631729370604026961
220451 1 17822008705269715115
221357 26 15864340367943326550
23081809 10 18040995155225139033
23516275 137 18044677324951311538
23522609 53 17968397679240029549
23559900 14 17989208148581839433
24771293 8 17822853216944024052
3004659 81 18334011730634531348
3178227 256 15913332416572111862
397830 11 17273964908100583346
4340502 62 14476966709153770084
46194498 28 13118291368990955190
465052 167 17346604080245848764
559249 180 18413108364555745607
59755656 215 18130792204850290863

> <PUBCHEM_SHAPE_MULTIPOLES>
552.37
21.54
2.24
1.98
9.59
0.66
0.24
-0.44
2.8
6.12
-0.02
-4.23
-0.17
-1.32

> <PUBCHEM_SHAPE_SELFOVERLAP>
1141.221

> <PUBCHEM_SHAPE_VOLUME>
319.7

> <PUBCHEM_COORDINATE_TYPE>
2
5
10

$$$$
