49830780
  -OEChem-10052120433D

 63 67  0     0  0  0  0  0  0999 V2000
    8.9314   -2.2301   -0.5557 F   0  0  0  0  0  0  0  0  0  0  0  0
    5.5985   -3.4362    2.5854 F   0  0  0  0  0  0  0  0  0  0  0  0
   -1.6571    0.4193   -1.3580 O   0  0  0  0  0  0  0  0  0  0  0  0
   -1.7112    3.7075    0.8999 O   0  0  0  0  0  0  0  0  0  0  0  0
   -6.0421   -0.8444    0.1234 N   0  0  0  0  0  0  0  0  0  0  0  0
   -8.3369   -2.4841   -0.3290 N   0  0  0  0  0  0  0  0  0  0  0  0
   -0.3014    1.9657    0.2037 N   0  0  0  0  0  0  0  0  0  0  0  0
    2.4905    4.0175    0.4195 N   0  0  0  0  0  0  0  0  0  0  0  0
    1.1664    3.8466    0.5684 N   0  0  0  0  0  0  0  0  0  0  0  0
   -5.8771   -2.2326   -0.3183 C   0  0  0  0  0  0  0  0  0  0  0  0
   -7.3373   -0.2277   -0.1899 C   0  0  0  0  0  0  0  0  0  0  0  0
   -7.0734   -3.0815    0.1196 C   0  0  0  0  0  0  0  0  0  0  0  0
   -8.4858   -1.1410    0.2449 C   0  0  0  0  0  0  0  0  0  0  0  0
   -4.9232   -0.0098    0.2219 C   0  0  0  0  0  0  0  0  0  0  0  0
   -9.4676   -3.3314    0.0484 C   0  0  0  0  0  0  0  0  0  0  0  0
   -3.8304   -0.2054   -0.6226 C   0  0  0  0  0  0  0  0  0  0  0  0
   -4.9005    1.0175    1.1654 C   0  0  0  0  0  0  0  0  0  0  0  0
   -2.7150    0.6263   -0.5241 C   0  0  0  0  0  0  0  0  0  0  0  0
   -2.6923    1.6537    0.4193 C   0  0  0  0  0  0  0  0  0  0  0  0
   -3.7850    1.8490    1.2641 C   0  0  0  0  0  0  0  0  0  0  0  0
    2.1718    1.9337   -0.1850 C   0  0  0  0  0  0  0  0  0  0  0  0
   -1.5378    2.5331    0.5392 C   0  0  0  0  0  0  0  0  0  0  0  0
    0.9762    2.5777    0.2002 C   0  0  0  0  0  0  0  0  0  0  0  0
    3.1526    2.9069   -0.0304 C   0  0  0  0  0  0  0  0  0  0  0  0
    3.8844    0.4067   -0.9262 C   0  0  0  0  0  0  0  0  0  0  0  0
    2.5361    0.6560   -0.6412 C   0  0  0  0  0  0  0  0  0  0  0  0
    4.2933   -0.9443   -1.4130 C   0  0  0  0  0  0  0  0  0  0  0  0
    4.8492    1.4026   -0.7620 C   0  0  0  0  0  0  0  0  0  0  0  0
    4.5022    2.6793   -0.3086 C   0  0  0  0  0  0  0  0  0  0  0  0
    5.3458   -1.6132   -0.5531 C   0  0  0  0  0  0  0  0  0  0  0  0
   -1.7684   -0.6539   -2.2905 C   0  0  0  0  0  0  0  0  0  0  0  0
    4.9803   -2.2291    0.6439 C   0  0  0  0  0  0  0  0  0  0  0  0
    6.6805   -1.6138   -0.9586 C   0  0  0  0  0  0  0  0  0  0  0  0
    7.6497   -2.2301   -0.1669 C   0  0  0  0  0  0  0  0  0  0  0  0
    5.9494   -2.8451    1.4358 C   0  0  0  0  0  0  0  0  0  0  0  0
    7.2842   -2.8457    1.0304 C   0  0  0  0  0  0  0  0  0  0  0  0
   -4.9713   -2.6742    0.1158 H   0  0  0  0  0  0  0  0  0  0  0  0
   -5.7852   -2.2698   -1.4115 H   0  0  0  0  0  0  0  0  0  0  0  0
   -7.4611    0.7378    0.3138 H   0  0  0  0  0  0  0  0  0  0  0  0
   -7.3939   -0.0380   -1.2696 H   0  0  0  0  0  0  0  0  0  0  0  0
   -6.9582   -4.0838   -0.3106 H   0  0  0  0  0  0  0  0  0  0  0  0
   -7.0638   -3.1923    1.2125 H   0  0  0  0  0  0  0  0  0  0  0  0
   -8.5214   -1.1891    1.3417 H   0  0  0  0  0  0  0  0  0  0  0  0
   -9.4275   -0.6915   -0.0930 H   0  0  0  0  0  0  0  0  0  0  0  0
  -10.4073   -2.9035   -0.3183 H   0  0  0  0  0  0  0  0  0  0  0  0
   -9.5472   -3.4591    1.1341 H   0  0  0  0  0  0  0  0  0  0  0  0
   -9.3746   -4.3224   -0.4095 H   0  0  0  0  0  0  0  0  0  0  0  0
   -3.8931   -0.9999   -1.3558 H   0  0  0  0  0  0  0  0  0  0  0  0
   -5.7353    1.1761    1.8431 H   0  0  0  0  0  0  0  0  0  0  0  0
   -3.7848    2.6375    2.0124 H   0  0  0  0  0  0  0  0  0  0  0  0
    1.7845   -0.1177   -0.7688 H   0  0  0  0  0  0  0  0  0  0  0  0
   -0.2771    0.9871   -0.0706 H   0  0  0  0  0  0  0  0  0  0  0  0
    4.6556   -0.8513   -2.4458 H   0  0  0  0  0  0  0  0  0  0  0  0
    3.4287   -1.6186   -1.4785 H   0  0  0  0  0  0  0  0  0  0  0  0
    5.8932    1.2110   -0.9974 H   0  0  0  0  0  0  0  0  0  0  0  0
    5.2493    3.4551   -0.1833 H   0  0  0  0  0  0  0  0  0  0  0  0
    2.8837    4.9231    0.6434 H   0  0  0  0  0  0  0  0  0  0  0  0
   -1.8487   -1.6229   -1.7860 H   0  0  0  0  0  0  0  0  0  0  0  0
   -2.5778   -0.4842   -3.0088 H   0  0  0  0  0  0  0  0  0  0  0  0
   -0.8365   -0.6754   -2.8654 H   0  0  0  0  0  0  0  0  0  0  0  0
    3.9437   -2.2356    0.9701 H   0  0  0  0  0  0  0  0  0  0  0  0
    6.9799   -1.1383   -1.8887 H   0  0  0  0  0  0  0  0  0  0  0  0
    8.0387   -3.3251    1.6468 H   0  0  0  0  0  0  0  0  0  0  0  0
  1 34  1  0  0  0  0
  2 35  1  0  0  0  0
  3 18  1  0  0  0  0
  3 31  1  0  0  0  0
  4 22  2  0  0  0  0
  5 10  1  0  0  0  0
  5 11  1  0  0  0  0
  5 14  1  0  0  0  0
  6 12  1  0  0  0  0
  6 13  1  0  0  0  0
  6 15  1  0  0  0  0
  7 22  1  0  0  0  0
  7 23  1  0  0  0  0
  7 52  1  0  0  0  0
  8  9  1  0  0  0  0
  8 24  1  0  0  0  0
  8 57  1  0  0  0  0
  9 23  2  0  0  0  0
 10 12  1  0  0  0  0
 10 37  1  0  0  0  0
 10 38  1  0  0  0  0
 11 13  1  0  0  0  0
 11 39  1  0  0  0  0
 11 40  1  0  0  0  0
 12 41  1  0  0  0  0
 12 42  1  0  0  0  0
 13 43  1  0  0  0  0
 13 44  1  0  0  0  0
 14 16  2  0  0  0  0
 14 17  1  0  0  0  0
 15 45  1  0  0  0  0
 15 46  1  0  0  0  0
 15 47  1  0  0  0  0
 16 18  1  0  0  0  0
 16 48  1  0  0  0  0
 17 20  2  0  0  0  0
 17 49  1  0  0  0  0
 18 19  2  0  0  0  0
 19 20  1  0  0  0  0
 19 22  1  0  0  0  0
 20 50  1  0  0  0  0
 21 23  1  0  0  0  0
 21 24  2  0  0  0  0
 21 26  1  0  0  0  0
 24 29  1  0  0  0  0
 25 26  2  0  0  0  0
 25 27  1  0  0  0  0
 25 28  1  0  0  0  0
 26 51  1  0  0  0  0
 27 30  1  0  0  0  0
 27 53  1  0  0  0  0
 27 54  1  0  0  0  0
 28 29  2  0  0  0  0
 28 55  1  0  0  0  0
 29 56  1  0  0  0  0
 30 32  2  0  0  0  0
 30 33  1  0  0  0  0
 31 58  1  0  0  0  0
 31 59  1  0  0  0  0
 31 60  1  0  0  0  0
 32 35  1  0  0  0  0
 32 61  1  0  0  0  0
 33 34  2  0  0  0  0
 33 62  1  0  0  0  0
 34 36  1  0  0  0  0
 35 36  2  0  0  0  0
 36 63  1  0  0  0  0
M  END
> <PUBCHEM_COMPOUND_CID>
49830780

> <PUBCHEM_CONFORMER_RMSD>
1

> <PUBCHEM_CONFORMER_DIVERSEORDER>
5
138
135
212
175
50
115
180
218
201
72
113
98
71
196
208
101
119
163
87
65
189
181
123
162
207
184
112
99
174
203
116
157
161
169
85
43
166
17
144
186
214
103
185
79
78
187
114
109
126
200
202
62
134
172
178
191
108
86
148
61
80
118
179
67
104
182
141
102
63
193
73
140
183
91
125
44
19
195
159
197
76
165
194
81
83
211
192
188
132
213
107
9
105
33
111
49
173
164
29
52
39
150
205
168
122
133
37
170
136
2
152
96
155
198
57
84
82
95
209
128
53
206
156
171
6
97
216
93
190
88
94
204
142
127
210
21
199
129
106
215
177
124
167
147
28
110
131
41
34
158
64
25
139
36
143
26
154
54
74
24
130
146
77
90
151
69
42
45
153
35
117
137
22
66
120
89
68
100
38
219
27
7
75
145
217
40
46
47
55
92
121
14
160
149
59
56
32
60
23
10
8
58
48
20
13
176
51
15
3
30
31
4
16
12
18
70
11
1

> <PUBCHEM_MMFF94_PARTIAL_CHARGES>
46
1 -0.19
10 0.37
11 0.37
12 0.27
13 0.27
14 0.1
15 0.27
16 -0.15
17 -0.15
18 0.08
19 0.09
2 -0.19
20 -0.15
22 0.54
23 0.35
24 -0.15
25 -0.14
26 -0.15
27 0.29
28 -0.15
29 -0.15
3 -0.36
30 -0.14
31 0.28
32 -0.15
33 -0.15
34 0.19
35 0.19
36 -0.15
4 -0.57
48 0.15
49 0.15
5 -0.84
50 0.15
51 0.15
52 0.37
55 0.15
56 0.15
57 0.27
6 -0.81
61 0.15
62 0.15
63 0.15
7 -0.49
8 0.3
9 -0.71

> <PUBCHEM_EFFECTIVE_ROTOR_COUNT>
8.2

> <PUBCHEM_PHARMACOPHORE_FEATURES>
11
1 3 acceptor
1 4 acceptor
1 5 cation
1 6 cation
1 7 donor
1 8 donor
5 8 9 21 23 24 rings
6 14 16 17 18 19 20 rings
6 21 24 25 26 28 29 rings
6 30 32 33 34 35 36 rings
6 5 6 10 11 12 13 rings

> <PUBCHEM_HEAVY_ATOM_COUNT>
36

> <PUBCHEM_ATOM_DEF_STEREO_COUNT>
0

> <PUBCHEM_ATOM_UDEF_STEREO_COUNT>
0

> <PUBCHEM_BOND_DEF_STEREO_COUNT>
0

> <PUBCHEM_BOND_UDEF_STEREO_COUNT>
0

> <PUBCHEM_ISOTOPIC_ATOM_COUNT>
0

> <PUBCHEM_COMPONENT_COUNT>
1

> <PUBCHEM_CACTVS_TAUTO_COUNT>
42

> <PUBCHEM_CONFORMER_ID>
02F85B7C00000005

> <PUBCHEM_MMFF94_ENERGY>
113.1142

> <PUBCHEM_FEATURE_SELFOVERLAP>
55.916

> <PUBCHEM_SHAPE_FINGERPRINT>
10258705 36 17900551374489498731
117089 54 18340776965693788850
11963148 33 18124873722720826439
12061779 8 12750081486828431074
12559416 138 18268700620303816734
13560911 23 18342184323581433633
13560911 43 18341617009909837460
13782708 43 18113333111526717431
13947947 140 18334863766405591111
14068700 675 18412547582790779809
15230672 131 18336261259571228795
15347591 1 18411420600563604701
16728300 4 18343018883330343967
18393751 57 11959732659968865597
19301676 85 18337112397224826979
19301679 30 18343585126833285881
19303781 99 18342444950639235727
19304671 126 14490485213386877526
19841028 212 18410856594490353059
20028762 73 18342462483186874078
20165401 70 18341893056380591991
208703 8 18340767057483337726
20982279 24 18114762524705794331
21033648 29 12751240328353639909
21585483 132 18334290950980811234
21792938 131 18408878534660131843
21792938 703 18334018332331855114
21987483 16 18126005108171642731
23569943 247 18335704902007752259
24983565 74 18198333155905210767
3383291 50 18202002114421586871
3711267 37 10737273620410264607
406291 66 18411700984886984867
4258327 124 8214145158112857373
42767 23 18114460067763750542
439807 62 18335141985764845429
4461854 278 17632576059346233630
45266715 3 18113897221401130936
474113 269 18341886395170574479
4756088 132 17479166914129437703
4760202 70 18260562113313472190
50009960 94 18411125940157841598
504579 68 12324239455909966806
5104073 3 17989491818081786081
54039377 194 18412268303275541558
5718773 13 18411984650017084317
5874358 3 17345454042786736775
6201460 15 17610608727398313986
6697151 62 18199163170956067205
96874 4 18261954042598349386
9962374 69 18272647986746570526

> <PUBCHEM_SHAPE_MULTIPOLES>
689.67
27.56
5.2
1.35
21.62
1.19
-0.07
-37.86
-1.82
-3.63
-1.94
-1.32
-0.69
-2.83

> <PUBCHEM_SHAPE_SELFOVERLAP>
1512.41

> <PUBCHEM_SHAPE_VOLUME>
375.3

> <PUBCHEM_COORDINATE_TYPE>
2
5
10

$$$$
