46873764
  -OEChem-10052115183D

 41 42  0     0  0  0  0  0  0999 V2000
    6.4275   -2.3033   -0.3420 O   0  0  0  0  0  0  0  0  0  0  0  0
    5.8799   -1.0534    1.4654 O   0  0  0  0  0  0  0  0  0  0  0  0
    3.0020    0.6012   -0.8157 N   0  0  0  0  0  0  0  0  0  0  0  0
    4.5942   -0.7595   -0.6235 C   0  0  0  0  0  0  0  0  0  0  0  0
    4.4734    0.7675   -0.7261 C   0  0  0  0  0  0  0  0  0  0  0  0
    3.1467   -0.6987   -0.1159 C   0  0  0  0  0  0  0  0  0  0  0  0
    2.3413    1.5657    0.0654 C   0  0  0  0  0  0  0  0  0  0  0  0
    5.6784   -1.3592    0.2926 C   0  0  0  0  0  0  0  0  0  0  0  0
    0.8619    1.3816    0.1010 C   0  0  0  0  0  0  0  0  0  0  0  0
    0.2616    0.7689    1.2011 C   0  0  0  0  0  0  0  0  0  0  0  0
    0.0784    1.8222   -0.9656 C   0  0  0  0  0  0  0  0  0  0  0  0
   -1.1220    0.5969    1.2345 C   0  0  0  0  0  0  0  0  0  0  0  0
   -1.3054    1.6500   -0.9323 C   0  0  0  0  0  0  0  0  0  0  0  0
   -1.9057    1.0375    0.1679 C   0  0  0  0  0  0  0  0  0  0  0  0
   -6.3580   -0.9520    0.4631 C   0  0  0  0  0  0  0  0  0  0  0  0
   -5.8882   -1.8564   -0.6799 C   0  0  0  0  0  0  0  0  0  0  0  0
   -5.9719    0.5140    0.2587 C   0  0  0  0  0  0  0  0  0  0  0  0
   -3.3247    0.8611    0.2022 C   0  0  0  0  0  0  0  0  0  0  0  0
   -6.3539   -3.2903   -0.4797 C   0  0  0  0  0  0  0  0  0  0  0  0
   -4.5156    0.7065    0.2289 C   0  0  0  0  0  0  0  0  0  0  0  0
    4.6379   -1.2161   -1.6260 H   0  0  0  0  0  0  0  0  0  0  0  0
    4.9302    1.2074   -1.6184 H   0  0  0  0  0  0  0  0  0  0  0  0
    4.8473    1.3083    0.1532 H   0  0  0  0  0  0  0  0  0  0  0  0
    3.0634   -0.6806    0.9787 H   0  0  0  0  0  0  0  0  0  0  0  0
    2.4922   -1.4897   -0.4964 H   0  0  0  0  0  0  0  0  0  0  0  0
    2.5454    2.5792   -0.3076 H   0  0  0  0  0  0  0  0  0  0  0  0
    2.7468    1.5571    1.0877 H   0  0  0  0  0  0  0  0  0  0  0  0
    0.8591    0.4204    2.0394 H   0  0  0  0  0  0  0  0  0  0  0  0
    0.5340    2.3012   -1.8284 H   0  0  0  0  0  0  0  0  0  0  0  0
    7.1146   -2.6802    0.2481 H   0  0  0  0  0  0  0  0  0  0  0  0
   -1.5753    0.1173    2.0988 H   0  0  0  0  0  0  0  0  0  0  0  0
   -1.9027    1.9986   -1.7714 H   0  0  0  0  0  0  0  0  0  0  0  0
   -7.4498   -1.0154    0.5502 H   0  0  0  0  0  0  0  0  0  0  0  0
   -5.9410   -1.3164    1.4106 H   0  0  0  0  0  0  0  0  0  0  0  0
   -6.2789   -1.4827   -1.6336 H   0  0  0  0  0  0  0  0  0  0  0  0
   -4.7950   -1.8507   -0.7513 H   0  0  0  0  0  0  0  0  0  0  0  0
   -6.3989    1.1107    1.0732 H   0  0  0  0  0  0  0  0  0  0  0  0
   -6.4137    0.8866   -0.6727 H   0  0  0  0  0  0  0  0  0  0  0  0
   -6.0093   -3.9196   -1.3062 H   0  0  0  0  0  0  0  0  0  0  0  0
   -5.9562   -3.7051    0.4521 H   0  0  0  0  0  0  0  0  0  0  0  0
   -7.4465   -3.3468   -0.4428 H   0  0  0  0  0  0  0  0  0  0  0  0
  1  8  1  0  0  0  0
  1 30  1  0  0  0  0
  2  8  2  0  0  0  0
  3  5  1  0  0  0  0
  3  6  1  0  0  0  0
  3  7  1  0  0  0  0
  4  5  1  0  0  0  0
  4  6  1  0  0  0  0
  4  8  1  0  0  0  0
  4 21  1  0  0  0  0
  5 22  1  0  0  0  0
  5 23  1  0  0  0  0
  6 24  1  0  0  0  0
  6 25  1  0  0  0  0
  7  9  1  0  0  0  0
  7 26  1  0  0  0  0
  7 27  1  0  0  0  0
  9 10  2  0  0  0  0
  9 11  1  0  0  0  0
 10 12  1  0  0  0  0
 10 28  1  0  0  0  0
 11 13  2  0  0  0  0
 11 29  1  0  0  0  0
 12 14  2  0  0  0  0
 12 31  1  0  0  0  0
 13 14  1  0  0  0  0
 13 32  1  0  0  0  0
 14 18  1  0  0  0  0
 15 16  1  0  0  0  0
 15 17  1  0  0  0  0
 15 33  1  0  0  0  0
 15 34  1  0  0  0  0
 16 19  1  0  0  0  0
 16 35  1  0  0  0  0
 16 36  1  0  0  0  0
 17 20  1  0  0  0  0
 17 37  1  0  0  0  0
 17 38  1  0  0  0  0
 18 20  3  0  0  0  0
 19 39  1  0  0  0  0
 19 40  1  0  0  0  0
 19 41  1  0  0  0  0
M  END
> <PUBCHEM_COMPOUND_CID>
46873764

> <PUBCHEM_CONFORMER_RMSD>
0.8

> <PUBCHEM_CONFORMER_DIVERSEORDER>
1
18
49
12
43
31
40
46
59
39
13
56
27
37
23
48
60
15
16
47
52
44
9
10
19
61
51
17
53
42
38
26
32
8
33
3
2
41
20
21
30
57
55
4
29
35
7
22
28
50
54
34
36
6
58
45
14
5
24
11
25

> <PUBCHEM_MMFF94_PARTIAL_CHARGES>
22
1 -0.65
10 -0.15
11 -0.15
12 -0.15
13 -0.15
14 0.07
17 0.2
18 -0.07
2 -0.57
20 -0.2
28 0.15
29 0.15
3 -0.69
30 0.5
31 0.15
32 0.15
4 0.05
5 0.21
6 0.21
7 0.41
8 0.67
9 -0.14

> <PUBCHEM_EFFECTIVE_ROTOR_COUNT>
5.8

> <PUBCHEM_PHARMACOPHORE_FEATURES>
8
1 1 acceptor
1 19 hydrophobe
1 2 acceptor
1 3 cation
3 1 2 8 anion
4 15 16 17 20 hydrophobe
4 3 4 5 6 rings
6 9 10 11 12 13 14 rings

> <PUBCHEM_HEAVY_ATOM_COUNT>
20

> <PUBCHEM_ATOM_DEF_STEREO_COUNT>
0

> <PUBCHEM_ATOM_UDEF_STEREO_COUNT>
0

> <PUBCHEM_BOND_DEF_STEREO_COUNT>
0

> <PUBCHEM_BOND_UDEF_STEREO_COUNT>
0

> <PUBCHEM_ISOTOPIC_ATOM_COUNT>
0

> <PUBCHEM_COMPONENT_COUNT>
1

> <PUBCHEM_CACTVS_TAUTO_COUNT>
1

> <PUBCHEM_CONFORMER_ID>
02CB3CA400000001

> <PUBCHEM_MMFF94_ENERGY>
34.3798

> <PUBCHEM_FEATURE_SELFOVERLAP>
40.655

> <PUBCHEM_SHAPE_FINGERPRINT>
10087517 78 9655577392729956331
10378564 45 12324235041173969696
106641 1 14189279479146276413
10670039 82 14345787210790750207
10693767 8 18040708186584726843
10730089 47 18410292536282161001
117890 112 9943804482413820461
11796584 16 18201444653825863061
11991303 11 14996576130791300259
12555020 224 17530971289017666339
12596602 18 17704072863360562714
12670543 26 16660362550185053989
13533116 47 18409172138334666608
13668630 136 18338802204772392870
13862211 1 18260831483780034249
14211702 104 18202010910398311039
14251751 18 18273214222777279567
14251752 14 17749102245553670245
14251764 30 18412260645005798497
14289585 56 16951110864273799607
14347332 77 17749945553486486260
15183329 4 16588307163622880721
190975 80 17131823317790246571
200 152 18337674101463067552
20028762 73 18412263917829699462
20281389 69 9223231836611924543
20374829 77 18186803539109298296
20526848 3 9943517523075239186
20567600 247 18409729582097439811
20621476 30 18263927812405523995
21424621 283 10159704603361810077
21585483 132 18336530707970617667
21637258 2 18413102866601993805
22224240 67 13830129477996147797
23402539 116 17894913975438886397
23522609 53 18121535468255199861
23559900 14 17168159948681088548
2838139 119 11169912822782420735
2916195 48 9727637198575606949
3004659 81 17967820418792427384
316301 35 17986106538455707895
439807 62 18337956796558877391
465052 167 18273220806550668676
5104073 3 17560808783690580961
559249 180 18412263935636426111
5718773 13 18261952934760686978
59682541 35 18059842975454439346
59682541 52 13768195070087053048
7062679 6 8862947178016273115
7495541 125 17917995027003988201
8863177 126 17987797561479687851

> <PUBCHEM_SHAPE_MULTIPOLES>
394.87
18.27
2.55
1.07
5.13
1.94
0.15
17.15
-0.07
1.8
-0.53
-0.43
-0.1
-1.17

> <PUBCHEM_SHAPE_SELFOVERLAP>
808.229

> <PUBCHEM_SHAPE_VOLUME>
227.4

> <PUBCHEM_COORDINATE_TYPE>
2
5
10

$$$$
