11646704
  -OEChem-10062121543D

 48 51  0     0  0  0  0  0  0999 V2000
   -4.2782   -2.0933   -1.6688 O   0  0  0  0  0  0  0  0  0  0  0  0
   -4.8070    0.7935   -2.5099 O   0  0  0  0  0  0  0  0  0  0  0  0
    3.8215   -1.7023   -0.2393 O   0  0  0  0  0  0  0  0  0  0  0  0
   -2.4345   -1.1974    0.8035 N   0  0  0  0  0  0  0  0  0  0  0  0
   -3.0157    1.9795   -0.1232 N   0  0  0  0  0  0  0  0  0  0  0  0
    0.4608    3.3867    1.7784 N   0  0  0  0  0  0  0  0  0  0  0  0
   -2.4266   -2.6403    0.8761 C   0  0  0  0  0  0  0  0  0  0  0  0
   -1.2618   -3.1341    1.7458 C   0  0  0  0  0  0  0  0  0  0  0  0
   -3.1080   -0.4968   -0.1429 C   0  0  0  0  0  0  0  0  0  0  0  0
   -3.3178    0.7608   -0.4821 C   0  0  0  0  0  0  0  0  0  0  0  0
    0.0815   -2.7555    1.2208 C   0  0  0  0  0  0  0  0  0  0  0  0
   -3.9000   -1.0530   -1.1970 C   0  0  0  0  0  0  0  0  0  0  0  0
   -4.1557    0.3431   -1.6040 C   0  0  0  0  0  0  0  0  0  0  0  0
    0.6692   -1.5524    1.6119 C   0  0  0  0  0  0  0  0  0  0  0  0
    0.7507   -3.6045    0.3394 C   0  0  0  0  0  0  0  0  0  0  0  0
   -1.8397    2.4555    0.5201 C   0  0  0  0  0  0  0  0  0  0  0  0
    1.9261   -1.1984    1.1216 C   0  0  0  0  0  0  0  0  0  0  0  0
    2.0077   -3.2504   -0.1508 C   0  0  0  0  0  0  0  0  0  0  0  0
    2.5954   -2.0473    0.2403 C   0  0  0  0  0  0  0  0  0  0  0  0
   -1.9131    3.5583    1.3533 C   0  0  0  0  0  0  0  0  0  0  0  0
   -0.6335    1.8113    0.3066 C   0  0  0  0  0  0  0  0  0  0  0  0
    3.9974   -0.4014   -0.6802 C   0  0  0  0  0  0  0  0  0  0  0  0
   -0.7397    3.9825    1.9561 C   0  0  0  0  0  0  0  0  0  0  0  0
    0.4825    2.3137    0.9562 C   0  0  0  0  0  0  0  0  0  0  0  0
    3.0295    0.1749   -1.4827 C   0  0  0  0  0  0  0  0  0  0  0  0
    5.1371    0.2880   -0.3073 C   0  0  0  0  0  0  0  0  0  0  0  0
    3.2072    1.4850   -1.9275 C   0  0  0  0  0  0  0  0  0  0  0  0
    5.3148    1.5981   -0.7520 C   0  0  0  0  0  0  0  0  0  0  0  0
    4.3498    2.1965   -1.5622 C   0  0  0  0  0  0  0  0  0  0  0  0
   -2.3250   -3.0782   -0.1245 H   0  0  0  0  0  0  0  0  0  0  0  0
   -3.3732   -2.9917    1.3020 H   0  0  0  0  0  0  0  0  0  0  0  0
   -1.3256   -4.2261    1.8383 H   0  0  0  0  0  0  0  0  0  0  0  0
   -1.3766   -2.7496    2.7683 H   0  0  0  0  0  0  0  0  0  0  0  0
   -1.9611   -0.7057    1.5572 H   0  0  0  0  0  0  0  0  0  0  0  0
   -3.5956    2.7579   -0.4330 H   0  0  0  0  0  0  0  0  0  0  0  0
    0.1709   -0.8888    2.3133 H   0  0  0  0  0  0  0  0  0  0  0  0
    0.3027   -4.5435    0.0253 H   0  0  0  0  0  0  0  0  0  0  0  0
    2.3778   -0.2745    1.4712 H   0  0  0  0  0  0  0  0  0  0  0  0
    2.5239   -3.9152   -0.8381 H   0  0  0  0  0  0  0  0  0  0  0  0
   -2.8467    4.0786    1.5365 H   0  0  0  0  0  0  0  0  0  0  0  0
   -0.5281    0.9585   -0.3542 H   0  0  0  0  0  0  0  0  0  0  0  0
   -0.7352    4.8410    2.6196 H   0  0  0  0  0  0  0  0  0  0  0  0
    1.4587    1.8640    0.8190 H   0  0  0  0  0  0  0  0  0  0  0  0
    2.1420   -0.3650   -1.7996 H   0  0  0  0  0  0  0  0  0  0  0  0
    5.8890   -0.1766    0.3234 H   0  0  0  0  0  0  0  0  0  0  0  0
    2.4576    1.9497   -2.5614 H   0  0  0  0  0  0  0  0  0  0  0  0
    6.2045    2.1522   -0.4674 H   0  0  0  0  0  0  0  0  0  0  0  0
    4.4884    3.2164   -1.9089 H   0  0  0  0  0  0  0  0  0  0  0  0
  1 12  2  0  0  0  0
  2 13  2  0  0  0  0
  3 19  1  0  0  0  0
  3 22  1  0  0  0  0
  4  7  1  0  0  0  0
  4  9  1  0  0  0  0
  4 34  1  0  0  0  0
  5 10  1  0  0  0  0
  5 16  1  0  0  0  0
  5 35  1  0  0  0  0
  6 23  2  0  0  0  0
  6 24  1  0  0  0  0
  7  8  1  0  0  0  0
  7 30  1  0  0  0  0
  7 31  1  0  0  0  0
  8 11  1  0  0  0  0
  8 32  1  0  0  0  0
  8 33  1  0  0  0  0
  9 10  2  0  0  0  0
  9 12  1  0  0  0  0
 10 13  1  0  0  0  0
 11 14  2  0  0  0  0
 11 15  1  0  0  0  0
 12 13  1  0  0  0  0
 14 17  1  0  0  0  0
 14 36  1  0  0  0  0
 15 18  2  0  0  0  0
 15 37  1  0  0  0  0
 16 20  2  0  0  0  0
 16 21  1  0  0  0  0
 17 19  2  0  0  0  0
 17 38  1  0  0  0  0
 18 19  1  0  0  0  0
 18 39  1  0  0  0  0
 20 23  1  0  0  0  0
 20 40  1  0  0  0  0
 21 24  2  0  0  0  0
 21 41  1  0  0  0  0
 22 25  2  0  0  0  0
 22 26  1  0  0  0  0
 23 42  1  0  0  0  0
 24 43  1  0  0  0  0
 25 27  1  0  0  0  0
 25 44  1  0  0  0  0
 26 28  2  0  0  0  0
 26 45  1  0  0  0  0
 27 29  2  0  0  0  0
 27 46  1  0  0  0  0
 28 29  1  0  0  0  0
 28 47  1  0  0  0  0
 29 48  1  0  0  0  0
M  END
> <PUBCHEM_COMPOUND_CID>
11646704

> <PUBCHEM_CONFORMER_RMSD>
1

> <PUBCHEM_CONFORMER_DIVERSEORDER>
1
210
290
48
65
139
150
28
135
246
301
44
270
72
230
264
122
140
160
46
184
177
299
325
63
268
147
312
326
31
120
8
302
250
151
91
253
105
231
123
198
204
127
233
236
164
6
279
95
255
80
189
145
221
284
202
71
69
35
165
194
316
114
167
298
23
287
313
314
156
134
201
181
78
24
227
36
251
209
116
22
271
311
257
15
324
144
295
110
129
179
247
82
130
276
115
136
7
56
99
190
75
281
106
277
89
98
170
107
241
57
308
225
232
97
45
101
26
172
222
168
208
74
85
306
248
178
176
87
278
182
242
96
20
219
288
73
121
226
245
112
39
297
94
300
187
263
124
3
291
223
141
211
186
108
66
109
258
17
88
61
261
137
21
200
32
294
29
244
102
163
192
5
67
113
70
148
220
118
289
132
37
207
138
329
310
161
195
4
55
206
265
293
266
14
43
162
76
90
68
51
315
252
307
33
103
267
125
12
215
86
27
322
84
133
260
119
237
256
275
126
213
309
42
159
41
224
292
50
212
196
193
191
243
171
173
30
77
104
143
40
154
10
158
155
229
175
52
305
321
185
296
93
19
228
149
286
153
100
249
304
239
259
62
285
2
234
235
92
58
49
269
81
218
180
38
282
254
166
142
320
183
157
54
11
9
53
16
323
18
197
203
303
131
174
152
111
146
262
199
60
64
117
188
34
327
272
319
328
317
205
169
83
25
59
216
128
273
217
283
214
79
238
240
13
47
274
318
280

> <PUBCHEM_MMFF94_PARTIAL_CHARGES>
44
1 -0.57
10 0.03
11 -0.14
12 0.64
13 0.64
14 -0.15
15 -0.15
16 0.1
17 -0.15
18 -0.15
19 0.08
2 -0.57
20 -0.15
21 -0.15
22 0.08
23 0.16
24 0.16
25 -0.15
26 -0.15
27 -0.15
28 -0.15
29 -0.15
3 -0.17
34 0.4
35 0.4
36 0.15
37 0.15
38 0.15
39 0.15
4 -0.87
40 0.15
41 0.15
42 0.15
43 0.15
44 0.15
45 0.15
46 0.15
47 0.15
48 0.15
5 -0.6
6 -0.62
7 0.37
8 0.14
9 0.03

> <PUBCHEM_EFFECTIVE_ROTOR_COUNT>
8

> <PUBCHEM_PHARMACOPHORE_FEATURES>
12
1 1 acceptor
1 2 acceptor
1 3 acceptor
1 4 cation
1 4 donor
1 5 cation
1 5 donor
1 6 acceptor
4 9 10 12 13 rings
6 11 14 15 17 18 19 rings
6 22 25 26 27 28 29 rings
6 6 16 20 21 23 24 rings

> <PUBCHEM_HEAVY_ATOM_COUNT>
29

> <PUBCHEM_ATOM_DEF_STEREO_COUNT>
0

> <PUBCHEM_ATOM_UDEF_STEREO_COUNT>
0

> <PUBCHEM_BOND_DEF_STEREO_COUNT>
0

> <PUBCHEM_BOND_UDEF_STEREO_COUNT>
0

> <PUBCHEM_ISOTOPIC_ATOM_COUNT>
0

> <PUBCHEM_COMPONENT_COUNT>
1

> <PUBCHEM_CACTVS_TAUTO_COUNT>
11

> <PUBCHEM_CONFORMER_ID>
00B1B6F000000001

> <PUBCHEM_MMFF94_ENERGY>
99.6725

> <PUBCHEM_FEATURE_SELFOVERLAP>
60.898

> <PUBCHEM_SHAPE_FINGERPRINT>
10815517 723 17400639325584985082
10940486 97 17334774184965538502
11370993 70 18040151837937653374
12156800 1 14828201532454663110
12553582 1 18343012268954243777
12788726 201 17915743072555902905
13383661 66 16038856292529571711
1361 2 16530867288798245580
13617811 41 17968363642204425277
14363568 33 17038130848195518064
14395042 70 14971007825421829673
14931854 50 18409446998633740189
14932702 115 17973741447326530204
15419009 47 17337608747785871742
15420108 30 17328579524080910762
15968369 26 18051667108967633912
17138139 8 18341042021178786788
19319366 153 18264209106734593387
20531524 4 18194670703793549344
20715895 44 18040986302791087950
20764821 26 17978801438692480208
20775438 99 17120263237341704487
22749437 52 18187375324163628758
23558518 356 18050856519852942747
238918 7 16975039792931079096
3493558 16 17460887442943025910
4173938 77 17542234453936214893
463206 1 18270115854654936343
469060 322 16155148012594227787
50150288 127 17629511646839361480
5895379 119 18053097320703879778

> <PUBCHEM_SHAPE_MULTIPOLES>
564.26
9.53
5.32
2.03
4.28
0.54
-0.35
1.85
-7.17
-0.81
3.25
-1.24
0.85
-1.36

> <PUBCHEM_SHAPE_SELFOVERLAP>
1241.373

> <PUBCHEM_SHAPE_VOLUME>
299.5

> <PUBCHEM_COORDINATE_TYPE>
2
5
10

$$$$
