11244819
  -OEChem-10062121563D

 43 46  0     0  0  0  0  0  0999 V2000
    2.8935    0.0237   -1.1327 O   0  0  0  0  0  0  0  0  0  0  0  0
   -6.2310   -1.5230   -0.2434 N   0  0  0  0  0  0  0  0  0  0  0  0
   -5.3164   -2.4565    0.0680 N   0  0  0  0  0  0  0  0  0  0  0  0
    1.9600    0.3932    0.9843 N   0  0  0  0  0  0  0  0  0  0  0  0
   -2.9725   -2.2912    0.4760 N   0  0  0  0  0  0  0  0  0  0  0  0
    4.2471    0.1504    0.7702 N   0  0  0  0  0  0  0  0  0  0  0  0
   -4.3684   -0.3784   -0.0731 C   0  0  0  0  0  0  0  0  0  0  0  0
   -3.5547    0.7666   -0.0968 C   0  0  0  0  0  0  0  0  0  0  0  0
   -5.7265   -0.2545   -0.3433 C   0  0  0  0  0  0  0  0  0  0  0  0
   -2.1417    0.6700    0.1802 C   0  0  0  0  0  0  0  0  0  0  0  0
   -4.1845   -1.7564    0.1707 C   0  0  0  0  0  0  0  0  0  0  0  0
   -4.1456    2.0010   -0.3940 C   0  0  0  0  0  0  0  0  0  0  0  0
   -6.3355    0.9664   -0.6417 C   0  0  0  0  0  0  0  0  0  0  0  0
   -1.6732    0.8016    1.4894 C   0  0  0  0  0  0  0  0  0  0  0  0
   -1.2367    0.4459   -0.8600 C   0  0  0  0  0  0  0  0  0  0  0  0
   -5.5124    2.0970   -0.6615 C   0  0  0  0  0  0  0  0  0  0  0  0
    0.5939    0.4856    0.7163 C   0  0  0  0  0  0  0  0  0  0  0  0
   -0.3074    0.7096    1.7571 C   0  0  0  0  0  0  0  0  0  0  0  0
    0.1292    0.3537   -0.5924 C   0  0  0  0  0  0  0  0  0  0  0  0
    3.0257    0.1726    0.0779 C   0  0  0  0  0  0  0  0  0  0  0  0
    5.5449   -0.0418    0.2406 C   0  0  0  0  0  0  0  0  0  0  0  0
    6.6345   -0.0300    1.0958 C   0  0  0  0  0  0  0  0  0  0  0  0
    5.6990   -0.2384   -1.1220 C   0  0  0  0  0  0  0  0  0  0  0  0
    7.9141   -0.2198    0.5740 C   0  0  0  0  0  0  0  0  0  0  0  0
    6.9786   -0.4283   -1.6438 C   0  0  0  0  0  0  0  0  0  0  0  0
    8.0861   -0.4190   -0.7957 C   0  0  0  0  0  0  0  0  0  0  0  0
   -3.5431    2.9069   -0.4202 H   0  0  0  0  0  0  0  0  0  0  0  0
   -7.3972    1.0391   -0.8492 H   0  0  0  0  0  0  0  0  0  0  0  0
   -2.3618    0.9760    2.3129 H   0  0  0  0  0  0  0  0  0  0  0  0
   -1.5833    0.3404   -1.8856 H   0  0  0  0  0  0  0  0  0  0  0  0
   -5.9460    3.0676   -0.8894 H   0  0  0  0  0  0  0  0  0  0  0  0
   -7.1900   -1.8190   -0.3756 H   0  0  0  0  0  0  0  0  0  0  0  0
    0.0407    0.8140    2.7816 H   0  0  0  0  0  0  0  0  0  0  0  0
    0.7610    0.1789   -1.4514 H   0  0  0  0  0  0  0  0  0  0  0  0
    2.2215    0.4992    1.9613 H   0  0  0  0  0  0  0  0  0  0  0  0
   -2.1108   -1.7662    0.5545 H   0  0  0  0  0  0  0  0  0  0  0  0
   -2.8690   -3.2870    0.6465 H   0  0  0  0  0  0  0  0  0  0  0  0
    4.2026    0.2887    1.7767 H   0  0  0  0  0  0  0  0  0  0  0  0
    6.5117    0.1242    2.1642 H   0  0  0  0  0  0  0  0  0  0  0  0
    4.8966   -0.2596   -1.8439 H   0  0  0  0  0  0  0  0  0  0  0  0
    8.7765   -0.2126    1.2341 H   0  0  0  0  0  0  0  0  0  0  0  0
    7.1144   -0.5837   -2.7102 H   0  0  0  0  0  0  0  0  0  0  0  0
    9.0824   -0.5669   -1.2020 H   0  0  0  0  0  0  0  0  0  0  0  0
  1 20  2  0  0  0  0
  2  3  1  0  0  0  0
  2  9  1  0  0  0  0
  2 32  1  0  0  0  0
  3 11  2  0  0  0  0
  4 17  1  0  0  0  0
  4 20  1  0  0  0  0
  4 35  1  0  0  0  0
  5 11  1  0  0  0  0
  5 36  1  0  0  0  0
  5 37  1  0  0  0  0
  6 20  1  0  0  0  0
  6 21  1  0  0  0  0
  6 38  1  0  0  0  0
  7  8  2  0  0  0  0
  7  9  1  0  0  0  0
  7 11  1  0  0  0  0
  8 10  1  0  0  0  0
  8 12  1  0  0  0  0
  9 13  2  0  0  0  0
 10 14  2  0  0  0  0
 10 15  1  0  0  0  0
 12 16  2  0  0  0  0
 12 27  1  0  0  0  0
 13 16  1  0  0  0  0
 13 28  1  0  0  0  0
 14 18  1  0  0  0  0
 14 29  1  0  0  0  0
 15 19  2  0  0  0  0
 15 30  1  0  0  0  0
 16 31  1  0  0  0  0
 17 18  2  0  0  0  0
 17 19  1  0  0  0  0
 18 33  1  0  0  0  0
 19 34  1  0  0  0  0
 21 22  2  0  0  0  0
 21 23  1  0  0  0  0
 22 24  1  0  0  0  0
 22 39  1  0  0  0  0
 23 25  2  0  0  0  0
 23 40  1  0  0  0  0
 24 26  2  0  0  0  0
 24 41  1  0  0  0  0
 25 26  1  0  0  0  0
 25 42  1  0  0  0  0
 26 43  1  0  0  0  0
M  END
> <PUBCHEM_COMPOUND_CID>
11244819

> <PUBCHEM_CONFORMER_RMSD>
0.8

> <PUBCHEM_CONFORMER_DIVERSEORDER>
1
5
2
6
4
7
3
8

> <PUBCHEM_MMFF94_PARTIAL_CHARGES>
40
1 -0.57
11 0.37
12 -0.15
13 -0.15
14 -0.15
15 -0.15
16 -0.15
17 0.12
18 -0.15
19 -0.15
2 0.3
20 0.69
21 0.12
22 -0.15
23 -0.15
24 -0.15
25 -0.15
26 -0.15
27 0.15
28 0.15
29 0.15
3 -0.71
30 0.15
31 0.15
32 0.27
33 0.15
34 0.15
35 0.37
36 0.4
37 0.4
38 0.37
39 0.15
4 -0.55
40 0.15
41 0.15
42 0.15
43 0.15
5 -0.88
6 -0.55
9 -0.15

> <PUBCHEM_EFFECTIVE_ROTOR_COUNT>
5

> <PUBCHEM_PHARMACOPHORE_FEATURES>
10
1 1 acceptor
1 2 donor
1 4 donor
1 5 donor
1 6 donor
3 3 5 11 cation
5 2 3 7 9 11 rings
6 10 14 15 17 18 19 rings
6 21 22 23 24 25 26 rings
6 7 8 9 12 13 16 rings

> <PUBCHEM_HEAVY_ATOM_COUNT>
26

> <PUBCHEM_ATOM_DEF_STEREO_COUNT>
0

> <PUBCHEM_ATOM_UDEF_STEREO_COUNT>
0

> <PUBCHEM_BOND_DEF_STEREO_COUNT>
0

> <PUBCHEM_BOND_UDEF_STEREO_COUNT>
0

> <PUBCHEM_ISOTOPIC_ATOM_COUNT>
0

> <PUBCHEM_COMPONENT_COUNT>
1

> <PUBCHEM_CACTVS_TAUTO_COUNT>
21

> <PUBCHEM_CONFORMER_ID>
00AB951300000001

> <PUBCHEM_MMFF94_ENERGY>
81.3989

> <PUBCHEM_FEATURE_SELFOVERLAP>
50.887

> <PUBCHEM_SHAPE_FINGERPRINT>
10 15 17846490462024478082
10165383 225 18339642227968123665
10299344 5 17821728325820991826
11315181 36 18201722859852634641
11524674 6 17704068512379973951
11719270 70 18201436948813387534
12091667 2 17821731619902873401
12166972 35 18335986449846282580
12236239 1 17458060460945152693
12741549 16 17203328940850652785
13288520 33 18410572903510802033
13668630 136 18272937111835274094
13685833 64 16917350329693548120
13782708 43 18201715214552417071
13885169 127 18411135810177109136
14068700 675 18113056039177095348
14856354 85 18187367649247221823
15119646 104 17458617879461011770
15183329 4 16588020225875108770
15352257 5 18343586222709420526
15419008 47 18059848450858130280
15419008 91 18199729437035704320
15461852 350 18334581244363481084
15510794 2 18273495659837860486
15716309 27 14979958060256095384
1577012 14 17240482486002289608
15849732 13 18201998829077073252
16992828 155 16879623761851841269
18643901 69 18412544345419341807
18681886 176 18336259132528553224
19489759 90 18410011031356918657
20281389 69 12324243867263106404
21150785 3 17022904570671880570
21267235 1 16630814296892222648
21623969 137 17060626598744882846
220451 1 18113615655670716576
22288116 15 17458633358011560323
23081809 10 17385439904369686152
23198884 109 17530966895039275267
23522609 53 17532110318856610044
23559900 14 18342449366024183089
23576562 1 17678475254025232750
249057 3 18335137601067882165
2838139 119 16153428346248578292
3004659 81 18408321107818127880
335352 9 18335130987477402077
397830 11 18058719355652945776
4073 2 18040437737147410362
4325135 7 17603865594319563766
4339292 15 18200302334249031479
445580 160 18201722876742665295
504843 32 15141256459032066600
5104073 3 16486145989737403986
5265222 85 18338518654603843630
54039377 194 17604438513504450955
57527295 17 17345177915223604653
58902169 19 17531250569551178814
5969126 39 16415196737257949249
59755656 215 18272089370905942862
59755656 520 15502097457632153849
636775 8 17988373645538085446
999808 66 17560806545242479167

> <PUBCHEM_SHAPE_MULTIPOLES>
504.29
23.14
1.66
1.27
33.88
0.67
-0.12
3.68
5.18
-4.5
0.02
1.4
-0.18
0.97

> <PUBCHEM_SHAPE_SELFOVERLAP>
1125.749

> <PUBCHEM_SHAPE_VOLUME>
268.3

> <PUBCHEM_COORDINATE_TYPE>
2
5
10

$$$$
