21362749
  -OEChem-10062121583D

 39 42  0     0  0  0  0  0  0999 V2000
    2.1720   -4.5893   -0.0715 Cl  0  0  0  0  0  0  0  0  0  0  0  0
   -2.0720   -2.1436   -0.1786 O   0  0  0  0  0  0  0  0  0  0  0  0
   -6.5837   -0.0261    0.7175 O   0  0  0  0  0  0  0  0  0  0  0  0
    1.9778    1.2481    0.0280 N   0  0  0  0  0  0  0  0  0  0  0  0
   -0.6190   -0.2969   -0.0934 N   0  0  0  0  0  0  0  0  0  0  0  0
    5.2806    2.8839    0.1744 N   0  0  0  0  0  0  0  0  0  0  0  0
    1.8155   -0.1172   -0.0023 C   0  0  0  0  0  0  0  0  0  0  0  0
    3.0893   -0.6860    0.0338 C   0  0  0  0  0  0  0  0  0  0  0  0
    4.0346    0.3869    0.0874 C   0  0  0  0  0  0  0  0  0  0  0  0
    3.3101    1.5783    0.0818 C   0  0  0  0  0  0  0  0  0  0  0  0
    0.6457   -0.8837   -0.0584 C   0  0  0  0  0  0  0  0  0  0  0  0
    3.2010   -2.0922    0.0123 C   0  0  0  0  0  0  0  0  0  0  0  0
    0.7825   -2.2743   -0.0783 C   0  0  0  0  0  0  0  0  0  0  0  0
    5.4355    0.4571    0.1396 C   0  0  0  0  0  0  0  0  0  0  0  0
    2.0402   -2.8717   -0.0437 C   0  0  0  0  0  0  0  0  0  0  0  0
    3.9300    2.8204    0.1254 C   0  0  0  0  0  0  0  0  0  0  0  0
    5.9868    1.7308    0.1809 C   0  0  0  0  0  0  0  0  0  0  0  0
   -1.8654   -0.9351   -0.1496 C   0  0  0  0  0  0  0  0  0  0  0  0
   -3.0433   -0.0300   -0.2046 C   0  0  0  0  0  0  0  0  0  0  0  0
   -4.2758   -0.4582    0.2884 C   0  0  0  0  0  0  0  0  0  0  0  0
   -2.9157    1.2478   -0.7495 C   0  0  0  0  0  0  0  0  0  0  0  0
   -5.3809    0.3914    0.2366 C   0  0  0  0  0  0  0  0  0  0  0  0
   -4.0208    2.0972   -0.8012 C   0  0  0  0  0  0  0  0  0  0  0  0
   -5.2535    1.6691   -0.3082 C   0  0  0  0  0  0  0  0  0  0  0  0
   -7.6715    0.8934    0.6330 C   0  0  0  0  0  0  0  0  0  0  0  0
    1.2220    1.9186    0.0120 H   0  0  0  0  0  0  0  0  0  0  0  0
    4.1824   -2.5588    0.0391 H   0  0  0  0  0  0  0  0  0  0  0  0
   -0.0644   -2.9463   -0.1213 H   0  0  0  0  0  0  0  0  0  0  0  0
    6.0604   -0.4285    0.1469 H   0  0  0  0  0  0  0  0  0  0  0  0
   -0.6068    0.7167   -0.0337 H   0  0  0  0  0  0  0  0  0  0  0  0
    3.3894    3.7577    0.1217 H   0  0  0  0  0  0  0  0  0  0  0  0
    7.0645    1.8581    0.2217 H   0  0  0  0  0  0  0  0  0  0  0  0
   -4.3887   -1.4497    0.7204 H   0  0  0  0  0  0  0  0  0  0  0  0
   -1.9864    1.6102   -1.1785 H   0  0  0  0  0  0  0  0  0  0  0  0
   -3.9231    3.0891   -1.2334 H   0  0  0  0  0  0  0  0  0  0  0  0
   -6.0702    2.3790   -0.3815 H   0  0  0  0  0  0  0  0  0  0  0  0
   -8.5484    0.3967    1.0610 H   0  0  0  0  0  0  0  0  0  0  0  0
   -7.9160    1.1330   -0.4074 H   0  0  0  0  0  0  0  0  0  0  0  0
   -7.4875    1.7907    1.2335 H   0  0  0  0  0  0  0  0  0  0  0  0
  1 15  1  0  0  0  0
  2 18  2  0  0  0  0
  3 22  1  0  0  0  0
  3 25  1  0  0  0  0
  4  7  1  0  0  0  0
  4 10  1  0  0  0  0
  4 26  1  0  0  0  0
  5 11  1  0  0  0  0
  5 18  1  0  0  0  0
  5 30  1  0  0  0  0
  6 16  2  0  0  0  0
  6 17  1  0  0  0  0
  7  8  2  0  0  0  0
  7 11  1  0  0  0  0
  8  9  1  0  0  0  0
  8 12  1  0  0  0  0
  9 10  2  0  0  0  0
  9 14  1  0  0  0  0
 10 16  1  0  0  0  0
 11 13  2  0  0  0  0
 12 15  2  0  0  0  0
 12 27  1  0  0  0  0
 13 15  1  0  0  0  0
 13 28  1  0  0  0  0
 14 17  2  0  0  0  0
 14 29  1  0  0  0  0
 16 31  1  0  0  0  0
 17 32  1  0  0  0  0
 18 19  1  0  0  0  0
 19 20  2  0  0  0  0
 19 21  1  0  0  0  0
 20 22  1  0  0  0  0
 20 33  1  0  0  0  0
 21 23  2  0  0  0  0
 21 34  1  0  0  0  0
 22 24  2  0  0  0  0
 23 24  1  0  0  0  0
 23 35  1  0  0  0  0
 24 36  1  0  0  0  0
 25 37  1  0  0  0  0
 25 38  1  0  0  0  0
 25 39  1  0  0  0  0
M  END
> <PUBCHEM_COMPOUND_CID>
21362749

> <PUBCHEM_CONFORMER_RMSD>
0.8

> <PUBCHEM_CONFORMER_DIVERSEORDER>
2
12
10
4
15
13
8
9
5
16
6
7
14
1
11
3

> <PUBCHEM_MMFF94_PARTIAL_CHARGES>
34
1 -0.18
10 -0.15
11 0.12
12 -0.15
13 -0.15
14 -0.15
15 0.18
16 0.16
17 0.16
18 0.54
19 0.09
2 -0.57
20 -0.15
21 -0.15
22 0.08
23 -0.15
24 -0.15
25 0.28
26 0.27
27 0.15
28 0.15
29 0.15
3 -0.36
30 0.37
31 0.15
32 0.15
33 0.15
34 0.15
35 0.15
36 0.15
4 0.03
5 -0.55
6 -0.62
7 -0.15

> <PUBCHEM_EFFECTIVE_ROTOR_COUNT>
4

> <PUBCHEM_PHARMACOPHORE_FEATURES>
10
1 2 acceptor
1 3 acceptor
1 4 cation
1 4 donor
1 5 donor
1 6 acceptor
5 4 7 8 9 10 rings
6 19 20 21 22 23 24 rings
6 6 9 10 14 16 17 rings
6 7 8 11 12 13 15 rings

> <PUBCHEM_HEAVY_ATOM_COUNT>
25

> <PUBCHEM_ATOM_DEF_STEREO_COUNT>
0

> <PUBCHEM_ATOM_UDEF_STEREO_COUNT>
0

> <PUBCHEM_BOND_DEF_STEREO_COUNT>
0

> <PUBCHEM_BOND_UDEF_STEREO_COUNT>
0

> <PUBCHEM_ISOTOPIC_ATOM_COUNT>
0

> <PUBCHEM_COMPONENT_COUNT>
1

> <PUBCHEM_CACTVS_TAUTO_COUNT>
4

> <PUBCHEM_CONFORMER_ID>
0145F83D00000002

> <PUBCHEM_MMFF94_ENERGY>
78.1186

> <PUBCHEM_FEATURE_SELFOVERLAP>
50.933

> <PUBCHEM_SHAPE_FINGERPRINT>
10 15 18113619018609283016
10411042 1 17834959672963003086
10595046 47 18343298155226337959
10835480 77 18263074441063828357
11796584 16 12823288000969420669
12107183 9 17621887483299489649
12293681 160 17774447195649466024
12403259 415 18187927214818849733
12730499 353 18409173194648194882
12769317 202 18342165670570414144
12788726 201 17203334356050110257
12925494 130 18120649137846067045
13009979 54 17342659955332012410
13402501 40 18335417984637817013
13533116 47 18200592497659472099
13631057 29 18057315309607144687
13785724 45 17551239462842154071
138480 1 18050565136951240790
13955234 65 18337390431299444994
14341114 176 18336833000678958013
14461889 52 18260271888781997979
14790565 3 18265334091829498876
15475509 35 16443896160233981658
16760501 71 18409168822651159765
16992752 21 17400364447868704922
17844677 252 18268154150186310321
17980427 23 17314513827755325974
18608769 82 18338799035070580907
19427546 62 18409732897654118482
19611394 137 17751373982695078481
1979834 28 18187652405019712685
20157964 124 18411700959333010667
21033648 29 18197770206156887824
21049683 271 18117289056160119366
21859007 373 17097476619512676837
22149856 69 18263386754110770937
23559900 14 18194678172726235419
23845131 108 18334858358883873978
239999 70 18200599094682052086
244849 19 17896624832680050659
245318 6 17533793855473148340
24771750 20 18337969930431816862
3178227 256 18408319961510395858
335352 9 18411419519327922982
3411729 13 18334856108963952258
34797466 226 18131638850832364055
3545911 37 18409731759339715189
38695281 34 18343863329625217998
4073 2 18261399962026850515
474 4 18411982468469071282
5104073 3 18188213075083841825
5385378 56 18411982438457093314
59682541 35 18187091689525302313
59755656 215 18410015403802229934
633830 44 18271238422031122054
6697151 62 17612846237612906087
77188 2 17834675994583407302
7808743 9 18338229491677546426
8272917 22 18341332215097649390
9981440 41 18336542836757048562

> <PUBCHEM_SHAPE_MULTIPOLES>
489.68
16.2
3.85
0.7
20.51
3.2
-0.02
-11.42
2.66
-5.84
-0.19
0.44
-0.09
0.65

> <PUBCHEM_SHAPE_SELFOVERLAP>
1087.012

> <PUBCHEM_SHAPE_VOLUME>
263.4

> <PUBCHEM_COORDINATE_TYPE>
2
5
10

$$$$
