16125233
  -OEChem-10062121593D

 46 49  0     0  0  0  0  0  0999 V2000
    8.6693   -0.5685    1.2961 F   0  0  0  0  0  0  0  0  0  0  0  0
    2.2271    0.0039    1.1414 O   0  0  0  0  0  0  0  0  0  0  0  0
   -6.8731   -1.5771    0.1444 N   0  0  0  0  0  0  0  0  0  0  0  0
   -5.9478   -2.4794   -0.2230 N   0  0  0  0  0  0  0  0  0  0  0  0
    1.2928    0.4961   -0.9499 N   0  0  0  0  0  0  0  0  0  0  0  0
   -3.6055   -2.2622   -0.6185 N   0  0  0  0  0  0  0  0  0  0  0  0
    3.5819    0.2621   -0.7472 N   0  0  0  0  0  0  0  0  0  0  0  0
   -5.0233   -0.4033    0.0470 C   0  0  0  0  0  0  0  0  0  0  0  0
   -4.2226    0.7470    0.1423 C   0  0  0  0  0  0  0  0  0  0  0  0
   -6.3830   -0.3115    0.3227 C   0  0  0  0  0  0  0  0  0  0  0  0
   -2.8082    0.6833   -0.1375 C   0  0  0  0  0  0  0  0  0  0  0  0
   -4.8238   -1.7616   -0.2811 C   0  0  0  0  0  0  0  0  0  0  0  0
   -4.8273    1.9541    0.5143 C   0  0  0  0  0  0  0  0  0  0  0  0
   -7.0057    0.8818    0.6950 C   0  0  0  0  0  0  0  0  0  0  0  0
   -1.9058    0.4040    0.8890 C   0  0  0  0  0  0  0  0  0  0  0  0
   -2.3435    0.9000   -1.4347 C   0  0  0  0  0  0  0  0  0  0  0  0
   -6.1953    2.0182    0.7855 C   0  0  0  0  0  0  0  0  0  0  0  0
   -0.0744    0.5585   -0.6791 C   0  0  0  0  0  0  0  0  0  0  0  0
   -0.5390    0.3416    0.6182 C   0  0  0  0  0  0  0  0  0  0  0  0
   -0.9766    0.8376   -1.7055 C   0  0  0  0  0  0  0  0  0  0  0  0
    4.8809    0.0496   -0.2282 C   0  0  0  0  0  0  0  0  0  0  0  0
    2.3594    0.2294   -0.0573 C   0  0  0  0  0  0  0  0  0  0  0  0
    7.2703   -0.0837   -0.5598 C   0  0  0  0  0  0  0  0  0  0  0  0
    5.9895    0.1245   -1.0715 C   0  0  0  0  0  0  0  0  0  0  0  0
    5.0531   -0.2337    1.1268 C   0  0  0  0  0  0  0  0  0  0  0  0
    7.4425   -0.3668    0.7951 C   0  0  0  0  0  0  0  0  0  0  0  0
    6.3338   -0.4419    1.6384 C   0  0  0  0  0  0  0  0  0  0  0  0
    8.4543   -0.0019   -1.4629 C   0  0  0  0  0  0  0  0  0  0  0  0
   -4.2349    2.8633    0.5972 H   0  0  0  0  0  0  0  0  0  0  0  0
   -8.0683    0.9298    0.9053 H   0  0  0  0  0  0  0  0  0  0  0  0
   -2.2528    0.2318    1.9053 H   0  0  0  0  0  0  0  0  0  0  0  0
   -3.0334    1.1180   -2.2466 H   0  0  0  0  0  0  0  0  0  0  0  0
   -6.6399    2.9680    1.0722 H   0  0  0  0  0  0  0  0  0  0  0  0
   -7.8287   -1.8916    0.2572 H   0  0  0  0  0  0  0  0  0  0  0  0
    0.0936    0.1201    1.4658 H   0  0  0  0  0  0  0  0  0  0  0  0
   -0.6286    1.0083   -2.7211 H   0  0  0  0  0  0  0  0  0  0  0  0
    1.5545    0.6651   -1.9181 H   0  0  0  0  0  0  0  0  0  0  0  0
   -2.7499   -1.7234   -0.6637 H   0  0  0  0  0  0  0  0  0  0  0  0
   -3.4904   -3.2443   -0.8502 H   0  0  0  0  0  0  0  0  0  0  0  0
    5.8538    0.3472   -2.1274 H   0  0  0  0  0  0  0  0  0  0  0  0
    3.5384    0.4633   -1.7430 H   0  0  0  0  0  0  0  0  0  0  0  0
    4.2477   -0.3090    1.8431 H   0  0  0  0  0  0  0  0  0  0  0  0
    6.4697   -0.6626    2.6931 H   0  0  0  0  0  0  0  0  0  0  0  0
    9.0200    0.9130   -1.2598 H   0  0  0  0  0  0  0  0  0  0  0  0
    9.1101   -0.8666   -1.3158 H   0  0  0  0  0  0  0  0  0  0  0  0
    8.1611    0.0062   -2.5181 H   0  0  0  0  0  0  0  0  0  0  0  0
  1 26  1  0  0  0  0
  2 22  2  0  0  0  0
  3  4  1  0  0  0  0
  3 10  1  0  0  0  0
  3 34  1  0  0  0  0
  4 12  2  0  0  0  0
  5 18  1  0  0  0  0
  5 22  1  0  0  0  0
  5 37  1  0  0  0  0
  6 12  1  0  0  0  0
  6 38  1  0  0  0  0
  6 39  1  0  0  0  0
  7 21  1  0  0  0  0
  7 22  1  0  0  0  0
  7 41  1  0  0  0  0
  8  9  2  0  0  0  0
  8 10  1  0  0  0  0
  8 12  1  0  0  0  0
  9 11  1  0  0  0  0
  9 13  1  0  0  0  0
 10 14  2  0  0  0  0
 11 15  2  0  0  0  0
 11 16  1  0  0  0  0
 13 17  2  0  0  0  0
 13 29  1  0  0  0  0
 14 17  1  0  0  0  0
 14 30  1  0  0  0  0
 15 19  1  0  0  0  0
 15 31  1  0  0  0  0
 16 20  2  0  0  0  0
 16 32  1  0  0  0  0
 17 33  1  0  0  0  0
 18 19  2  0  0  0  0
 18 20  1  0  0  0  0
 19 35  1  0  0  0  0
 20 36  1  0  0  0  0
 21 24  2  0  0  0  0
 21 25  1  0  0  0  0
 23 24  1  0  0  0  0
 23 26  2  0  0  0  0
 23 28  1  0  0  0  0
 24 40  1  0  0  0  0
 25 27  2  0  0  0  0
 25 42  1  0  0  0  0
 26 27  1  0  0  0  0
 27 43  1  0  0  0  0
 28 44  1  0  0  0  0
 28 45  1  0  0  0  0
 28 46  1  0  0  0  0
M  END
> <PUBCHEM_COMPOUND_CID>
16125233

> <PUBCHEM_CONFORMER_RMSD>
0.8

> <PUBCHEM_CONFORMER_DIVERSEORDER>
1
14
30
8
13
28
4
18
17
12
16
27
7
15
2
21
20
29
3
23
19
9
26
6
25
11
5
24
10
22

> <PUBCHEM_MMFF94_PARTIAL_CHARGES>
40
1 -0.19
10 -0.15
12 0.37
13 -0.15
14 -0.15
15 -0.15
16 -0.15
17 -0.15
18 0.12
19 -0.15
2 -0.57
20 -0.15
21 0.12
22 0.69
23 -0.14
24 -0.15
25 -0.15
26 0.19
27 -0.15
28 0.14
29 0.15
3 0.3
30 0.15
31 0.15
32 0.15
33 0.15
34 0.27
35 0.15
36 0.15
37 0.37
38 0.4
39 0.4
4 -0.71
40 0.15
41 0.37
42 0.15
43 0.15
5 -0.55
6 -0.88
7 -0.55

> <PUBCHEM_EFFECTIVE_ROTOR_COUNT>
5

> <PUBCHEM_PHARMACOPHORE_FEATURES>
10
1 2 acceptor
1 3 donor
1 5 donor
1 6 donor
1 7 donor
3 4 6 12 cation
5 3 4 8 10 12 rings
6 11 15 16 18 19 20 rings
6 21 23 24 25 26 27 rings
6 8 9 10 13 14 17 rings

> <PUBCHEM_HEAVY_ATOM_COUNT>
28

> <PUBCHEM_ATOM_DEF_STEREO_COUNT>
0

> <PUBCHEM_ATOM_UDEF_STEREO_COUNT>
0

> <PUBCHEM_BOND_DEF_STEREO_COUNT>
0

> <PUBCHEM_BOND_UDEF_STEREO_COUNT>
0

> <PUBCHEM_ISOTOPIC_ATOM_COUNT>
0

> <PUBCHEM_COMPONENT_COUNT>
1

> <PUBCHEM_CACTVS_TAUTO_COUNT>
21

> <PUBCHEM_CONFORMER_ID>
00F60D3100000001

> <PUBCHEM_MMFF94_ENERGY>
83.6263

> <PUBCHEM_FEATURE_SELFOVERLAP>
50.887

> <PUBCHEM_SHAPE_FINGERPRINT>
10 15 17274818069569045576
10076449 9 12612757913494532597
10299344 5 18186522103182509944
10319926 262 18201994456567990961
11135926 11 18334569114585306559
11315181 36 18335423478639057597
11524674 6 17632294601111301415
12091667 2 17022904536692158189
12166972 35 18113901580761800588
12236239 1 18113902684725962373
12516196 113 18113898260883566124
13885169 127 18272655623145687777
14068700 675 18334015003490139404
14251764 18 17894633651956061176
14344974 204 17630321063628753527
14840074 17 17240759588386002947
14849402 71 18263085569060737884
14856354 85 18411421726450535191
15021287 119 17821736035382637013
15119646 104 17749387036308593082
15183329 4 17022617589742262538
15301273 46 17703793600677182660
15348495 7 17631725092520661850
15352257 5 18412545388632580254
15419008 47 17560797706590740408
15419008 91 17988628684775383248
15510794 2 17918277537658368574
15716309 27 17822010899913782396
1577012 14 17967533454599618760
15849732 13 17489869328216279748
17093844 174 17561079203305224937
17780758 139 18411135832200467933
20105231 36 17203615895783516246
21150785 3 14996281435783730574
21267235 1 16009036051346777372
21315759 40 18186522086134756464
21792961 116 16773804641475452220
220451 1 18260827081850025458
22224240 67 18261109673776761058
23035841 295 18334294275073974951
23081809 10 17967820456951599012
23389318 12 17313104194077573502
23516275 137 18192450583638411354
23522609 53 17824570550241619724
23559900 14 18130787863371707529
397830 11 17631159956587051610
4325135 7 18186521003375684614
4339292 15 17845927533572709183
44389302 135 18188479174600632778
4938544 92 18338233757324623437
5219985 9 17894351077368107332
5265222 85 18129665334333729830
54039377 194 17677340545405015515
58260988 114 16806469049352280435
5969126 39 16660637445240024813
6691757 9 18341900680664356515
68570916 9 18269833280430400476
9953998 17 18202283598404183577

> <PUBCHEM_SHAPE_MULTIPOLES>
538.18
26.69
1.6
1.35
34.91
0.66
0.07
4.25
-3.89
-4.67
0.06
1.93
-0.15
-1.39

> <PUBCHEM_SHAPE_SELFOVERLAP>
1198.754

> <PUBCHEM_SHAPE_VOLUME>
287.9

> <PUBCHEM_COORDINATE_TYPE>
2
5
10

$$$$
