49830746
  -OEChem-10052115193D

 52 55  0     1  0  0  0  0  0999 V2000
   -3.2963    3.1377    0.2150 O   0  0  0  0  0  0  0  0  0  0  0  0
   -4.9741    1.8071    1.8862 N   0  0  0  0  0  0  0  0  0  0  0  0
   -1.6408    1.5341    0.6558 N   0  0  0  0  0  0  0  0  0  0  0  0
    0.5969    4.1030   -0.7870 N   0  0  0  0  0  0  0  0  0  0  0  0
    7.2846   -1.6261    0.3252 N   0  0  0  0  0  0  0  0  0  0  0  0
   -4.5563    0.1634    0.0785 C   0  0  0  0  0  0  0  0  0  0  0  0
   -3.5481   -0.6690   -0.6513 C   0  0  0  0  0  0  0  0  0  0  0  0
   -3.9416    1.0302    1.1964 C   0  0  1  0  0  0  0  0  0  0  0  0
   -3.0356   -1.8602   -0.1123 C   0  0  0  0  0  0  0  0  0  0  0  0
   -2.0834   -2.6011   -0.8522 C   0  0  0  0  0  0  0  0  0  0  0  0
   -3.1279   -0.2147   -1.9017 C   0  0  0  0  0  0  0  0  0  0  0  0
   -2.9399    2.0332    0.6177 C   0  0  0  0  0  0  0  0  0  0  0  0
   -3.4472   -2.3326    1.1446 C   0  0  0  0  0  0  0  0  0  0  0  0
   -1.6718   -2.1289   -2.1091 C   0  0  0  0  0  0  0  0  0  0  0  0
   -2.1915   -0.9432   -2.6292 C   0  0  0  0  0  0  0  0  0  0  0  0
   -1.5707   -3.7925   -0.3132 C   0  0  0  0  0  0  0  0  0  0  0  0
   -2.9274   -3.5182    1.6647 C   0  0  0  0  0  0  0  0  0  0  0  0
   -1.9910   -4.2468    0.9371 C   0  0  0  0  0  0  0  0  0  0  0  0
   -0.4576    2.1706    0.2124 C   0  0  0  0  0  0  0  0  0  0  0  0
    0.7779    1.5410    0.3163 C   0  0  0  0  0  0  0  0  0  0  0  0
    1.9230    2.1910   -0.1308 C   0  0  0  0  0  0  0  0  0  0  0  0
   -0.4940    3.4400   -0.3420 C   0  0  0  0  0  0  0  0  0  0  0  0
    1.7800    3.4595   -0.6696 C   0  0  0  0  0  0  0  0  0  0  0  0
    3.2276    1.5614   -0.0371 C   0  0  0  0  0  0  0  0  0  0  0  0
    3.4472    0.2308    0.1009 C   0  0  0  0  0  0  0  0  0  0  0  0
    4.7718   -0.4102    0.1786 C   0  0  0  0  0  0  0  0  0  0  0  0
    5.8907    0.3390    0.5257 C   0  0  0  0  0  0  0  0  0  0  0  0
    4.9079   -1.7666   -0.0952 C   0  0  0  0  0  0  0  0  0  0  0  0
    7.1133   -0.3103    0.5843 C   0  0  0  0  0  0  0  0  0  0  0  0
    6.1745   -2.3219   -0.0087 C   0  0  0  0  0  0  0  0  0  0  0  0
   -5.0711    0.8198   -0.6387 H   0  0  0  0  0  0  0  0  0  0  0  0
   -5.3567   -0.4748    0.4745 H   0  0  0  0  0  0  0  0  0  0  0  0
   -3.4405    0.4077    1.9454 H   0  0  0  0  0  0  0  0  0  0  0  0
   -3.5174    0.7081   -2.3239 H   0  0  0  0  0  0  0  0  0  0  0  0
   -4.1789   -1.8107    1.7539 H   0  0  0  0  0  0  0  0  0  0  0  0
   -0.9403   -2.6817   -2.6950 H   0  0  0  0  0  0  0  0  0  0  0  0
   -1.8635   -0.5882   -3.6018 H   0  0  0  0  0  0  0  0  0  0  0  0
   -5.6681    1.1741    2.2820 H   0  0  0  0  0  0  0  0  0  0  0  0
   -4.5591    2.3023    2.6748 H   0  0  0  0  0  0  0  0  0  0  0  0
   -0.8378   -4.3781   -0.8643 H   0  0  0  0  0  0  0  0  0  0  0  0
   -1.5038    0.6014    1.0389 H   0  0  0  0  0  0  0  0  0  0  0  0
   -3.2548   -3.8737    2.6374 H   0  0  0  0  0  0  0  0  0  0  0  0
   -1.5870   -5.1699    1.3425 H   0  0  0  0  0  0  0  0  0  0  0  0
    0.8173    0.5527    0.7663 H   0  0  0  0  0  0  0  0  0  0  0  0
   -1.3947    4.0215   -0.4751 H   0  0  0  0  0  0  0  0  0  0  0  0
    2.6328    4.0222   -1.0386 H   0  0  0  0  0  0  0  0  0  0  0  0
    4.0653    2.2488   -0.1191 H   0  0  0  0  0  0  0  0  0  0  0  0
    2.6145   -0.4671    0.1311 H   0  0  0  0  0  0  0  0  0  0  0  0
    5.8515    1.3944    0.7698 H   0  0  0  0  0  0  0  0  0  0  0  0
    4.0602   -2.3856   -0.3706 H   0  0  0  0  0  0  0  0  0  0  0  0
    8.0159    0.2277    0.8548 H   0  0  0  0  0  0  0  0  0  0  0  0
    6.3343   -3.3755   -0.2128 H   0  0  0  0  0  0  0  0  0  0  0  0
  1 12  2  0  0  0  0
  2  8  1  0  0  0  0
  2 38  1  0  0  0  0
  2 39  1  0  0  0  0
  3 12  1  0  0  0  0
  3 19  1  0  0  0  0
  3 41  1  0  0  0  0
  4 22  1  0  0  0  0
  4 23  2  0  0  0  0
  5 29  2  0  0  0  0
  5 30  1  0  0  0  0
  6  7  1  0  0  0  0
  6  8  1  0  0  0  0
  6 31  1  0  0  0  0
  6 32  1  0  0  0  0
  7  9  1  0  0  0  0
  7 11  2  0  0  0  0
  8 12  1  0  0  0  0
  8 33  1  0  0  0  0
  9 10  1  0  0  0  0
  9 13  2  0  0  0  0
 10 14  1  0  0  0  0
 10 16  2  0  0  0  0
 11 15  1  0  0  0  0
 11 34  1  0  0  0  0
 13 17  1  0  0  0  0
 13 35  1  0  0  0  0
 14 15  2  0  0  0  0
 14 36  1  0  0  0  0
 15 37  1  0  0  0  0
 16 18  1  0  0  0  0
 16 40  1  0  0  0  0
 17 18  2  0  0  0  0
 17 42  1  0  0  0  0
 18 43  1  0  0  0  0
 19 20  1  0  0  0  0
 19 22  2  0  0  0  0
 20 21  2  0  0  0  0
 20 44  1  0  0  0  0
 21 23  1  0  0  0  0
 21 24  1  0  0  0  0
 22 45  1  0  0  0  0
 23 46  1  0  0  0  0
 24 25  2  3  0  0  0
 24 47  1  0  0  0  0
 25 26  1  0  0  0  0
 25 48  1  0  0  0  0
 26 27  2  0  0  0  0
 26 28  1  0  0  0  0
 27 29  1  0  0  0  0
 27 49  1  0  0  0  0
 28 30  2  0  0  0  0
 28 50  1  0  0  0  0
 29 51  1  0  0  0  0
 30 52  1  0  0  0  0
M  END
> <PUBCHEM_COMPOUND_CID>
49830746

> <PUBCHEM_CONFORMER_RMSD>
0.8

> <PUBCHEM_CONFORMER_DIVERSEORDER>
1
43
147
344
373
36
62
261
212
345
449
232
263
276
432
396
272
224
93
82
97
101
250
200
95
90
332
339
168
40
365
443
247
403
435
142
397
442
79
346
20
337
220
194
347
132
312
322
75
155
172
316
300
238
178
78
472
124
127
135
422
336
254
343
366
146
330
401
325
131
118
218
237
328
268
83
358
140
236
239
80
215
479
49
375
204
58
274
7
361
390
448
13
186
380
157
16
149
342
196
348
464
169
52
431
461
278
376
122
217
225
359
307
387
12
417
17
18
271
119
19
113
451
176
314
248
382
67
206
414
471
379
453
260
219
421
255
415
133
455
369
329
480
76
233
444
466
320
38
174
399
48
121
269
281
368
440
327
405
430
434
223
192
39
283
203
187
228
126
394
256
340
64
285
246
383
71
279
22
350
148
251
50
420
321
32
199
334
362
158
452
289
57
291
11
483
427
459
183
66
21
175
411
280
305
65
298
184
374
324
423
201
91
288
273
240
270
429
24
34
381
463
154
72
426
171
406
303
162
441
211
152
179
229
210
5
230
355
470
267
377
92
6
438
193
341
23
413
386
28
412
61
465
458
163
125
136
134
445
393
351
418
27
108
450
477
326
177
2
55
145
360
457
389
153
385
51
363
409
70
313
481
45
395
85
197
77
338
302
402
234
170
253
319
478
29
214
294
181
110
173
33
41
81
182
400
257
84
252
318
116
96
56
296
117
166
454
160
47
138
353
297
46
398
221
384
372
425
308
482
392
404
310
227
88
3
191
208
26
286
198
437
235
143
42
216
299
306
290
8
99
264
410
315
94
130
460
14
468
424
86
109
282
364
202
277
241
112
447
129
467
284
354
323
293
433
370
164
295
35
265
349
159
37
100
388
407
205
115
242
144
436
180
243
10
419
333
188
63
103
69
209
89
245
474
156
462
123
311
128
371
476
356
87
226
4
137
30
262
107
335
357
475
141
102
190
416
258
244
165
25
408
111
195
105
378
185
287
59
304
456
104
213
446
266
292
352
139
54
207
120
189
74
309
114
73
98
167
222
367
391
231
161
53
317
469
473
44
331
259
275
439
9
151
249
31
106
301
150
428
68
60
15

> <PUBCHEM_MMFF94_PARTIAL_CHARGES>
47
1 -0.57
11 -0.15
12 0.57
13 -0.15
14 -0.15
15 -0.15
16 -0.15
17 -0.15
18 -0.15
19 0.12
2 -0.99
20 -0.15
21 0.03
22 0.16
23 0.16
24 -0.18
25 -0.18
26 0.03
27 -0.15
28 -0.15
29 0.16
3 -0.55
30 0.16
34 0.15
35 0.15
36 0.15
37 0.15
38 0.36
39 0.36
4 -0.62
40 0.15
41 0.37
42 0.15
43 0.15
44 0.15
45 0.15
46 0.15
47 0.15
48 0.15
49 0.15
5 -0.62
50 0.15
51 0.15
52 0.15
6 0.14
7 -0.14
8 0.33

> <PUBCHEM_EFFECTIVE_ROTOR_COUNT>
7

> <PUBCHEM_PHARMACOPHORE_FEATURES>
10
1 1 acceptor
1 2 cation
1 2 donor
1 3 donor
1 4 acceptor
1 5 acceptor
6 4 19 20 21 22 23 rings
6 5 26 27 28 29 30 rings
6 7 9 10 11 14 15 rings
6 9 10 13 16 17 18 rings

> <PUBCHEM_HEAVY_ATOM_COUNT>
30

> <PUBCHEM_ATOM_DEF_STEREO_COUNT>
0

> <PUBCHEM_ATOM_UDEF_STEREO_COUNT>
1

> <PUBCHEM_BOND_DEF_STEREO_COUNT>
0

> <PUBCHEM_BOND_UDEF_STEREO_COUNT>
1

> <PUBCHEM_ISOTOPIC_ATOM_COUNT>
0

> <PUBCHEM_COMPONENT_COUNT>
1

> <PUBCHEM_CACTVS_TAUTO_COUNT>
2

> <PUBCHEM_CONFORMER_ID>
02F85B5A00000001

> <PUBCHEM_MMFF94_ENERGY>
93.8056

> <PUBCHEM_FEATURE_SELFOVERLAP>
50.773

> <PUBCHEM_SHAPE_FINGERPRINT>
10305334 12 18340775845276679731
10319688 45 18335979779915098088
11135609 12 18190738837332995040
11211813 140 17971167289317456882
11387372 6 18267309733941539694
11443803 9 17346322536908747761
11524674 6 17488737870183789708
12422481 6 17775288249151563646
12522641 33 17833259828076327677
13947930 73 17678202527259178963
14114207 22 17901940838762412445
14279260 333 18115579341523006122
14844126 61 17846488244945776877
14866123 147 18411700963359173739
15274700 242 17897714380410617066
15439362 3 17398666801751583317
16110190 28 18342179955758247500
17492 89 18120376720215950611
17627616 140 17901660475765947946
17809404 112 17480552264245356493
19311894 1 18335416889653421586
19315092 285 15909927369829784534
21315759 227 17827907748377470698
229767 44 18341058414879187793
3383291 50 18341891922514760139
3737641 26 17544209627848450319
445580 42 18410009965772635935
463206 1 18408608058957242792
484985 159 18335135431988240635
5080951 261 17825081750687692860
5486654 36 18335703892004244920
613672 6 18192969699729510720
6431902 208 18411131481288009098
9953998 17 18059564773089957208

> <PUBCHEM_SHAPE_MULTIPOLES>
591.59
14
5.62
1.58
29.8
0.01
0.67
7.3
-3.61
-3.05
-0.56
-2.4
0.69
-0.79

> <PUBCHEM_SHAPE_SELFOVERLAP>
1296.684

> <PUBCHEM_SHAPE_VOLUME>
316.1

> <PUBCHEM_COORDINATE_TYPE>
2
5
10

$$$$
