49830646
  -OEChem-10052115183D

 73 76  0     1  0  0  0  0  0999 V2000
   -2.3162    5.2720    0.6426 O   0  0  0  0  0  0  0  0  0  0  0  0
    0.6251    5.1090    0.5235 O   0  0  0  0  0  0  0  0  0  0  0  0
    0.1132   -3.3552   -0.3744 O   0  0  0  0  0  0  0  0  0  0  0  0
    3.0865   -0.2882    0.4208 N   0  0  0  0  0  0  0  0  0  0  0  0
   -0.3954    3.2881   -0.4858 N   0  0  0  0  0  0  0  0  0  0  0  0
    4.3626   -0.5383    0.0813 N   0  0  0  0  0  0  0  0  0  0  0  0
    0.8842   -1.2727    0.3909 N   0  0  0  0  0  0  0  0  0  0  0  0
   -1.3780   -1.8191    0.5666 N   0  0  0  0  0  0  0  0  0  0  0  0
    5.5285   -2.4081   -0.9440 C   0  0  0  0  0  0  0  0  0  0  0  0
   -1.3955    4.0398   -1.2137 C   0  0  1  0  0  0  0  0  0  0  0  0
    4.3018   -1.7649   -0.4440 C   0  0  0  0  0  0  0  0  0  0  0  0
   -1.7587    3.3640   -2.5577 C   0  0  0  0  0  0  0  0  0  0  0  0
    6.8513   -1.5669   -0.8139 C   0  0  0  0  0  0  0  0  0  0  0  0
    5.8341   -3.7487   -0.1919 C   0  0  0  0  0  0  0  0  0  0  0  0
    5.4264   -2.7556   -2.4687 C   0  0  0  0  0  0  0  0  0  0  0  0
    2.9971   -2.2938   -0.4402 C   0  0  0  0  0  0  0  0  0  0  0  0
    2.2288   -1.3082    0.1297 C   0  0  0  0  0  0  0  0  0  0  0  0
   -2.6223    4.2758   -0.3282 C   0  0  0  0  0  0  0  0  0  0  0  0
   -2.5198    2.0449   -2.3936 C   0  0  0  0  0  0  0  0  0  0  0  0
   -0.5147    3.1412   -3.4250 C   0  0  0  0  0  0  0  0  0  0  0  0
    2.7608    0.9197    1.0100 C   0  0  0  0  0  0  0  0  0  0  0  0
    0.5410    3.8989    0.3312 C   0  0  0  0  0  0  0  0  0  0  0  0
    1.5157    2.9901    0.9877 C   0  0  0  0  0  0  0  0  0  0  0  0
    1.8450    1.7721    0.3931 C   0  0  0  0  0  0  0  0  0  0  0  0
    3.3472    1.2854    2.2217 C   0  0  0  0  0  0  0  0  0  0  0  0
    2.1020    3.3558    2.1995 C   0  0  0  0  0  0  0  0  0  0  0  0
    3.0176    2.5034    2.8166 C   0  0  0  0  0  0  0  0  0  0  0  0
   -0.1167   -2.2661    0.1415 C   0  0  0  0  0  0  0  0  0  0  0  0
   -2.6143   -2.5035    0.4947 C   0  0  0  0  0  0  0  0  0  0  0  0
   -3.8323   -1.8183    0.3556 C   0  0  0  0  0  0  0  0  0  0  0  0
   -5.0380   -2.5566    0.2893 C   0  0  0  0  0  0  0  0  0  0  0  0
   -2.5854   -3.8964    0.5672 C   0  0  0  0  0  0  0  0  0  0  0  0
   -3.8803   -0.4168    0.2810 C   0  0  0  0  0  0  0  0  0  0  0  0
   -4.9900   -3.9581    0.3639 C   0  0  0  0  0  0  0  0  0  0  0  0
   -3.7709   -4.6223    0.5020 C   0  0  0  0  0  0  0  0  0  0  0  0
   -6.2560   -1.8714    0.1502 C   0  0  0  0  0  0  0  0  0  0  0  0
   -5.0993    0.2475    0.1429 C   0  0  0  0  0  0  0  0  0  0  0  0
   -6.2850   -0.4785    0.0776 C   0  0  0  0  0  0  0  0  0  0  0  0
   -0.9523    5.0182   -1.4445 H   0  0  0  0  0  0  0  0  0  0  0  0
   -2.4179    4.0518   -3.1045 H   0  0  0  0  0  0  0  0  0  0  0  0
    7.0555   -1.3221    0.2350 H   0  0  0  0  0  0  0  0  0  0  0  0
    6.7689   -0.6237   -1.3664 H   0  0  0  0  0  0  0  0  0  0  0  0
    7.7176   -2.1114   -1.2064 H   0  0  0  0  0  0  0  0  0  0  0  0
    5.0132   -4.4648   -0.3129 H   0  0  0  0  0  0  0  0  0  0  0  0
    5.9611   -3.5698    0.8821 H   0  0  0  0  0  0  0  0  0  0  0  0
    6.7470   -4.2235   -0.5687 H   0  0  0  0  0  0  0  0  0  0  0  0
    5.2551   -1.8495   -3.0616 H   0  0  0  0  0  0  0  0  0  0  0  0
    4.5924   -3.4399   -2.6624 H   0  0  0  0  0  0  0  0  0  0  0  0
    6.3411   -3.2350   -2.8353 H   0  0  0  0  0  0  0  0  0  0  0  0
    2.6720   -3.2581   -0.8024 H   0  0  0  0  0  0  0  0  0  0  0  0
   -3.4642    4.6474   -0.9213 H   0  0  0  0  0  0  0  0  0  0  0  0
   -2.9281    3.3650    0.1976 H   0  0  0  0  0  0  0  0  0  0  0  0
   -0.4685    2.2766   -0.5048 H   0  0  0  0  0  0  0  0  0  0  0  0
   -2.7624    1.6188   -3.3735 H   0  0  0  0  0  0  0  0  0  0  0  0
   -3.4659    2.1938   -1.8656 H   0  0  0  0  0  0  0  0  0  0  0  0
   -1.9323    1.3007   -1.8472 H   0  0  0  0  0  0  0  0  0  0  0  0
   -0.7999    2.7832   -4.4202 H   0  0  0  0  0  0  0  0  0  0  0  0
    0.0413    4.0755   -3.5556 H   0  0  0  0  0  0  0  0  0  0  0  0
    0.1607    2.3988   -2.9870 H   0  0  0  0  0  0  0  0  0  0  0  0
    1.4314    1.4886   -0.5718 H   0  0  0  0  0  0  0  0  0  0  0  0
    0.5435   -0.4306    0.8450 H   0  0  0  0  0  0  0  0  0  0  0  0
    4.0594    0.6316    2.7195 H   0  0  0  0  0  0  0  0  0  0  0  0
    1.8545    4.2984    2.6806 H   0  0  0  0  0  0  0  0  0  0  0  0
    3.4725    2.7870    3.7612 H   0  0  0  0  0  0  0  0  0  0  0  0
   -3.1152    5.3987    1.1821 H   0  0  0  0  0  0  0  0  0  0  0  0
   -1.4199   -0.8301    0.7872 H   0  0  0  0  0  0  0  0  0  0  0  0
   -1.6670   -4.4546    0.7170 H   0  0  0  0  0  0  0  0  0  0  0  0
   -2.9913    0.2051    0.3188 H   0  0  0  0  0  0  0  0  0  0  0  0
   -5.9044   -4.5458    0.3172 H   0  0  0  0  0  0  0  0  0  0  0  0
   -3.7493   -5.7063    0.5682 H   0  0  0  0  0  0  0  0  0  0  0  0
   -7.1950   -2.4185    0.0970 H   0  0  0  0  0  0  0  0  0  0  0  0
   -5.1233    1.3319    0.0854 H   0  0  0  0  0  0  0  0  0  0  0  0
   -7.2336    0.0393   -0.0301 H   0  0  0  0  0  0  0  0  0  0  0  0
  1 18  1  0  0  0  0
  1 65  1  0  0  0  0
  2 22  2  0  0  0  0
  3 28  2  0  0  0  0
  4  6  1  0  0  0  0
  4 17  1  0  0  0  0
  4 21  1  0  0  0  0
  5 10  1  0  0  0  0
  5 22  1  0  0  0  0
  5 53  1  0  0  0  0
  6 11  2  0  0  0  0
  7 17  1  0  0  0  0
  7 28  1  0  0  0  0
  7 61  1  0  0  0  0
  8 28  1  0  0  0  0
  8 29  1  0  0  0  0
  8 66  1  0  0  0  0
  9 11  1  0  0  0  0
  9 13  1  0  0  0  0
  9 14  1  0  0  0  0
  9 15  1  0  0  0  0
 10 12  1  0  0  0  0
 10 18  1  0  0  0  0
 10 39  1  0  0  0  0
 11 16  1  0  0  0  0
 12 19  1  0  0  0  0
 12 20  1  0  0  0  0
 12 40  1  0  0  0  0
 13 41  1  0  0  0  0
 13 42  1  0  0  0  0
 13 43  1  0  0  0  0
 14 44  1  0  0  0  0
 14 45  1  0  0  0  0
 14 46  1  0  0  0  0
 15 47  1  0  0  0  0
 15 48  1  0  0  0  0
 15 49  1  0  0  0  0
 16 17  2  0  0  0  0
 16 50  1  0  0  0  0
 18 51  1  0  0  0  0
 18 52  1  0  0  0  0
 19 54  1  0  0  0  0
 19 55  1  0  0  0  0
 19 56  1  0  0  0  0
 20 57  1  0  0  0  0
 20 58  1  0  0  0  0
 20 59  1  0  0  0  0
 21 24  1  0  0  0  0
 21 25  2  0  0  0  0
 22 23  1  0  0  0  0
 23 24  2  0  0  0  0
 23 26  1  0  0  0  0
 24 60  1  0  0  0  0
 25 27  1  0  0  0  0
 25 62  1  0  0  0  0
 26 27  2  0  0  0  0
 26 63  1  0  0  0  0
 27 64  1  0  0  0  0
 29 30  1  0  0  0  0
 29 32  2  0  0  0  0
 30 31  1  0  0  0  0
 30 33  2  0  0  0  0
 31 34  1  0  0  0  0
 31 36  2  0  0  0  0
 32 35  1  0  0  0  0
 32 67  1  0  0  0  0
 33 37  1  0  0  0  0
 33 68  1  0  0  0  0
 34 35  2  0  0  0  0
 34 69  1  0  0  0  0
 35 70  1  0  0  0  0
 36 38  1  0  0  0  0
 36 71  1  0  0  0  0
 37 38  2  0  0  0  0
 37 72  1  0  0  0  0
 38 73  1  0  0  0  0
M  END
> <PUBCHEM_COMPOUND_CID>
49830646

> <PUBCHEM_CONFORMER_RMSD>
1.2

> <PUBCHEM_CONFORMER_DIVERSEORDER>
2
73
41
21
70
36
53
40
51
76
32
10
16
54
39
71
46
62
64
26
75
28
31
24
27
68
47
77
25
15
48
35
78
69
66
17
38
60
30
44
52
67
79
45
56
37
57
63
49
11
72
22
42
61
34
58
9
65
8
29
59
33
43
23
55
74
5
14
20
50
13
19
1
12
6
3
18
7
4

> <PUBCHEM_MMFF94_PARTIAL_CHARGES>
46
1 -0.68
10 0.3
11 0.11
16 -0.15
17 -0.09
18 0.28
2 -0.57
21 -0.02
22 0.54
23 0.09
24 -0.15
25 -0.15
26 -0.15
27 -0.15
28 0.69
29 0.12
3 -0.57
32 -0.15
33 -0.15
34 -0.15
35 -0.15
36 -0.15
37 -0.15
38 -0.15
4 0.59
5 -0.73
50 0.15
53 0.37
6 -0.71
60 0.15
61 0.37
62 0.15
63 0.15
64 0.15
65 0.4
66 0.37
67 0.15
68 0.15
69 0.15
7 -0.49
70 0.15
71 0.15
72 0.15
73 0.15
8 -0.55
9 0.18

> <PUBCHEM_EFFECTIVE_ROTOR_COUNT>
11

> <PUBCHEM_PHARMACOPHORE_FEATURES>
14
1 1 acceptor
1 1 donor
1 2 acceptor
1 3 acceptor
1 5 donor
1 6 acceptor
1 7 donor
1 8 donor
3 12 19 20 hydrophobe
4 9 13 14 15 hydrophobe
5 4 6 11 16 17 rings
6 21 23 24 25 26 27 rings
6 29 30 31 32 34 35 rings
6 30 31 33 36 37 38 rings

> <PUBCHEM_HEAVY_ATOM_COUNT>
38

> <PUBCHEM_ATOM_DEF_STEREO_COUNT>
0

> <PUBCHEM_ATOM_UDEF_STEREO_COUNT>
1

> <PUBCHEM_BOND_DEF_STEREO_COUNT>
0

> <PUBCHEM_BOND_UDEF_STEREO_COUNT>
0

> <PUBCHEM_ISOTOPIC_ATOM_COUNT>
0

> <PUBCHEM_COMPONENT_COUNT>
1

> <PUBCHEM_CACTVS_TAUTO_COUNT>
14

> <PUBCHEM_CONFORMER_ID>
02F85AF600000002

> <PUBCHEM_MMFF94_ENERGY>
125.9814

> <PUBCHEM_FEATURE_SELFOVERLAP>
71.12

> <PUBCHEM_SHAPE_FINGERPRINT>
10462674 369 18411987953564672286
10864689 126 18192417594711125245
11093857 5 18267289937867813776
11093857 51 17541105702196987484
11513181 2 17985550197992849119
11991303 11 17682703730595555774
1361 87 18338224973630895149
15264996 154 17685788212540206719
15320467 1 17690279739472794281
15419008 47 18410016520008839438
15420108 30 17042310117948172680
15775530 1 18128792241356675376
15975801 100 17243296019813948012
16067689 391 17053295927074040086
16993438 75 17975146348266287841
20764821 26 17473255475665872529
21049683 271 18197511821245807910
21133410 127 17757260858277198005
23516275 137 16197897935331315820
23559900 14 18341049722135049219
25223398 141 18043250141450955444
3103668 31 18266187123224836204
3493558 16 18197219363847577659
4066623 53 18408328795751396996
4144715 1 18265339597761730243
4409770 3 18122633743253355666
474144 1 16959282662182148749
86090 222 17684322319196699157
9961470 85 18341610460881666969

> <PUBCHEM_SHAPE_MULTIPOLES>
739.51
13.7
8.48
2.16
0.89
6.25
-1.07
-17.94
-1.25
-3.12
-0.63
1.83
2.85
5.47

> <PUBCHEM_SHAPE_SELFOVERLAP>
1588.361

> <PUBCHEM_SHAPE_VOLUME>
408.4

> <PUBCHEM_COORDINATE_TYPE>
2
5
10

$$$$
