44340972
  -OEChem-10062121583D

 71 77  0     1  0  0  0  0  0999 V2000
   -4.0847   -1.0158    0.7552 O   0  0  0  0  0  0  0  0  0  0  0  0
   -3.0725    1.2880   -1.9370 O   0  0  0  0  0  0  0  0  0  0  0  0
   -5.1974    2.0958   -0.3607 O   0  0  0  0  0  0  0  0  0  0  0  0
   -7.3953    0.4001    0.0222 O   0  0  0  0  0  0  0  0  0  0  0  0
   -5.4104   -1.8485    3.0111 O   0  0  0  0  0  0  0  0  0  0  0  0
    3.1905   -2.7407   -0.7940 O   0  0  0  0  0  0  0  0  0  0  0  0
    4.2099    1.7407   -0.3131 O   0  0  0  0  0  0  0  0  0  0  0  0
    3.0638    3.8527    0.0421 O   0  0  0  0  0  0  0  0  0  0  0  0
    7.7362    0.5069    0.0344 O   0  0  0  0  0  0  0  0  0  0  0  0
    6.2678   -2.7393    2.3047 O   0  0  0  0  0  0  0  0  0  0  0  0
   -1.8931   -0.7613   -0.1412 N   0  0  0  0  0  0  0  0  0  0  0  0
   -1.3112    1.9435    0.1505 N   0  0  0  0  0  0  0  0  0  0  0  0
    4.0542   -0.5621   -0.5893 N   0  0  0  0  0  0  0  0  0  0  0  0
    5.3933   -0.8350   -0.7299 N   0  0  0  0  0  0  0  0  0  0  0  0
   -3.2412   -0.0945    0.0509 C   0  0  1  0  0  0  0  0  0  0  0  0
   -3.8787    0.3069   -1.2922 C   0  0  1  0  0  0  0  0  0  0  0  0
   -0.6156   -0.3202   -0.1879 C   0  0  0  0  0  0  0  0  0  0  0  0
   -5.2900    0.8608   -1.0767 C   0  0  1  0  0  0  0  0  0  0  0  0
   -6.1119   -0.1417   -0.2638 C   0  0  1  0  0  0  0  0  0  0  0  0
    0.5014   -1.1991   -0.3866 C   0  0  0  0  0  0  0  0  0  0  0  0
   -5.3873   -0.4970    1.0413 C   0  0  1  0  0  0  0  0  0  0  0  0
   -1.7063   -2.1228   -0.3264 C   0  0  0  0  0  0  0  0  0  0  0  0
   -0.3229    1.0408   -0.0409 C   0  0  0  0  0  0  0  0  0  0  0  0
   -0.3101   -2.4220   -0.4750 C   0  0  0  0  0  0  0  0  0  0  0  0
    1.8388   -0.8166   -0.4451 C   0  0  0  0  0  0  0  0  0  0  0  0
    1.0625    1.4097   -0.1048 C   0  0  0  0  0  0  0  0  0  0  0  0
    2.1298    0.5372   -0.2988 C   0  0  0  0  0  0  0  0  0  0  0  0
    0.8233    2.8467    0.0940 C   0  0  0  0  0  0  0  0  0  0  0  0
   -6.1391   -1.5642    1.8307 C   0  0  0  0  0  0  0  0  0  0  0  0
   -0.5790    3.1180    0.2391 C   0  0  0  0  0  0  0  0  0  0  0  0
    3.0880   -1.5405   -0.6349 C   0  0  0  0  0  0  0  0  0  0  0  0
   -2.6861   -3.1263   -0.3734 C   0  0  0  0  0  0  0  0  0  0  0  0
    3.5723    0.7125   -0.3914 C   0  0  0  0  0  0  0  0  0  0  0  0
    0.0415   -3.7793   -0.6725 C   0  0  0  0  0  0  0  0  0  0  0  0
    1.7049    3.9525    0.1625 C   0  0  0  0  0  0  0  0  0  0  0  0
   -2.2857   -4.4484   -0.5703 C   0  0  0  0  0  0  0  0  0  0  0  0
   -0.9434   -4.7720   -0.7178 C   0  0  0  0  0  0  0  0  0  0  0  0
   -1.0628    4.4197    0.4402 C   0  0  0  0  0  0  0  0  0  0  0  0
    5.9963   -1.0761    0.5739 C   0  0  0  0  0  0  0  0  0  0  0  0
    1.2119    5.2464    0.3634 C   0  0  0  0  0  0  0  0  0  0  0  0
   -0.1511    5.4742    0.4999 C   0  0  0  0  0  0  0  0  0  0  0  0
    7.5010   -0.8225    0.4820 C   0  0  0  0  0  0  0  0  0  0  0  0
    5.6885   -2.5071    1.0257 C   0  0  0  0  0  0  0  0  0  0  0  0
   -3.1009    0.6761    0.8004 H   0  0  0  0  0  0  0  0  0  0  0  0
   -3.9359   -0.5697   -1.9494 H   0  0  0  0  0  0  0  0  0  0  0  0
   -5.7759    1.0947   -2.0296 H   0  0  0  0  0  0  0  0  0  0  0  0
   -6.2519   -1.0509   -0.8623 H   0  0  0  0  0  0  0  0  0  0  0  0
   -5.2804    0.3757    1.6976 H   0  0  0  0  0  0  0  0  0  0  0  0
   -6.2163   -2.4927    1.2551 H   0  0  0  0  0  0  0  0  0  0  0  0
   -7.1416   -1.2266    2.1098 H   0  0  0  0  0  0  0  0  0  0  0  0
   -2.3033    1.9284    0.0349 H   0  0  0  0  0  0  0  0  0  0  0  0
   -3.7493   -2.9293   -0.3186 H   0  0  0  0  0  0  0  0  0  0  0  0
    1.0797   -4.0714   -0.7923 H   0  0  0  0  0  0  0  0  0  0  0  0
   -3.5079    1.5201   -2.7748 H   0  0  0  0  0  0  0  0  0  0  0  0
   -4.7094    1.9650    0.4663 H   0  0  0  0  0  0  0  0  0  0  0  0
   -7.8176    0.6166   -0.8264 H   0  0  0  0  0  0  0  0  0  0  0  0
   -3.0361   -5.2331   -0.6209 H   0  0  0  0  0  0  0  0  0  0  0  0
   -0.6524   -5.8076   -0.8732 H   0  0  0  0  0  0  0  0  0  0  0  0
   -2.1270    4.6078    0.5477 H   0  0  0  0  0  0  0  0  0  0  0  0
    5.8237   -0.0212   -1.1690 H   0  0  0  0  0  0  0  0  0  0  0  0
    5.6109   -0.3645    1.3182 H   0  0  0  0  0  0  0  0  0  0  0  0
   -5.9030   -2.5334    3.4945 H   0  0  0  0  0  0  0  0  0  0  0  0
    1.8882    6.0967    0.4162 H   0  0  0  0  0  0  0  0  0  0  0  0
   -0.5146    6.4867    0.6553 H   0  0  0  0  0  0  0  0  0  0  0  0
    7.9795   -1.5133   -0.2216 H   0  0  0  0  0  0  0  0  0  0  0  0
    7.9787   -0.9387    1.4604 H   0  0  0  0  0  0  0  0  0  0  0  0
    4.6188   -2.6757    1.1545 H   0  0  0  0  0  0  0  0  0  0  0  0
    6.0881   -3.2470    0.3235 H   0  0  0  0  0  0  0  0  0  0  0  0
    3.4700    4.7325    0.1201 H   0  0  0  0  0  0  0  0  0  0  0  0
    8.7002    0.6268   -0.0091 H   0  0  0  0  0  0  0  0  0  0  0  0
    6.0589   -3.6566    2.5511 H   0  0  0  0  0  0  0  0  0  0  0  0
  1 15  1  0  0  0  0
  1 21  1  0  0  0  0
  2 16  1  0  0  0  0
  2 54  1  0  0  0  0
  3 18  1  0  0  0  0
  3 55  1  0  0  0  0
  4 19  1  0  0  0  0
  4 56  1  0  0  0  0
  5 29  1  0  0  0  0
  5 62  1  0  0  0  0
  6 31  2  0  0  0  0
  7 33  2  0  0  0  0
  8 35  1  0  0  0  0
  8 69  1  0  0  0  0
  9 42  1  0  0  0  0
  9 70  1  0  0  0  0
 10 43  1  0  0  0  0
 10 71  1  0  0  0  0
 11 15  1  0  0  0  0
 11 17  1  0  0  0  0
 11 22  1  0  0  0  0
 12 23  1  0  0  0  0
 12 30  1  0  0  0  0
 12 51  1  0  0  0  0
 13 14  1  0  0  0  0
 13 31  1  0  0  0  0
 13 33  1  0  0  0  0
 14 39  1  0  0  0  0
 14 60  1  0  0  0  0
 15 16  1  0  0  0  0
 15 44  1  0  0  0  0
 16 18  1  0  0  0  0
 16 45  1  0  0  0  0
 17 20  1  0  0  0  0
 17 23  2  0  0  0  0
 18 19  1  0  0  0  0
 18 46  1  0  0  0  0
 19 21  1  0  0  0  0
 19 47  1  0  0  0  0
 20 24  1  0  0  0  0
 20 25  2  0  0  0  0
 21 29  1  0  0  0  0
 21 48  1  0  0  0  0
 22 24  1  0  0  0  0
 22 32  2  0  0  0  0
 23 26  1  0  0  0  0
 24 34  2  0  0  0  0
 25 27  1  0  0  0  0
 25 31  1  0  0  0  0
 26 27  2  0  0  0  0
 26 28  1  0  0  0  0
 27 33  1  0  0  0  0
 28 30  2  0  0  0  0
 28 35  1  0  0  0  0
 29 49  1  0  0  0  0
 29 50  1  0  0  0  0
 30 38  1  0  0  0  0
 32 36  1  0  0  0  0
 32 52  1  0  0  0  0
 34 37  1  0  0  0  0
 34 53  1  0  0  0  0
 35 40  2  0  0  0  0
 36 37  2  0  0  0  0
 36 57  1  0  0  0  0
 37 58  1  0  0  0  0
 38 41  2  0  0  0  0
 38 59  1  0  0  0  0
 39 42  1  0  0  0  0
 39 43  1  0  0  0  0
 39 61  1  0  0  0  0
 40 41  1  0  0  0  0
 40 63  1  0  0  0  0
 41 64  1  0  0  0  0
 42 65  1  0  0  0  0
 42 66  1  0  0  0  0
 43 67  1  0  0  0  0
 43 68  1  0  0  0  0
M  END
> <PUBCHEM_COMPOUND_CID>
44340972

> <PUBCHEM_CONFORMER_RMSD>
1

> <PUBCHEM_CONFORMER_DIVERSEORDER>
2
19
26
13
21
15
3
22
14
16
17
18
9
11
7
25
27
10
12
4
24
23
20
8
5
1
6

> <PUBCHEM_MMFF94_PARTIAL_CHARGES>
57
1 -0.56
10 -0.68
11 -0.04
12 -0.05
13 -0.11
14 -0.64
15 0.54
16 0.28
17 -0.05
18 0.28
19 0.28
2 -0.68
20 -0.01
21 0.28
22 -0.15
23 -0.05
25 0.09
26 -0.01
27 0.09
29 0.28
3 -0.68
30 -0.15
31 0.54
32 -0.15
33 0.54
34 -0.15
35 0.08
36 -0.15
37 -0.15
38 -0.15
39 0.27
4 -0.68
40 -0.15
41 -0.15
42 0.28
43 0.28
5 -0.68
51 0.27
52 0.15
53 0.15
54 0.4
55 0.4
56 0.4
57 0.15
58 0.15
59 0.15
6 -0.57
60 0.36
62 0.4
63 0.15
64 0.15
69 0.45
7 -0.57
70 0.4
71 0.4
8 -0.53
9 -0.68

> <PUBCHEM_EFFECTIVE_ROTOR_COUNT>
7.4

> <PUBCHEM_PHARMACOPHORE_FEATURES>
27
1 1 acceptor
1 10 acceptor
1 10 donor
1 11 cation
1 12 cation
1 12 donor
1 14 donor
1 2 acceptor
1 2 donor
1 3 acceptor
1 3 donor
1 4 acceptor
1 4 donor
1 5 acceptor
1 5 donor
1 6 acceptor
1 7 acceptor
1 8 donor
1 9 acceptor
1 9 donor
5 11 17 20 22 24 rings
5 12 23 26 28 30 rings
5 13 25 27 31 33 rings
6 1 15 16 18 19 21 rings
6 17 20 23 25 26 27 rings
6 22 24 32 34 36 37 rings
6 28 30 35 38 40 41 rings

> <PUBCHEM_HEAVY_ATOM_COUNT>
43

> <PUBCHEM_ATOM_DEF_STEREO_COUNT>
0

> <PUBCHEM_ATOM_UDEF_STEREO_COUNT>
5

> <PUBCHEM_BOND_DEF_STEREO_COUNT>
0

> <PUBCHEM_BOND_UDEF_STEREO_COUNT>
0

> <PUBCHEM_ISOTOPIC_ATOM_COUNT>
0

> <PUBCHEM_COMPONENT_COUNT>
1

> <PUBCHEM_CACTVS_TAUTO_COUNT>
29

> <PUBCHEM_CONFORMER_ID>
02A496EC00000002

> <PUBCHEM_MMFF94_ENERGY>
166.5904

> <PUBCHEM_FEATURE_SELFOVERLAP>
137.541

> <PUBCHEM_SHAPE_FINGERPRINT>
10050765 1 18051975011194244831
102385 1 17836642294428916039
10653451 467 18334861627980875815
10675989 125 16894258102935565141
10930396 42 18126252356506070986
1100329 8 18339923817568475646
11456790 92 18334868182507386145
12058002 1 17200834130859009103
12107183 9 18269846452794495099
12788726 201 18335987459268429842
13140716 1 18340483495389995518
13782708 43 17894350003504684235
13911987 19 18337379444972841287
14028597 1 17896028850612696874
140371 6 18342464729253913612
14068700 686 17983856688214212478
14117953 113 18342742897042470654
14394314 77 18411416228713282018
14790565 3 18340776961778506389
14937079 2 18412545439961152069
14955137 171 18409452492187029011
15131766 46 14834682978409246442
15320467 1 18412546500458787165
15324884 4 17896865751182502573
15439362 3 18269267044912140497
15815584 197 18197797522143654655
15927050 60 17908989047066181276
16087824 20 18340208484376410781
16112460 7 18200325423597238041
16728300 4 17680690550395852818
18681886 176 18341323457680256571
19319366 153 17967813838708163522
19611394 137 18261404372256669730
20642791 105 18122054317805704864
20775438 99 17191175080423273431
21796203 349 18193023553912979347
22223350 30 18057594571910540779
22311459 1 18412825772945430542
23559900 14 18270391806635980944
24771293 8 18059859449846400595
24771750 20 18048049750504448276
283562 15 18198622125177047305
3178227 256 18410586080539207179
335352 9 18411981386052878070
3383291 50 18412261722821699842
42626532 9 16734976637901960593
469060 322 18198074589877004937
6004065 56 18342165675039351135
6086070 43 18265313140995041751
9896288 288 17982168912232883568

> <PUBCHEM_SHAPE_MULTIPOLES>
806.3
15.16
6.79
1.28
6.85
5.4
0.74
-7.2
5.05
1.2
0.32
-1.2
-0.81
0.07

> <PUBCHEM_SHAPE_SELFOVERLAP>
1819.885

> <PUBCHEM_SHAPE_VOLUME>
420.1

> <PUBCHEM_COORDINATE_TYPE>
2
5
10

$$$$
