9999342
  -OEChem-10062121563D

 42 45  0     0  0  0  0  0  0999 V2000
    1.4213   -0.1884   -2.4348 F   0  0  0  0  0  0  0  0  0  0  0  0
    4.3875   -1.7473    1.8890 F   0  0  0  0  0  0  0  0  0  0  0  0
    3.9023   -3.5029   -0.1500 F   0  0  0  0  0  0  0  0  0  0  0  0
    0.5451    3.4280   -0.1602 O   0  0  0  0  0  0  0  0  0  0  0  0
   -2.3398    0.0076    0.6158 N   0  0  0  0  0  0  0  0  0  0  0  0
   -4.0959   -1.2356    1.0498 N   0  0  0  0  0  0  0  0  0  0  0  0
   -3.4906   -0.9189    2.2495 N   0  0  0  0  0  0  0  0  0  0  0  0
    2.5482    2.7290   -0.9436 N   0  0  0  0  0  0  0  0  0  0  0  0
   -3.6789   -0.7517   -1.3591 C   0  0  0  0  0  0  0  0  0  0  0  0
   -3.3974   -0.6763    0.0871 C   0  0  0  0  0  0  0  0  0  0  0  0
   -4.9566   -1.6062   -1.6592 C   0  0  0  0  0  0  0  0  0  0  0  0
   -2.4957   -1.4065   -2.1490 C   0  0  0  0  0  0  0  0  0  0  0  0
   -3.9341    0.6203   -2.0823 C   0  0  0  0  0  0  0  0  0  0  0  0
   -2.4388   -0.1742    1.9835 C   0  0  0  0  0  0  0  0  0  0  0  0
   -1.3377    0.7460   -0.0028 C   0  0  0  0  0  0  0  0  0  0  0  0
   -0.3845    1.3410    0.7504 C   0  0  0  0  0  0  0  0  0  0  0  0
   -1.4470    0.4381    2.7928 C   0  0  0  0  0  0  0  0  0  0  0  0
   -0.4689    1.1577    2.2094 C   0  0  0  0  0  0  0  0  0  0  0  0
    0.6504    2.0899    0.0932 C   0  0  0  0  0  0  0  0  0  0  0  0
    1.8722    1.6735   -0.3868 C   0  0  0  0  0  0  0  0  0  0  0  0
    2.3931    0.3415   -0.3294 C   0  0  0  0  0  0  0  0  0  0  0  0
    1.7174    3.7336   -0.7806 C   0  0  0  0  0  0  0  0  0  0  0  0
    2.1471   -0.5587   -1.3695 C   0  0  0  0  0  0  0  0  0  0  0  0
    3.1514   -0.0643    0.7715 C   0  0  0  0  0  0  0  0  0  0  0  0
    3.6606   -1.3616    0.8321 C   0  0  0  0  0  0  0  0  0  0  0  0
    2.6562   -1.8559   -1.3088 C   0  0  0  0  0  0  0  0  0  0  0  0
    3.4130   -2.2574   -0.2080 C   0  0  0  0  0  0  0  0  0  0  0  0
   -5.1528   -1.6793   -2.7348 H   0  0  0  0  0  0  0  0  0  0  0  0
   -4.8427   -2.6255   -1.2718 H   0  0  0  0  0  0  0  0  0  0  0  0
   -5.8412   -1.1663   -1.1840 H   0  0  0  0  0  0  0  0  0  0  0  0
   -2.2210   -2.3667   -1.6958 H   0  0  0  0  0  0  0  0  0  0  0  0
   -2.7876   -1.6091   -3.1868 H   0  0  0  0  0  0  0  0  0  0  0  0
   -1.5917   -0.7991   -2.1976 H   0  0  0  0  0  0  0  0  0  0  0  0
   -4.2107    0.4693   -3.1325 H   0  0  0  0  0  0  0  0  0  0  0  0
   -4.7578    1.1538   -1.5932 H   0  0  0  0  0  0  0  0  0  0  0  0
   -3.0709    1.2873   -2.0729 H   0  0  0  0  0  0  0  0  0  0  0  0
   -1.3288    0.8496   -1.0757 H   0  0  0  0  0  0  0  0  0  0  0  0
   -1.4855    0.3192    3.8697 H   0  0  0  0  0  0  0  0  0  0  0  0
    0.2961    1.6286    2.8196 H   0  0  0  0  0  0  0  0  0  0  0  0
    1.8514    4.7631   -1.0767 H   0  0  0  0  0  0  0  0  0  0  0  0
    3.3542    0.6207    1.5916 H   0  0  0  0  0  0  0  0  0  0  0  0
    2.4632   -2.5534   -2.1184 H   0  0  0  0  0  0  0  0  0  0  0  0
  1 23  1  0  0  0  0
  2 25  1  0  0  0  0
  3 27  1  0  0  0  0
  4 19  1  0  0  0  0
  4 22  1  0  0  0  0
  5 10  1  0  0  0  0
  5 14  1  0  0  0  0
  5 15  1  0  0  0  0
  6  7  1  0  0  0  0
  6 10  2  0  0  0  0
  7 14  2  0  0  0  0
  8 20  1  0  0  0  0
  8 22  2  0  0  0  0
  9 10  1  0  0  0  0
  9 11  1  0  0  0  0
  9 12  1  0  0  0  0
  9 13  1  0  0  0  0
 11 28  1  0  0  0  0
 11 29  1  0  0  0  0
 11 30  1  0  0  0  0
 12 31  1  0  0  0  0
 12 32  1  0  0  0  0
 12 33  1  0  0  0  0
 13 34  1  0  0  0  0
 13 35  1  0  0  0  0
 13 36  1  0  0  0  0
 14 17  1  0  0  0  0
 15 16  2  0  0  0  0
 15 37  1  0  0  0  0
 16 18  1  0  0  0  0
 16 19  1  0  0  0  0
 17 18  2  0  0  0  0
 17 38  1  0  0  0  0
 18 39  1  0  0  0  0
 19 20  2  0  0  0  0
 20 21  1  0  0  0  0
 21 23  1  0  0  0  0
 21 24  2  0  0  0  0
 22 40  1  0  0  0  0
 23 26  2  0  0  0  0
 24 25  1  0  0  0  0
 24 41  1  0  0  0  0
 25 27  2  0  0  0  0
 26 27  1  0  0  0  0
 26 42  1  0  0  0  0
M  END
> <PUBCHEM_COMPOUND_CID>
9999342

> <PUBCHEM_CONFORMER_RMSD>
0.6

> <PUBCHEM_CONFORMER_DIVERSEORDER>
1
26
16
5
10
14
9
15
7
25
13
20
27
22
18
12
21
17
11
8
19
6
4
28
24
3
2
23

> <PUBCHEM_MMFF94_PARTIAL_CHARGES>
30
1 -0.19
10 0.01
14 0.14
15 -0.18
16 0.05
17 -0.11
18 -0.15
19 0.09
2 -0.19
20 0.17
21 0.05
22 0.33
23 0.19
24 -0.15
25 0.19
26 -0.15
27 0.19
3 -0.19
37 0.15
38 0.15
39 0.15
4 -0.28
40 0.15
41 0.15
42 0.15
5 0.33
6 -0.34
7 -0.34
8 -0.57
9 0.18

> <PUBCHEM_EFFECTIVE_ROTOR_COUNT>
3

> <PUBCHEM_PHARMACOPHORE_FEATURES>
7
3 5 6 10 cation
3 5 7 14 cation
4 9 11 12 13 hydrophobe
5 4 8 19 20 22 rings
5 5 6 7 10 14 rings
6 21 23 24 25 26 27 rings
6 5 14 15 16 17 18 rings

> <PUBCHEM_HEAVY_ATOM_COUNT>
27

> <PUBCHEM_ATOM_DEF_STEREO_COUNT>
0

> <PUBCHEM_ATOM_UDEF_STEREO_COUNT>
0

> <PUBCHEM_BOND_DEF_STEREO_COUNT>
0

> <PUBCHEM_BOND_UDEF_STEREO_COUNT>
0

> <PUBCHEM_ISOTOPIC_ATOM_COUNT>
0

> <PUBCHEM_COMPONENT_COUNT>
1

> <PUBCHEM_CACTVS_TAUTO_COUNT>
1

> <PUBCHEM_CONFORMER_ID>
009893EE00000001

> <PUBCHEM_MMFF94_ENERGY>
67.1983

> <PUBCHEM_FEATURE_SELFOVERLAP>
38.107

> <PUBCHEM_SHAPE_FINGERPRINT>
10369192 42 17102304879422867933
10764073 3 16301438060798999784
11578080 2 16950861266185670052
11582403 64 16744193951025409165
12156800 1 16755441546870580181
12160290 23 17615419056335786756
12166972 35 18130210627956393359
12363563 72 18262241019285422954
12422481 6 17625862334177974945
12553582 1 18339658753978450614
13004483 165 18051390908463437790
13009979 54 17703522029415197110
13083527 12 18341599430914819096
13911987 19 17537759794320594652
14081887 123 15626227896744716651
14114206 34 17461744817257271822
14178342 30 16486986080707540699
14251757 17 17749100115033535713
14848160 33 18335426789267526314
17138139 8 16910302691359784045
17349148 13 17917990611481871007
17818456 19 17772773601429213049
1813 80 18343029856286183835
18915476 22 18116719714509065661
20028762 73 17333109533014986745
20626108 58 18271509970900301315
20645477 70 18262242251703705553
21731516 1 18192456102976398872
23559900 14 16805599312887389063
23598288 3 17393926901264530184
238 59 18189615132006656149
238918 7 16755817502338194689
392239 28 16413759774587331874
5161694 15 17240480316769342587
57527295 17 17968089820141367293
59025328 239 18268970099050974613
613672 6 18261950739694860338
7399639 24 17538852786050630681

> <PUBCHEM_SHAPE_MULTIPOLES>
508.03
8.51
3.33
2.53
3.79
1.21
-0.86
-6.66
0.72
-4.01
1.12
1.85
-0.04
-1.68

> <PUBCHEM_SHAPE_SELFOVERLAP>
1131.862

> <PUBCHEM_SHAPE_VOLUME>
277.2

> <PUBCHEM_COORDINATE_TYPE>
2
5
10

$$$$
