44570599
  -OEChem-10062122023D

 45 47  0     0  0  0  0  0  0999 V2000
   -8.7967    2.8086   -1.0103 I   0  0  0  0  0  0  0  0  0  0  0  0
   -2.8479    1.7266    0.8453 F   0  0  0  0  0  0  0  0  0  0  0  0
   -0.1867    2.2570    0.8577 F   0  0  0  0  0  0  0  0  0  0  0  0
   -6.2785   -1.2421    1.4830 F   0  0  0  0  0  0  0  0  0  0  0  0
    6.4521    0.7870    0.1502 O   0  0  0  0  0  0  0  0  0  0  0  0
   -1.0517   -3.8444    0.0244 O   0  0  0  0  0  0  0  0  0  0  0  0
   -3.0274   -3.1947   -0.8928 O   0  0  0  0  0  0  0  0  0  0  0  0
    7.9223    3.2700   -0.6831 O   0  0  0  0  0  0  0  0  0  0  0  0
    4.7563   -2.2623   -0.4886 O   0  0  0  0  0  0  0  0  0  0  0  0
   -3.8213   -0.7968    0.2582 N   0  0  0  0  0  0  0  0  0  0  0  0
    2.6276   -0.6199    0.0160 N   0  0  0  0  0  0  0  0  0  0  0  0
    3.9078   -0.1814    0.0671 N   0  0  0  0  0  0  0  0  0  0  0  0
   -2.4322   -0.5388    0.2620 C   0  0  0  0  0  0  0  0  0  0  0  0
   -1.5177   -1.5505   -0.0315 C   0  0  0  0  0  0  0  0  0  0  0  0
    0.3035    0.0072    0.2753 C   0  0  0  0  0  0  0  0  0  0  0  0
   -1.9788    0.7457    0.5622 C   0  0  0  0  0  0  0  0  0  0  0  0
   -0.1499   -1.2775   -0.0248 C   0  0  0  0  0  0  0  0  0  0  0  0
   -4.9381    0.0101   -0.0257 C   0  0  0  0  0  0  0  0  0  0  0  0
   -0.6110    1.0187    0.5688 C   0  0  0  0  0  0  0  0  0  0  0  0
   -6.1582   -0.2377    0.6032 C   0  0  0  0  0  0  0  0  0  0  0  0
   -4.8239    1.0592   -0.9379 C   0  0  0  0  0  0  0  0  0  0  0  0
    1.7305    0.2878    0.2821 C   0  0  0  0  0  0  0  0  0  0  0  0
   -1.9595   -2.9026   -0.3487 C   0  0  0  0  0  0  0  0  0  0  0  0
   -7.2642    0.5636    0.3200 C   0  0  0  0  0  0  0  0  0  0  0  0
   -5.9300    1.8606   -1.2211 C   0  0  0  0  0  0  0  0  0  0  0  0
    6.3029   -0.5295   -0.1516 C   0  0  0  0  0  0  0  0  0  0  0  0
    7.7871    1.0406    0.1341 C   0  0  0  0  0  0  0  0  0  0  0  0
   -7.1501    1.6127   -0.5921 C   0  0  0  0  0  0  0  0  0  0  0  0
    7.5281   -1.1193   -0.3604 C   0  0  0  0  0  0  0  0  0  0  0  0
    8.4920   -0.0997   -0.1746 C   0  0  0  0  0  0  0  0  0  0  0  0
    4.9235   -1.0794   -0.2021 C   0  0  0  0  0  0  0  0  0  0  0  0
    8.1902    2.4214    0.4358 C   0  0  0  0  0  0  0  0  0  0  0  0
   -4.0658   -1.7362    0.5579 H   0  0  0  0  0  0  0  0  0  0  0  0
    0.5648   -2.0600   -0.2679 H   0  0  0  0  0  0  0  0  0  0  0  0
   -3.8946    1.2589   -1.4644 H   0  0  0  0  0  0  0  0  0  0  0  0
    2.0341    1.3227    0.5263 H   0  0  0  0  0  0  0  0  0  0  0  0
   -8.2051    0.3534    0.8220 H   0  0  0  0  0  0  0  0  0  0  0  0
   -5.8210    2.6694   -1.9392 H   0  0  0  0  0  0  0  0  0  0  0  0
    7.7091   -2.1540   -0.6145 H   0  0  0  0  0  0  0  0  0  0  0  0
    9.5659   -0.1877   -0.2566 H   0  0  0  0  0  0  0  0  0  0  0  0
    7.6380    2.8055    1.2994 H   0  0  0  0  0  0  0  0  0  0  0  0
    9.2608    2.4762    0.6571 H   0  0  0  0  0  0  0  0  0  0  0  0
    4.0782    0.7931    0.2960 H   0  0  0  0  0  0  0  0  0  0  0  0
   -1.3562   -4.7513   -0.1929 H   0  0  0  0  0  0  0  0  0  0  0  0
    8.2040    4.1663   -0.4322 H   0  0  0  0  0  0  0  0  0  0  0  0
  1 28  1  0  0  0  0
  2 16  1  0  0  0  0
  3 19  1  0  0  0  0
  4 20  1  0  0  0  0
  5 26  1  0  0  0  0
  5 27  1  0  0  0  0
  6 23  1  0  0  0  0
  6 44  1  0  0  0  0
  7 23  2  0  0  0  0
  8 32  1  0  0  0  0
  8 45  1  0  0  0  0
  9 31  2  0  0  0  0
 10 13  1  0  0  0  0
 10 18  1  0  0  0  0
 10 33  1  0  0  0  0
 11 12  1  0  0  0  0
 11 22  2  0  0  0  0
 12 31  1  0  0  0  0
 12 43  1  0  0  0  0
 13 14  2  0  0  0  0
 13 16  1  0  0  0  0
 14 17  1  0  0  0  0
 14 23  1  0  0  0  0
 15 17  2  0  0  0  0
 15 19  1  0  0  0  0
 15 22  1  0  0  0  0
 16 19  2  0  0  0  0
 17 34  1  0  0  0  0
 18 20  2  0  0  0  0
 18 21  1  0  0  0  0
 20 24  1  0  0  0  0
 21 25  2  0  0  0  0
 21 35  1  0  0  0  0
 22 36  1  0  0  0  0
 24 28  2  0  0  0  0
 24 37  1  0  0  0  0
 25 28  1  0  0  0  0
 25 38  1  0  0  0  0
 26 29  2  0  0  0  0
 26 31  1  0  0  0  0
 27 30  2  0  0  0  0
 27 32  1  0  0  0  0
 29 30  1  0  0  0  0
 29 39  1  0  0  0  0
 30 40  1  0  0  0  0
 32 41  1  0  0  0  0
 32 42  1  0  0  0  0
M  END
> <PUBCHEM_COMPOUND_CID>
44570599

> <PUBCHEM_CONFORMER_RMSD>
1

> <PUBCHEM_CONFORMER_DIVERSEORDER>
2
37
43
22
18
38
10
42
47
49
19
17
40
46
39
26
48
31
30
29
5
45
24
9
35
33
36
16
25
21
44
8
13
20
50
14
32
41
34
7
28
27
3
23
12
6
15
1
4
11

> <PUBCHEM_MMFF94_PARTIAL_CHARGES>
43
1 -0.08
10 -0.6
11 -0.51
12 -0.37
13 0.1
14 0.09
15 0.09
16 0.19
17 -0.15
18 0.1
19 0.19
2 -0.19
20 0.19
21 -0.15
22 0.3
23 0.63
24 -0.15
25 -0.15
26 0.05
27 -0.04
28 0.08
29 -0.15
3 -0.19
30 -0.15
31 0.71
32 0.46
33 0.4
34 0.15
35 0.15
36 0.06
37 0.15
38 0.15
39 0.15
4 -0.19
40 0.15
43 0.37
44 0.5
45 0.4
5 -0.28
6 -0.65
7 -0.57
8 -0.68
9 -0.57

> <PUBCHEM_EFFECTIVE_ROTOR_COUNT>
8

> <PUBCHEM_PHARMACOPHORE_FEATURES>
15
1 1 hydrophobe
1 10 cation
1 10 donor
1 11 acceptor
1 12 donor
1 5 acceptor
1 6 acceptor
1 7 acceptor
1 8 acceptor
1 8 donor
1 9 acceptor
3 6 7 23 anion
5 5 26 27 29 30 rings
6 13 14 15 16 17 19 rings
6 18 20 21 24 25 28 rings

> <PUBCHEM_HEAVY_ATOM_COUNT>
32

> <PUBCHEM_ATOM_DEF_STEREO_COUNT>
0

> <PUBCHEM_ATOM_UDEF_STEREO_COUNT>
0

> <PUBCHEM_BOND_DEF_STEREO_COUNT>
1

> <PUBCHEM_BOND_UDEF_STEREO_COUNT>
0

> <PUBCHEM_ISOTOPIC_ATOM_COUNT>
0

> <PUBCHEM_COMPONENT_COUNT>
1

> <PUBCHEM_CACTVS_TAUTO_COUNT>
11

> <PUBCHEM_CONFORMER_ID>
02A817E700000002

> <PUBCHEM_MMFF94_ENERGY>
83.003

> <PUBCHEM_FEATURE_SELFOVERLAP>
76.187

> <PUBCHEM_SHAPE_FINGERPRINT>
10165383 225 18337950100873220045
10369192 42 18261669282308832693
10835480 77 18343581867865120664
11007060 377 18342748394310329442
11135609 187 18339641144723202819
11315181 36 17561367305068405011
11456790 92 13479132385118611468
11578821 258 18335703875110570436
12838862 33 18341599396122297698
14344974 52 18335134303097429893
15183329 4 17989202620742840059
15361156 5 17988638648755721516
15849732 13 18186523189413707863
16087824 20 18338797798331762369
19315958 150 18412267216443236526
21927370 108 9727351381550913031
23559900 14 18130498747368544344
23576562 1 18337380665197591197
249057 3 18408604772927635108
335352 9 18343579647161248423
34797466 226 17775013388772661076
3633792 109 18341050722566510080
4073 2 18262241140267681226
44280117 145 18336265751980563151
444735 82 18187088395148827340
4625314 4 18341615941254187310
504579 68 18342466946153280060
5265222 85 18410290336958543371
636775 72 18262235518124258021
6669772 16 18130230350647222623
7226269 152 18273215287865839675

> <PUBCHEM_SHAPE_MULTIPOLES>
604.37
29.3
3.31
0.92
29.01
0.87
0.01
-22.38
4.48
-0.5
0.69
-1.13
-0.16
1.8

> <PUBCHEM_SHAPE_SELFOVERLAP>
1295.634

> <PUBCHEM_SHAPE_VOLUME>
338.1

> <PUBCHEM_COORDINATE_TYPE>
2
5
10

$$$$
