44328912
  -OEChem-10062122053D

 77 84  0     0  0  0  0  0  0999 V2000
   -2.6033    4.5266   -0.1398 O   0  0  0  0  0  0  0  0  0  0  0  0
   -0.8479   -4.9936   -0.5237 O   0  0  0  0  0  0  0  0  0  0  0  0
    5.3992   -1.8398   -2.0768 O   0  0  0  0  0  0  0  0  0  0  0  0
    3.4890    2.9210    1.7315 O   0  0  0  0  0  0  0  0  0  0  0  0
    3.7596    4.4967    0.0753 O   0  0  0  0  0  0  0  0  0  0  0  0
   -2.3675   -1.8947    1.1690 N   0  0  0  0  0  0  0  0  0  0  0  0
   -4.1028   -0.7211   -0.6714 N   0  0  0  0  0  0  0  0  0  0  0  0
   -0.9969    3.9640    1.4760 N   0  0  0  0  0  0  0  0  0  0  0  0
   -0.3633   -2.7488   -1.0227 N   0  0  0  0  0  0  0  0  0  0  0  0
    3.1643   -3.4083   -1.0589 N   0  0  0  0  0  0  0  0  0  0  0  0
    5.1224    2.2849   -1.3975 N   0  0  0  0  0  0  0  0  0  0  0  0
   -2.3570   -0.5591    0.9530 C   0  0  0  0  0  0  0  0  0  0  0  0
   -1.4695    0.3272    1.6429 C   0  0  0  0  0  0  0  0  0  0  0  0
   -1.3687    1.7112    1.5043 C   0  0  0  0  0  0  0  0  0  0  0  0
   -3.2258    0.0298    0.0313 C   0  0  0  0  0  0  0  0  0  0  0  0
   -3.1269    1.4530   -0.1157 C   0  0  0  0  0  0  0  0  0  0  0  0
   -2.2456    2.2836    0.5775 C   0  0  0  0  0  0  0  0  0  0  0  0
   -0.8209   -0.7236    2.4343 C   0  0  0  0  0  0  0  0  0  0  0  0
   -1.3728   -2.0114    2.1299 C   0  0  0  0  0  0  0  0  0  0  0  0
   -0.5174    2.7621    2.1328 C   0  0  0  0  0  0  0  0  0  0  0  0
   -4.1852    1.5500   -1.1328 C   0  0  0  0  0  0  0  0  0  0  0  0
   -3.1292   -2.9949    0.6357 C   0  0  0  0  0  0  0  0  0  0  0  0
   -4.7311    0.2553   -1.4299 C   0  0  0  0  0  0  0  0  0  0  0  0
   -2.0126    3.7228    0.5550 C   0  0  0  0  0  0  0  0  0  0  0  0
    0.2110   -0.6623    3.4005 C   0  0  0  0  0  0  0  0  0  0  0  0
   -0.9117   -3.1753    2.7626 C   0  0  0  0  0  0  0  0  0  0  0  0
   -2.6557   -3.4478   -0.7467 C   0  0  0  0  0  0  0  0  0  0  0  0
   -4.7288    2.6542   -1.8329 C   0  0  0  0  0  0  0  0  0  0  0  0
   -5.7578    0.0840   -2.3711 C   0  0  0  0  0  0  0  0  0  0  0  0
    0.6628   -1.8290    4.0250 C   0  0  0  0  0  0  0  0  0  0  0  0
    0.1090   -3.0643    3.7096 C   0  0  0  0  0  0  0  0  0  0  0  0
   -5.7526    2.4722   -2.7690 C   0  0  0  0  0  0  0  0  0  0  0  0
   -6.2579    1.2060   -3.0325 C   0  0  0  0  0  0  0  0  0  0  0  0
   -1.1844   -3.8322   -0.7373 C   0  0  0  0  0  0  0  0  0  0  0  0
    1.0488   -2.7333   -1.0999 C   0  0  0  0  0  0  0  0  0  0  0  0
    1.8822   -1.6255   -1.3914 C   0  0  0  0  0  0  0  0  0  0  0  0
    1.8678   -3.8225   -0.8986 C   0  0  0  0  0  0  0  0  0  0  0  0
    3.1851   -2.0712   -1.3595 C   0  0  0  0  0  0  0  0  0  0  0  0
    4.3739   -1.3094   -1.5927 C   0  0  0  0  0  0  0  0  0  0  0  0
    4.3223   -4.2647   -0.9272 C   0  0  0  0  0  0  0  0  0  0  0  0
    4.4850    0.1606   -1.2811 C   0  0  0  0  0  0  0  0  0  0  0  0
    5.2867    1.0481   -1.9646 C   0  0  0  0  0  0  0  0  0  0  0  0
    3.8154    0.8896   -0.2675 C   0  0  0  0  0  0  0  0  0  0  0  0
    4.2281    2.2002   -0.3624 C   0  0  0  0  0  0  0  0  0  0  0  0
    5.7969    3.4862   -1.8376 C   0  0  0  0  0  0  0  0  0  0  0  0
    3.8204    3.3044    0.4512 C   0  0  0  0  0  0  0  0  0  0  0  0
    3.0638    3.9392    2.6436 C   0  0  0  0  0  0  0  0  0  0  0  0
   -0.6853    2.8504    3.2086 H   0  0  0  0  0  0  0  0  0  0  0  0
    0.5396    2.6243    1.8985 H   0  0  0  0  0  0  0  0  0  0  0  0
   -4.1994   -2.7888    0.7193 H   0  0  0  0  0  0  0  0  0  0  0  0
   -3.0082   -3.8458    1.3152 H   0  0  0  0  0  0  0  0  0  0  0  0
   -4.3333   -1.6929   -0.7013 H   0  0  0  0  0  0  0  0  0  0  0  0
   -0.6276    4.8899    1.6675 H   0  0  0  0  0  0  0  0  0  0  0  0
    0.6608    0.2917    3.6632 H   0  0  0  0  0  0  0  0  0  0  0  0
   -1.3147   -4.1569    2.5369 H   0  0  0  0  0  0  0  0  0  0  0  0
   -3.2302   -4.3298   -1.0544 H   0  0  0  0  0  0  0  0  0  0  0  0
   -2.8025   -2.7015   -1.5319 H   0  0  0  0  0  0  0  0  0  0  0  0
   -4.3614    3.6596   -1.6554 H   0  0  0  0  0  0  0  0  0  0  0  0
   -6.1592   -0.9024   -2.5840 H   0  0  0  0  0  0  0  0  0  0  0  0
    1.4568   -1.7672    4.7645 H   0  0  0  0  0  0  0  0  0  0  0  0
    0.4766   -3.9592    4.2054 H   0  0  0  0  0  0  0  0  0  0  0  0
   -6.1556    3.3336   -3.2951 H   0  0  0  0  0  0  0  0  0  0  0  0
   -7.0533    1.0855   -3.7634 H   0  0  0  0  0  0  0  0  0  0  0  0
   -0.7951   -1.8453   -1.2016 H   0  0  0  0  0  0  0  0  0  0  0  0
    1.5552   -0.6173   -1.6081 H   0  0  0  0  0  0  0  0  0  0  0  0
    1.6517   -4.8539   -0.6561 H   0  0  0  0  0  0  0  0  0  0  0  0
    4.7595   -4.4111   -1.9177 H   0  0  0  0  0  0  0  0  0  0  0  0
    5.0344   -3.7952   -0.2439 H   0  0  0  0  0  0  0  0  0  0  0  0
    4.0142   -5.2299   -0.5163 H   0  0  0  0  0  0  0  0  0  0  0  0
    5.9544    0.9022   -2.8037 H   0  0  0  0  0  0  0  0  0  0  0  0
    3.1109    0.5009    0.4560 H   0  0  0  0  0  0  0  0  0  0  0  0
    5.0573    4.1520   -2.2889 H   0  0  0  0  0  0  0  0  0  0  0  0
    6.2773    3.9565   -0.9759 H   0  0  0  0  0  0  0  0  0  0  0  0
    6.5578    3.2253   -2.5779 H   0  0  0  0  0  0  0  0  0  0  0  0
    2.6912    3.4523    3.5486 H   0  0  0  0  0  0  0  0  0  0  0  0
    2.2573    4.5362    2.2077 H   0  0  0  0  0  0  0  0  0  0  0  0
    3.9133    4.5758    2.9065 H   0  0  0  0  0  0  0  0  0  0  0  0
  1 24  2  0  0  0  0
  2 34  2  0  0  0  0
  3 39  2  0  0  0  0
  4 46  1  0  0  0  0
  4 47  1  0  0  0  0
  5 46  2  0  0  0  0
  6 12  1  0  0  0  0
  6 19  1  0  0  0  0
  6 22  1  0  0  0  0
  7 15  1  0  0  0  0
  7 23  1  0  0  0  0
  7 52  1  0  0  0  0
  8 20  1  0  0  0  0
  8 24  1  0  0  0  0
  8 53  1  0  0  0  0
  9 34  1  0  0  0  0
  9 35  1  0  0  0  0
  9 64  1  0  0  0  0
 10 37  1  0  0  0  0
 10 38  1  0  0  0  0
 10 40  1  0  0  0  0
 11 42  1  0  0  0  0
 11 44  1  0  0  0  0
 11 45  1  0  0  0  0
 12 13  1  0  0  0  0
 12 15  2  0  0  0  0
 13 14  2  0  0  0  0
 13 18  1  0  0  0  0
 14 17  1  0  0  0  0
 14 20  1  0  0  0  0
 15 16  1  0  0  0  0
 16 17  2  0  0  0  0
 16 21  1  0  0  0  0
 17 24  1  0  0  0  0
 18 19  1  0  0  0  0
 18 25  2  0  0  0  0
 19 26  2  0  0  0  0
 20 48  1  0  0  0  0
 20 49  1  0  0  0  0
 21 23  1  0  0  0  0
 21 28  2  0  0  0  0
 22 27  1  0  0  0  0
 22 50  1  0  0  0  0
 22 51  1  0  0  0  0
 23 29  2  0  0  0  0
 25 30  1  0  0  0  0
 25 54  1  0  0  0  0
 26 31  1  0  0  0  0
 26 55  1  0  0  0  0
 27 34  1  0  0  0  0
 27 56  1  0  0  0  0
 27 57  1  0  0  0  0
 28 32  1  0  0  0  0
 28 58  1  0  0  0  0
 29 33  1  0  0  0  0
 29 59  1  0  0  0  0
 30 31  2  0  0  0  0
 30 60  1  0  0  0  0
 31 61  1  0  0  0  0
 32 33  2  0  0  0  0
 32 62  1  0  0  0  0
 33 63  1  0  0  0  0
 35 36  1  0  0  0  0
 35 37  2  0  0  0  0
 36 38  2  0  0  0  0
 36 65  1  0  0  0  0
 37 66  1  0  0  0  0
 38 39  1  0  0  0  0
 39 41  1  0  0  0  0
 40 67  1  0  0  0  0
 40 68  1  0  0  0  0
 40 69  1  0  0  0  0
 41 42  2  0  0  0  0
 41 43  1  0  0  0  0
 42 70  1  0  0  0  0
 43 44  2  0  0  0  0
 43 71  1  0  0  0  0
 44 46  1  0  0  0  0
 45 72  1  0  0  0  0
 45 73  1  0  0  0  0
 45 74  1  0  0  0  0
 47 75  1  0  0  0  0
 47 76  1  0  0  0  0
 47 77  1  0  0  0  0
M  END
> <PUBCHEM_COMPOUND_CID>
44328912

> <PUBCHEM_CONFORMER_RMSD>
1.2

> <PUBCHEM_CONFORMER_DIVERSEORDER>
1
45
124
13
20
16
147
142
151
15
99
130
23
54
137
157
125
133
77
6
83
73
145
19
68
64
105
52
127
59
94
80
111
109
9
153
46
81
33
87
89
136
107
31
117
27
115
128
132
66
24
21
103
41
141
53
72
2
50
60
67
150
70
100
17
47
102
144
69
35
56
116
95
58
118
86
135
120
110
98
34
143
74
11
106
121
3
122
140
97
32
104
40
48
134
12
96
71
90
88
44
113
29
155
28
30
84
25
129
38
138
76
101
123
149
139
112
114
156
91
108
148
4
63
7
43
62
152
42
146
26
14
37
57
55
92
126
36
93
79
49
85
61
82
75
65
10
51
18
5
154
131
39
22
119
78
8

> <PUBCHEM_MMFF94_PARTIAL_CHARGES>
60
1 -0.57
10 0.05
11 0.05
12 -0.05
13 -0.01
14 -0.14
15 -0.05
16 -0.01
17 0.09
19 -0.15
2 -0.57
20 0.44
22 0.26
23 -0.15
24 0.54
25 -0.15
26 -0.15
27 0.06
28 -0.15
29 -0.15
3 -0.57
30 -0.15
31 -0.15
32 -0.15
33 -0.15
34 0.57
35 0.06
36 -0.15
37 -0.3
38 -0.24
39 0.74
4 -0.43
40 0.26
41 -0.09
42 -0.3
43 -0.15
44 -0.24
45 0.26
46 0.81
47 0.28
5 -0.57
52 0.27
53 0.37
54 0.15
55 0.15
58 0.15
59 0.15
6 -0.04
60 0.15
61 0.15
62 0.15
63 0.15
64 0.37
65 0.15
66 0.15
7 -0.05
70 0.15
71 0.15
8 -0.73
9 -0.49

> <PUBCHEM_EFFECTIVE_ROTOR_COUNT>
9.4

> <PUBCHEM_PHARMACOPHORE_FEATURES>
19
1 1 acceptor
1 10 cation
1 11 cation
1 2 acceptor
1 3 acceptor
1 5 acceptor
1 6 cation
1 7 cation
1 7 donor
1 8 donor
1 9 donor
5 10 35 36 37 38 rings
5 11 41 42 43 44 rings
5 6 12 13 18 19 rings
5 7 15 16 21 23 rings
5 8 14 17 20 24 rings
6 12 13 14 15 16 17 rings
6 18 19 25 26 30 31 rings
6 21 23 28 29 32 33 rings

> <PUBCHEM_HEAVY_ATOM_COUNT>
47

> <PUBCHEM_ATOM_DEF_STEREO_COUNT>
0

> <PUBCHEM_ATOM_UDEF_STEREO_COUNT>
0

> <PUBCHEM_BOND_DEF_STEREO_COUNT>
0

> <PUBCHEM_BOND_UDEF_STEREO_COUNT>
0

> <PUBCHEM_ISOTOPIC_ATOM_COUNT>
0

> <PUBCHEM_COMPONENT_COUNT>
1

> <PUBCHEM_CACTVS_TAUTO_COUNT>
14

> <PUBCHEM_CONFORMER_ID>
02A467D000000001

> <PUBCHEM_MMFF94_ENERGY>
151.5828

> <PUBCHEM_FEATURE_SELFOVERLAP>
96.893

> <PUBCHEM_SHAPE_FINGERPRINT>
11434127 23 16882464118746071904
12156800 1 17625500800425569887
13383661 66 16333827688803895431
14918310 93 17765716110846931899
15721738 15 18341601594987856548
16067690 210 17465929871818398776
20764821 26 18055929920433799720
354706 35 18201723972533949468
376196 1 18114469950610547551
4015057 19 18267317443080586678
469060 322 17693959783247923178
6086070 43 18340778053032970974
6371009 1 18268706109097271878

> <PUBCHEM_SHAPE_MULTIPOLES>
908.01
12.23
7.3
3.73
1.6
0.02
-2.86
-9.57
13.95
4.17
-0.76
-0.62
0.87
2.98

> <PUBCHEM_SHAPE_SELFOVERLAP>
2061.409

> <PUBCHEM_SHAPE_VOLUME>
476.6

> <PUBCHEM_COORDINATE_TYPE>
2
5
10

$$$$
