49830882
  -OEChem-10052120443D

 41 44  0     0  0  0  0  0  0999 V2000
   -5.3014   -1.2269    0.1699 S   0  0  0  0  0  0  0  0  0  0  0  0
    5.9073   -0.5252    1.6740 O   0  0  0  0  0  0  0  0  0  0  0  0
    6.7781    0.4412   -0.3546 O   0  0  0  0  0  0  0  0  0  0  0  0
    0.0497    2.4107   -0.0575 O   0  0  0  0  0  0  0  0  0  0  0  0
   -5.9379   -0.7380   -1.2511 O   0  0  0  0  0  0  0  0  0  0  0  0
   -5.4014   -2.6752    0.2117 O   0  0  0  0  0  0  0  0  0  0  0  0
   -5.8592   -0.4057    1.2286 O   0  0  0  0  0  0  0  0  0  0  0  0
    0.5495   -0.1751   -0.2050 N   0  0  0  0  0  0  0  0  0  0  0  0
   -1.7391    0.7549   -0.0009 C   0  0  0  0  0  0  0  0  0  0  0  0
   -0.8554   -0.3311   -0.1109 C   0  0  0  0  0  0  0  0  0  0  0  0
   -3.1300    0.5090    0.0880 C   0  0  0  0  0  0  0  0  0  0  0  0
   -3.5962   -0.8155    0.0642 C   0  0  0  0  0  0  0  0  0  0  0  0
    1.4419   -1.2827   -0.3168 C   0  0  0  0  0  0  0  0  0  0  0  0
    2.8680   -0.8082   -0.3620 C   0  0  0  0  0  0  0  0  0  0  0  0
   -1.3361   -1.6406   -0.1329 C   0  0  0  0  0  0  0  0  0  0  0  0
   -2.7039   -1.8824   -0.0455 C   0  0  0  0  0  0  0  0  0  0  0  0
   -1.2729    2.0793    0.0228 C   0  0  0  0  0  0  0  0  0  0  0  0
   -4.0137    1.5949    0.1980 C   0  0  0  0  0  0  0  0  0  0  0  0
    3.6766   -0.9337    0.7702 C   0  0  0  0  0  0  0  0  0  0  0  0
    4.9788   -0.4863    0.6798 C   0  0  0  0  0  0  0  0  0  0  0  0
    3.3761   -0.2442   -1.5454 C   0  0  0  0  0  0  0  0  0  0  0  0
    5.4761    0.0657   -0.4786 C   0  0  0  0  0  0  0  0  0  0  0  0
   -2.1653    3.1462    0.1327 C   0  0  0  0  0  0  0  0  0  0  0  0
   -3.5330    2.9044    0.2201 C   0  0  0  0  0  0  0  0  0  0  0  0
    4.6987    0.2008   -1.6103 C   0  0  0  0  0  0  0  0  0  0  0  0
    7.0450    0.0636    1.0114 C   0  0  0  0  0  0  0  0  0  0  0  0
    1.3283   -1.9676    0.5333 H   0  0  0  0  0  0  0  0  0  0  0  0
    1.2486   -1.8604   -1.2302 H   0  0  0  0  0  0  0  0  0  0  0  0
    0.9237    0.7655   -0.1856 H   0  0  0  0  0  0  0  0  0  0  0  0
   -0.6960   -2.5126   -0.2200 H   0  0  0  0  0  0  0  0  0  0  0  0
   -3.0349   -2.9162   -0.0701 H   0  0  0  0  0  0  0  0  0  0  0  0
   -5.0917    1.4959    0.2206 H   0  0  0  0  0  0  0  0  0  0  0  0
    3.3015   -1.3644    1.6924 H   0  0  0  0  0  0  0  0  0  0  0  0
    2.7420   -0.1492   -2.4236 H   0  0  0  0  0  0  0  0  0  0  0  0
   -1.8120    4.1741    0.1492 H   0  0  0  0  0  0  0  0  0  0  0  0
   -4.2273    3.7366    0.2942 H   0  0  0  0  0  0  0  0  0  0  0  0
    5.0942    0.6363   -2.5208 H   0  0  0  0  0  0  0  0  0  0  0  0
    7.8694   -0.6586    1.0213 H   0  0  0  0  0  0  0  0  0  0  0  0
    7.3523    0.9561    1.5685 H   0  0  0  0  0  0  0  0  0  0  0  0
    0.1514    3.3770   -0.0230 H   0  0  0  0  0  0  0  0  0  0  0  0
   -6.9205   -0.7904   -1.3128 H   0  0  0  0  0  0  0  0  0  0  0  0
  1  5  1  0  0  0  0
  1  6  2  0  0  0  0
  1  7  2  0  0  0  0
  1 12  1  0  0  0  0
  2 20  1  0  0  0  0
  2 26  1  0  0  0  0
  3 22  1  0  0  0  0
  3 26  1  0  0  0  0
  4 17  1  0  0  0  0
  4 40  1  0  0  0  0
  5 41  1  0  0  0  0
  8 10  1  0  0  0  0
  8 13  1  0  0  0  0
  8 29  1  0  0  0  0
  9 10  2  0  0  0  0
  9 11  1  0  0  0  0
  9 17  1  0  0  0  0
 10 15  1  0  0  0  0
 11 12  2  0  0  0  0
 11 18  1  0  0  0  0
 12 16  1  0  0  0  0
 13 14  1  0  0  0  0
 13 27  1  0  0  0  0
 13 28  1  0  0  0  0
 14 19  2  0  0  0  0
 14 21  1  0  0  0  0
 15 16  2  0  0  0  0
 15 30  1  0  0  0  0
 16 31  1  0  0  0  0
 17 23  2  0  0  0  0
 18 24  2  0  0  0  0
 18 32  1  0  0  0  0
 19 20  1  0  0  0  0
 19 33  1  0  0  0  0
 20 22  2  0  0  0  0
 21 25  2  0  0  0  0
 21 34  1  0  0  0  0
 22 25  1  0  0  0  0
 23 24  1  0  0  0  0
 23 35  1  0  0  0  0
 24 36  1  0  0  0  0
 25 37  1  0  0  0  0
 26 38  1  0  0  0  0
 26 39  1  0  0  0  0
M  END
> <PUBCHEM_COMPOUND_CID>
49830882

> <PUBCHEM_CONFORMER_RMSD>
0.8

> <PUBCHEM_CONFORMER_DIVERSEORDER>
1
19
4
12
6
16
8
20
17
21
3
7
14
15
9
2
18
13
5
10
11

> <PUBCHEM_MMFF94_PARTIAL_CHARGES>
35
1 1.49
10 0.1
12 -0.01
13 0.51
14 -0.14
15 -0.15
16 -0.15
17 0.08
18 -0.15
19 -0.15
2 -0.36
20 0.08
21 -0.15
22 0.08
23 -0.15
24 -0.15
25 -0.15
26 0.56
29 0.4
3 -0.36
30 0.15
31 0.15
32 0.15
33 0.15
34 0.15
35 0.15
36 0.15
37 0.15
4 -0.53
40 0.45
41 0.5
5 -0.68
6 -0.65
7 -0.65
8 -0.87

> <PUBCHEM_EFFECTIVE_ROTOR_COUNT>
4.6

> <PUBCHEM_PHARMACOPHORE_FEATURES>
13
1 2 acceptor
1 3 acceptor
1 4 donor
1 5 acceptor
1 6 acceptor
1 7 acceptor
1 8 cation
1 8 donor
4 1 5 6 7 anion
5 2 3 20 22 26 rings
6 14 19 20 21 22 25 rings
6 9 10 11 12 15 16 rings
6 9 11 17 18 23 24 rings

> <PUBCHEM_HEAVY_ATOM_COUNT>
26

> <PUBCHEM_ATOM_DEF_STEREO_COUNT>
0

> <PUBCHEM_ATOM_UDEF_STEREO_COUNT>
0

> <PUBCHEM_BOND_DEF_STEREO_COUNT>
0

> <PUBCHEM_BOND_UDEF_STEREO_COUNT>
0

> <PUBCHEM_ISOTOPIC_ATOM_COUNT>
0

> <PUBCHEM_COMPONENT_COUNT>
1

> <PUBCHEM_CACTVS_TAUTO_COUNT>
13

> <PUBCHEM_CONFORMER_ID>
02F85BE200000001

> <PUBCHEM_MMFF94_ENERGY>
86.4569

> <PUBCHEM_FEATURE_SELFOVERLAP>
66.219

> <PUBCHEM_SHAPE_FINGERPRINT>
10 15 18201991167245307178
10319926 262 18269542850789918722
10411042 1 18267022950643726523
10595046 47 18333732416764965922
10670039 82 18336279946567590262
11315181 36 18040436607011737790
12107183 9 17613147478318581650
12166972 35 17603587465053824908
12236239 1 17821727226203934002
12390115 104 18058180431477715185
12596602 18 17749105582811551866
12616971 3 17313397681719173220
12730499 353 17060341812807387790
12788726 201 18335417954820557171
12838862 33 18338793413454691169
13073987 5 18338234869367302938
13402501 40 18131627894302350016
13533116 47 17822004303566956130
13782708 43 17632027338439771294
13914758 101 16081359722607955717
14341114 328 18187086114262028232
14790565 3 17405156127963071841
15419008 47 17918274264355472728
1577012 14 18041003908521553596
16087824 20 18339360753160276413
18336668 15 18186805794162490037
19377110 9 18259990344621261850
20511986 3 17967520264749920868
21033648 29 17346585353624014162
21033650 10 18193585305997766380
21065198 48 18187362087369931994
21236236 1 18341332206597093037
21267235 1 18410582811414979871
21792934 111 18411134762722203393
23557571 272 18201170874960996820
23559900 14 18338792442100849321
283562 15 18340487773388289059
335352 9 18410571804568782871
34797466 226 17845946212206007644
350125 39 18411984675855765273
3633792 109 17313370189770914567
4015057 19 14274032085983557839
469060 322 18340222824728367697
5104073 3 18269559329877787570
57527295 17 17969761070370851623
67856867 119 18187369882377138252
7226269 152 18260546736597744571
9849439 229 17692254036765264457
9981440 41 18334582295697526531

> <PUBCHEM_SHAPE_MULTIPOLES>
498.72
16.86
2.59
1.09
17
1.72
-0.09
-3.53
2.51
-4.82
0.15
1.36
-0.12
-0.38

> <PUBCHEM_SHAPE_SELFOVERLAP>
1102.924

> <PUBCHEM_SHAPE_VOLUME>
269.7

> <PUBCHEM_COORDINATE_TYPE>
2
5
10

$$$$
