25167074
  -OEChem-10052115143D

 38 41  0     0  0  0  0  0  0999 V2000
   -2.7146   -0.0665   -0.0539 N   0  0  0  0  0  0  0  0  0  0  0  0
   -1.1535   -1.8230   -0.4514 N   0  0  0  0  0  0  0  0  0  0  0  0
   -1.3970    1.7232    0.0686 N   0  0  0  0  0  0  0  0  0  0  0  0
   -3.7939    2.0288    0.3435 N   0  0  0  0  0  0  0  0  0  0  0  0
    4.8826    0.6362   -0.3967 N   0  0  0  0  0  0  0  0  0  0  0  0
    5.2633    0.4578    0.8793 N   0  0  0  0  0  0  0  0  0  0  0  0
   -1.4355   -0.5184   -0.2411 C   0  0  0  0  0  0  0  0  0  0  0  0
   -0.6445    0.6012   -0.1614 C   0  0  0  0  0  0  0  0  0  0  0  0
    0.0916   -2.4830   -0.0576 C   0  0  0  0  0  0  0  0  0  0  0  0
    0.7861    0.6212   -0.2963 C   0  0  0  0  0  0  0  0  0  0  0  0
   -2.6502    1.3104    0.1323 C   0  0  0  0  0  0  0  0  0  0  0  0
    1.5867    0.4624    0.8417 C   0  0  0  0  0  0  0  0  0  0  0  0
    0.0516   -2.7974    1.4323 C   0  0  0  0  0  0  0  0  0  0  0  0
    0.2734   -3.7474   -0.8868 C   0  0  0  0  0  0  0  0  0  0  0  0
    2.9830    0.4842    0.6883 C   0  0  0  0  0  0  0  0  0  0  0  0
    1.3580    0.7976   -1.5577 C   0  0  0  0  0  0  0  0  0  0  0  0
    3.5262    0.6615   -0.5793 C   0  0  0  0  0  0  0  0  0  0  0  0
   -3.9070   -0.7708   -0.0365 C   0  0  0  0  0  0  0  0  0  0  0  0
    2.7462    0.8215   -1.7266 C   0  0  0  0  0  0  0  0  0  0  0  0
   -5.0552   -0.1161    0.1666 C   0  0  0  0  0  0  0  0  0  0  0  0
    4.1050    0.3659    1.5363 C   0  0  0  0  0  0  0  0  0  0  0  0
   -4.9024    1.3508    0.3566 C   0  0  0  0  0  0  0  0  0  0  0  0
    0.9637   -1.8704   -0.2790 H   0  0  0  0  0  0  0  0  0  0  0  0
   -1.9169   -2.4715   -0.6287 H   0  0  0  0  0  0  0  0  0  0  0  0
    1.1475    0.3304    1.8267 H   0  0  0  0  0  0  0  0  0  0  0  0
   -0.7856   -3.4619    1.6747 H   0  0  0  0  0  0  0  0  0  0  0  0
   -0.0684   -1.8898    2.0322 H   0  0  0  0  0  0  0  0  0  0  0  0
    0.9765   -3.2900    1.7501 H   0  0  0  0  0  0  0  0  0  0  0  0
   -0.5499   -4.4530   -0.7277 H   0  0  0  0  0  0  0  0  0  0  0  0
    0.3020   -3.5104   -1.9561 H   0  0  0  0  0  0  0  0  0  0  0  0
    1.2087   -4.2544   -0.6273 H   0  0  0  0  0  0  0  0  0  0  0  0
    0.7272    0.9199   -2.4364 H   0  0  0  0  0  0  0  0  0  0  0  0
   -3.8871   -1.8429   -0.1860 H   0  0  0  0  0  0  0  0  0  0  0  0
    3.1922    0.9580   -2.7054 H   0  0  0  0  0  0  0  0  0  0  0  0
   -6.0299   -0.5801    0.1977 H   0  0  0  0  0  0  0  0  0  0  0  0
    4.1248    0.2161    2.6066 H   0  0  0  0  0  0  0  0  0  0  0  0
    5.6030    0.7346   -1.1010 H   0  0  0  0  0  0  0  0  0  0  0  0
   -5.8470    1.8940    0.5242 H   0  0  0  0  0  0  0  0  0  0  0  0
  1  7  1  0  0  0  0
  1 11  1  0  0  0  0
  1 18  1  0  0  0  0
  2  7  1  0  0  0  0
  2  9  1  0  0  0  0
  2 24  1  0  0  0  0
  3  8  1  0  0  0  0
  3 11  2  0  0  0  0
  4 11  1  0  0  0  0
  4 22  2  0  0  0  0
  5  6  1  0  0  0  0
  5 17  1  0  0  0  0
  5 37  1  0  0  0  0
  6 21  2  0  0  0  0
  7  8  2  0  0  0  0
  8 10  1  0  0  0  0
  9 13  1  0  0  0  0
  9 14  1  0  0  0  0
  9 23  1  0  0  0  0
 10 12  2  0  0  0  0
 10 16  1  0  0  0  0
 12 15  1  0  0  0  0
 12 25  1  0  0  0  0
 13 26  1  0  0  0  0
 13 27  1  0  0  0  0
 13 28  1  0  0  0  0
 14 29  1  0  0  0  0
 14 30  1  0  0  0  0
 14 31  1  0  0  0  0
 15 17  2  0  0  0  0
 15 21  1  0  0  0  0
 16 19  2  0  0  0  0
 16 32  1  0  0  0  0
 17 19  1  0  0  0  0
 18 20  2  0  0  0  0
 18 33  1  0  0  0  0
 19 34  1  0  0  0  0
 20 22  1  0  0  0  0
 20 35  1  0  0  0  0
 21 36  1  0  0  0  0
 22 38  1  0  0  0  0
M  END
> <PUBCHEM_COMPOUND_CID>
25167074

> <PUBCHEM_CONFORMER_RMSD>
0.6

> <PUBCHEM_CONFORMER_DIVERSEORDER>
2
17
14
15
11
1
12
16
5
8
13
19
10
9
3
18
7
6
4

> <PUBCHEM_MMFF94_PARTIAL_CHARGES>
28
1 0.33
10 0.05
11 0.31
12 -0.15
16 -0.15
17 -0.15
18 -0.18
19 -0.15
2 -0.85
20 -0.14
21 0.14
22 0.38
24 0.4
25 0.15
3 -0.57
32 0.15
33 0.15
34 0.15
35 0.15
36 0.15
37 0.27
38 0.06
4 -0.58
5 0.3
6 -0.71
7 -0.07
8 0.17
9 0.37

> <PUBCHEM_EFFECTIVE_ROTOR_COUNT>
3

> <PUBCHEM_PHARMACOPHORE_FEATURES>
11
1 2 cation
1 2 donor
1 4 acceptor
1 5 donor
1 6 acceptor
3 9 13 14 hydrophobe
4 1 3 4 11 cation
5 1 3 7 8 11 rings
5 5 6 15 17 21 rings
6 1 4 11 18 20 22 rings
6 10 12 15 16 17 19 rings

> <PUBCHEM_HEAVY_ATOM_COUNT>
22

> <PUBCHEM_ATOM_DEF_STEREO_COUNT>
0

> <PUBCHEM_ATOM_UDEF_STEREO_COUNT>
0

> <PUBCHEM_BOND_DEF_STEREO_COUNT>
0

> <PUBCHEM_BOND_UDEF_STEREO_COUNT>
0

> <PUBCHEM_ISOTOPIC_ATOM_COUNT>
0

> <PUBCHEM_COMPONENT_COUNT>
1

> <PUBCHEM_CACTVS_TAUTO_COUNT>
2

> <PUBCHEM_CONFORMER_ID>
018004E200000002

> <PUBCHEM_MMFF94_ENERGY>
52.4696

> <PUBCHEM_FEATURE_SELFOVERLAP>
56.046

> <PUBCHEM_SHAPE_FINGERPRINT>
10382601 240 18043250145571959843
11963148 33 18335700611542028307
12236239 1 17894912944599099908
12422481 6 17973421244914392338
12592029 89 18113340786385453147
12633257 1 18270664464071259232
12788726 201 17684102648298333738
12839892 36 18335135397601914235
13140716 1 18195533825475689857
14178342 30 18338525131799771157
14466204 15 18340203003449573697
15042514 8 18194403518505847823
15375358 24 17561083626752521572
15536298 74 18270403772014038647
16752209 62 18265335195092846263
1813 80 17023465240646423342
200 152 16732697259807997637
20028762 73 17914618500084300335
20197701 30 18410568479030082754
20567600 347 18411985732470552087
20600515 1 18342741861570925021
20681677 155 18334579096684770976
20691752 17 17605005723236961999
212916 134 18272078401279491264
21524375 3 18335139803984976655
22182313 1 17680709220897704805
23366157 5 17971763168331370611
23402539 116 18273207625375288333
23419403 2 17246376804255857494
23559900 14 18130518474438210452
23598288 3 17828501476167171110
23728640 28 18337670948646063538
2916195 48 17846490452469764272
34934 24 18272086055507435045
352729 6 18191887801499020951
43471831 8 18409729517567454619
465052 167 17385733525413455763
469060 322 18269015153865039265
474229 33 18410293640252474683
5104073 3 18194413195662602985
5265222 85 18269566095374074494
5385378 56 18198351667234231635
59755656 215 18340491049641312111
6138700 20 18194410987738877542
633830 44 17989201538511587573
7364860 26 18126567808436523735
9862522 239 18115007616043466101

> <PUBCHEM_SHAPE_MULTIPOLES>
422.86
9.51
2.73
1.25
0.71
3.58
-0.08
-5
1.94
1.04
-0.17
-1.34
0.11
-0.4

> <PUBCHEM_SHAPE_SELFOVERLAP>
943.221

> <PUBCHEM_SHAPE_VOLUME>
225.5

> <PUBCHEM_COORDINATE_TYPE>
2
5
10

$$$$
