23536094
  -OEChem-10062121533D

 55 58  0     0  0  0  0  0  0999 V2000
   -1.9729   -1.7693   -1.7299 O   0  0  0  0  0  0  0  0  0  0  0  0
   -5.4274    0.2006    0.9389 O   0  0  0  0  0  0  0  0  0  0  0  0
   -4.4900   -1.9146   -0.5834 O   0  0  0  0  0  0  0  0  0  0  0  0
    3.0138    0.8455   -0.0177 N   0  0  0  0  0  0  0  0  0  0  0  0
    0.8273    1.6965    0.0707 N   0  0  0  0  0  0  0  0  0  0  0  0
    2.7191    3.1494    0.3315 N   0  0  0  0  0  0  0  0  0  0  0  0
   -1.3337    2.6010    0.1692 N   0  0  0  0  0  0  0  0  0  0  0  0
    0.4955    4.0462    0.4268 N   0  0  0  0  0  0  0  0  0  0  0  0
    4.7615    0.1243   -1.5892 C   0  0  0  0  0  0  0  0  0  0  0  0
    4.8416   -1.2533   -0.9524 C   0  0  0  0  0  0  0  0  0  0  0  0
    4.3542    1.1555   -0.5446 C   0  0  0  0  0  0  0  0  0  0  0  0
    3.6242   -1.5459   -0.1127 C   0  0  0  0  0  0  0  0  0  0  0  0
    2.7724   -0.5088    0.3362 C   0  0  0  0  0  0  0  0  0  0  0  0
    3.3809   -2.8803    0.2567 C   0  0  0  0  0  0  0  0  0  0  0  0
    1.6908   -0.8724    1.1634 C   0  0  0  0  0  0  0  0  0  0  0  0
    2.2950   -3.2077    1.0617 C   0  0  0  0  0  0  0  0  0  0  0  0
    2.1440    1.9519    0.1354 C   0  0  0  0  0  0  0  0  0  0  0  0
    1.4517   -2.2033    1.5171 C   0  0  0  0  0  0  0  0  0  0  0  0
    2.0438   -4.6272    1.4412 C   0  0  0  0  0  0  0  0  0  0  0  0
    0.0642    2.7907    0.2247 C   0  0  0  0  0  0  0  0  0  0  0  0
    1.8336    4.1495    0.4686 C   0  0  0  0  0  0  0  0  0  0  0  0
   -2.1329    1.4585   -0.0224 C   0  0  0  0  0  0  0  0  0  0  0  0
   -3.4002    1.3889    0.5564 C   0  0  0  0  0  0  0  0  0  0  0  0
   -1.6576    0.3954   -0.7901 C   0  0  0  0  0  0  0  0  0  0  0  0
   -2.4494   -0.7374   -0.9789 C   0  0  0  0  0  0  0  0  0  0  0  0
   -4.1920    0.2562    0.3676 C   0  0  0  0  0  0  0  0  0  0  0  0
   -3.7166   -0.8069   -0.4001 C   0  0  0  0  0  0  0  0  0  0  0  0
   -0.6682   -1.6179   -2.2856 C   0  0  0  0  0  0  0  0  0  0  0  0
   -6.5201    0.6998    0.1700 C   0  0  0  0  0  0  0  0  0  0  0  0
   -4.3526   -2.9648    0.3710 C   0  0  0  0  0  0  0  0  0  0  0  0
    5.7308    0.3872   -2.0274 H   0  0  0  0  0  0  0  0  0  0  0  0
    4.0271    0.1160   -2.4053 H   0  0  0  0  0  0  0  0  0  0  0  0
    4.9487   -2.0063   -1.7421 H   0  0  0  0  0  0  0  0  0  0  0  0
    5.7278   -1.3127   -0.3086 H   0  0  0  0  0  0  0  0  0  0  0  0
    5.0777    1.1842    0.2804 H   0  0  0  0  0  0  0  0  0  0  0  0
    4.3899    2.1340   -1.0397 H   0  0  0  0  0  0  0  0  0  0  0  0
    4.0511   -3.6637   -0.0917 H   0  0  0  0  0  0  0  0  0  0  0  0
    1.0225   -0.1315    1.5916 H   0  0  0  0  0  0  0  0  0  0  0  0
    0.6052   -2.4366    2.1579 H   0  0  0  0  0  0  0  0  0  0  0  0
    1.5066   -4.6957    2.3934 H   0  0  0  0  0  0  0  0  0  0  0  0
    2.9851   -5.1736    1.5648 H   0  0  0  0  0  0  0  0  0  0  0  0
    1.4478   -5.1226    0.6683 H   0  0  0  0  0  0  0  0  0  0  0  0
    2.2401    5.1401    0.6293 H   0  0  0  0  0  0  0  0  0  0  0  0
   -1.8495    3.4370    0.4270 H   0  0  0  0  0  0  0  0  0  0  0  0
   -3.7752    2.2140    1.1575 H   0  0  0  0  0  0  0  0  0  0  0  0
   -0.6961    0.5012   -1.2733 H   0  0  0  0  0  0  0  0  0  0  0  0
   -0.6301   -0.7975   -3.0103 H   0  0  0  0  0  0  0  0  0  0  0  0
    0.0968   -1.5266   -1.5081 H   0  0  0  0  0  0  0  0  0  0  0  0
   -0.4464   -2.5371   -2.8382 H   0  0  0  0  0  0  0  0  0  0  0  0
   -6.3810    1.7635   -0.0480 H   0  0  0  0  0  0  0  0  0  0  0  0
   -6.6254    0.1356   -0.7620 H   0  0  0  0  0  0  0  0  0  0  0  0
   -7.4349    0.5796    0.7567 H   0  0  0  0  0  0  0  0  0  0  0  0
   -3.3277   -3.3491    0.3768 H   0  0  0  0  0  0  0  0  0  0  0  0
   -4.6277   -2.6150    1.3710 H   0  0  0  0  0  0  0  0  0  0  0  0
   -5.0282   -3.7762    0.0869 H   0  0  0  0  0  0  0  0  0  0  0  0
  1 25  1  0  0  0  0
  1 28  1  0  0  0  0
  2 26  1  0  0  0  0
  2 29  1  0  0  0  0
  3 27  1  0  0  0  0
  3 30  1  0  0  0  0
  4 11  1  0  0  0  0
  4 13  1  0  0  0  0
  4 17  1  0  0  0  0
  5 17  1  0  0  0  0
  5 20  2  0  0  0  0
  6 17  2  0  0  0  0
  6 21  1  0  0  0  0
  7 20  1  0  0  0  0
  7 22  1  0  0  0  0
  7 44  1  0  0  0  0
  8 20  1  0  0  0  0
  8 21  2  0  0  0  0
  9 10  1  0  0  0  0
  9 11  1  0  0  0  0
  9 31  1  0  0  0  0
  9 32  1  0  0  0  0
 10 12  1  0  0  0  0
 10 33  1  0  0  0  0
 10 34  1  0  0  0  0
 11 35  1  0  0  0  0
 11 36  1  0  0  0  0
 12 13  2  0  0  0  0
 12 14  1  0  0  0  0
 13 15  1  0  0  0  0
 14 16  2  0  0  0  0
 14 37  1  0  0  0  0
 15 18  2  0  0  0  0
 15 38  1  0  0  0  0
 16 18  1  0  0  0  0
 16 19  1  0  0  0  0
 18 39  1  0  0  0  0
 19 40  1  0  0  0  0
 19 41  1  0  0  0  0
 19 42  1  0  0  0  0
 21 43  1  0  0  0  0
 22 23  2  0  0  0  0
 22 24  1  0  0  0  0
 23 26  1  0  0  0  0
 23 45  1  0  0  0  0
 24 25  2  0  0  0  0
 24 46  1  0  0  0  0
 25 27  1  0  0  0  0
 26 27  2  0  0  0  0
 28 47  1  0  0  0  0
 28 48  1  0  0  0  0
 28 49  1  0  0  0  0
 29 50  1  0  0  0  0
 29 51  1  0  0  0  0
 29 52  1  0  0  0  0
 30 53  1  0  0  0  0
 30 54  1  0  0  0  0
 30 55  1  0  0  0  0
M  END
> <PUBCHEM_COMPOUND_CID>
23536094

> <PUBCHEM_CONFORMER_RMSD>
1

> <PUBCHEM_CONFORMER_DIVERSEORDER>
1
37
13
17
38
33
23
60
44
31
34
22
4
66
54
6
24
55
16
7
27
20
5
14
32
36
43
12
9
63
64
42
21
15
41
3
29
58
52
8
62
56
59
40
11
47
28
50
65
61
10
18
45
35
30
57
25
49
48
39
51
53
19
46
26
2

> <PUBCHEM_MMFF94_PARTIAL_CHARGES>
36
1 -0.36
10 0.14
11 0.37
12 -0.14
13 0.1
14 -0.15
15 -0.15
16 -0.14
17 0.72
18 -0.15
19 0.14
2 -0.36
20 0.72
21 0.47
22 0.1
23 -0.15
24 -0.15
25 0.08
26 0.08
27 0.08
28 0.28
29 0.28
3 -0.36
30 0.28
37 0.15
38 0.15
39 0.15
4 -0.57
43 0.15
44 0.4
45 0.15
46 0.15
5 -0.62
6 -0.62
7 -0.6
8 -0.62

> <PUBCHEM_EFFECTIVE_ROTOR_COUNT>
6.8

> <PUBCHEM_PHARMACOPHORE_FEATURES>
10
1 1 acceptor
1 2 acceptor
1 3 acceptor
1 7 donor
4 4 5 6 17 cation
4 5 7 8 20 cation
6 12 13 14 15 16 18 rings
6 22 23 24 25 26 27 rings
6 4 9 10 11 12 13 rings
6 5 6 8 17 20 21 rings

> <PUBCHEM_HEAVY_ATOM_COUNT>
30

> <PUBCHEM_ATOM_DEF_STEREO_COUNT>
0

> <PUBCHEM_ATOM_UDEF_STEREO_COUNT>
0

> <PUBCHEM_BOND_DEF_STEREO_COUNT>
0

> <PUBCHEM_BOND_UDEF_STEREO_COUNT>
0

> <PUBCHEM_ISOTOPIC_ATOM_COUNT>
0

> <PUBCHEM_COMPONENT_COUNT>
1

> <PUBCHEM_CACTVS_TAUTO_COUNT>
4

> <PUBCHEM_CONFORMER_ID>
016721DE00000001

> <PUBCHEM_MMFF94_ENERGY>
134.7103

> <PUBCHEM_FEATURE_SELFOVERLAP>
50.822

> <PUBCHEM_SHAPE_FINGERPRINT>
11421498 54 18188780440110545292
114674 6 18266734882195709136
11578080 2 17459179686725915541
12107183 9 18198915717127205161
12553582 1 18340475669526805604
12655364 131 12151132856666577937
13583140 156 18336255838826694775
13692114 37 17478317000119454352
13726171 33 17914632570317689600
14279260 333 18118402840064829386
150020 26 17125913193509800942
15403338 16 18190175694512434943
15537594 2 18411708668282238375
17809404 112 17833786630655238682
17909252 39 18200037223240201314
19319366 153 18334018293972677814
19930381 70 18335978787318307963
20715895 44 10342637474025599590
20764821 26 18046348797336237674
21133410 38 17261051320733870251
229767 44 15740764770145191802
23379529 103 17839751361589490406
23559900 14 18341045311419426665
345986 75 18130221537199673161
3737641 26 18335992956230541058
44880168 125 17130703860508844614
463206 1 18408328786813490866
57527585 21 15145231026279309206
5776283 40 18051145979944295452
7097593 13 18411974758997305229
86090 222 17679589110406642235

> <PUBCHEM_SHAPE_MULTIPOLES>
574.87
11
5.24
1.38
10.69
0.7
0.49
-3.32
0.88
-3.59
-2.12
-0.41
-0.99
-1.27

> <PUBCHEM_SHAPE_SELFOVERLAP>
1243.095

> <PUBCHEM_SHAPE_VOLUME>
311.4

> <PUBCHEM_COORDINATE_TYPE>
2
5
10

$$$$
