44557921
  -OEChem-10062121563D

 42 44  0     0  0  0  0  0  0999 V2000
   -3.5301   -0.5456    0.7968 S   0  0  0  0  0  0  0  0  0  0  0  0
   -4.3839   -1.6653    1.1452 O   0  0  0  0  0  0  0  0  0  0  0  0
   -3.2020    0.4583    1.7908 O   0  0  0  0  0  0  0  0  0  0  0  0
   -4.1477    0.2343   -0.5750 N   0  0  0  0  0  0  0  0  0  0  0  0
    4.0082    1.1676   -0.0349 N   0  0  0  0  0  0  0  0  0  0  0  0
   -0.7963   -3.0151   -0.8452 N   0  0  0  0  0  0  0  0  0  0  0  0
    5.2677   -0.6522    0.1564 N   0  0  0  0  0  0  0  0  0  0  0  0
    5.2812    1.6298    0.0393 N   0  0  0  0  0  0  0  0  0  0  0  0
    7.3364    0.4254    0.2599 N   0  0  0  0  0  0  0  0  0  0  0  0
   -4.9656    1.4691   -0.4155 C   0  0  0  0  0  0  0  0  0  0  0  0
   -5.4839    1.8808   -1.7942 C   0  0  0  0  0  0  0  0  0  0  0  0
   -6.1321    1.1524    0.5217 C   0  0  0  0  0  0  0  0  0  0  0  0
   -4.0777    2.5640    0.1774 C   0  0  0  0  0  0  0  0  0  0  0  0
   -2.0004   -1.1939    0.1935 C   0  0  0  0  0  0  0  0  0  0  0  0
   -0.8267   -0.4523    0.2709 C   0  0  0  0  0  0  0  0  0  0  0  0
    0.3623   -0.9905   -0.2091 C   0  0  0  0  0  0  0  0  0  0  0  0
    1.6254   -0.2277   -0.1438 C   0  0  0  0  0  0  0  0  0  0  0  0
   -1.9325   -2.4587   -0.3682 C   0  0  0  0  0  0  0  0  0  0  0  0
    0.3243   -2.2644   -0.7530 C   0  0  0  0  0  0  0  0  0  0  0  0
    2.7844   -0.9171   -0.0214 C   0  0  0  0  0  0  0  0  0  0  0  0
    1.6518    1.2359   -0.2192 C   0  0  0  0  0  0  0  0  0  0  0  0
    4.0293   -0.2271    0.0393 C   0  0  0  0  0  0  0  0  0  0  0  0
    2.8231    1.8881   -0.1634 C   0  0  0  0  0  0  0  0  0  0  0  0
    5.9847    0.5041    0.1518 C   0  0  0  0  0  0  0  0  0  0  0  0
   -3.5636    0.2307   -1.4220 H   0  0  0  0  0  0  0  0  0  0  0  0
   -6.1168    2.7730   -1.7329 H   0  0  0  0  0  0  0  0  0  0  0  0
   -6.0766    1.0788   -2.2494 H   0  0  0  0  0  0  0  0  0  0  0  0
   -4.6565    2.1019   -2.4784 H   0  0  0  0  0  0  0  0  0  0  0  0
   -5.8144    0.9279    1.5447 H   0  0  0  0  0  0  0  0  0  0  0  0
   -6.7078    0.2921    0.1605 H   0  0  0  0  0  0  0  0  0  0  0  0
   -6.8176    2.0056    0.5847 H   0  0  0  0  0  0  0  0  0  0  0  0
   -4.0127    2.5349    1.2679 H   0  0  0  0  0  0  0  0  0  0  0  0
   -3.0629    2.5377   -0.2359 H   0  0  0  0  0  0  0  0  0  0  0  0
   -4.4932    3.5531   -0.0530 H   0  0  0  0  0  0  0  0  0  0  0  0
   -0.8503    0.5374    0.7180 H   0  0  0  0  0  0  0  0  0  0  0  0
   -2.8113   -3.0882   -0.4640 H   0  0  0  0  0  0  0  0  0  0  0  0
    1.1950   -2.7516   -1.1802 H   0  0  0  0  0  0  0  0  0  0  0  0
    2.8305   -1.9971    0.0658 H   0  0  0  0  0  0  0  0  0  0  0  0
    0.7309    1.7940   -0.3425 H   0  0  0  0  0  0  0  0  0  0  0  0
    2.8985    2.9670   -0.2215 H   0  0  0  0  0  0  0  0  0  0  0  0
    7.9277    1.2504    0.2627 H   0  0  0  0  0  0  0  0  0  0  0  0
    7.8214   -0.4623    0.3433 H   0  0  0  0  0  0  0  0  0  0  0  0
  1  2  2  0  0  0  0
  1  3  2  0  0  0  0
  1  4  1  0  0  0  0
  1 14  1  0  0  0  0
  4 10  1  0  0  0  0
  4 25  1  0  0  0  0
  5  8  1  0  0  0  0
  5 22  1  0  0  0  0
  5 23  1  0  0  0  0
  6 18  1  0  0  0  0
  6 19  2  0  0  0  0
  7 22  2  0  0  0  0
  7 24  1  0  0  0  0
  8 24  2  0  0  0  0
  9 24  1  0  0  0  0
  9 41  1  0  0  0  0
  9 42  1  0  0  0  0
 10 11  1  0  0  0  0
 10 12  1  0  0  0  0
 10 13  1  0  0  0  0
 11 26  1  0  0  0  0
 11 27  1  0  0  0  0
 11 28  1  0  0  0  0
 12 29  1  0  0  0  0
 12 30  1  0  0  0  0
 12 31  1  0  0  0  0
 13 32  1  0  0  0  0
 13 33  1  0  0  0  0
 13 34  1  0  0  0  0
 14 15  1  0  0  0  0
 14 18  2  0  0  0  0
 15 16  2  0  0  0  0
 15 35  1  0  0  0  0
 16 17  1  0  0  0  0
 16 19  1  0  0  0  0
 17 20  2  0  0  0  0
 17 21  1  0  0  0  0
 18 36  1  0  0  0  0
 19 37  1  0  0  0  0
 20 22  1  0  0  0  0
 20 38  1  0  0  0  0
 21 23  2  0  0  0  0
 21 39  1  0  0  0  0
 23 40  1  0  0  0  0
M  END
> <PUBCHEM_COMPOUND_CID>
44557921

> <PUBCHEM_CONFORMER_RMSD>
0.8

> <PUBCHEM_CONFORMER_DIVERSEORDER>
1
16
10
14
11
5
7
13
3
4
15
12
9
2
8
6

> <PUBCHEM_MMFF94_PARTIAL_CHARGES>
30
1 1.45
10 0.36
14 -0.01
15 -0.15
16 0.03
17 -0.03
18 0.16
19 0.16
2 -0.65
20 -0.11
21 -0.15
22 0.14
23 -0.18
24 0.6
25 0.42
3 -0.65
35 0.15
36 0.15
37 0.15
38 0.15
39 0.15
4 -0.91
40 0.15
41 0.4
42 0.4
5 0.6
6 -0.62
7 -0.57
8 -0.71
9 -0.88

> <PUBCHEM_EFFECTIVE_ROTOR_COUNT>
4

> <PUBCHEM_PHARMACOPHORE_FEATURES>
10
1 2 acceptor
1 3 acceptor
1 4 donor
1 6 acceptor
1 9 donor
4 10 11 12 13 hydrophobe
4 7 8 9 24 cation
5 5 7 8 22 24 rings
6 5 17 20 21 22 23 rings
6 6 14 15 16 18 19 rings

> <PUBCHEM_HEAVY_ATOM_COUNT>
24

> <PUBCHEM_ATOM_DEF_STEREO_COUNT>
0

> <PUBCHEM_ATOM_UDEF_STEREO_COUNT>
0

> <PUBCHEM_BOND_DEF_STEREO_COUNT>
0

> <PUBCHEM_BOND_UDEF_STEREO_COUNT>
0

> <PUBCHEM_ISOTOPIC_ATOM_COUNT>
0

> <PUBCHEM_COMPONENT_COUNT>
1

> <PUBCHEM_CACTVS_TAUTO_COUNT>
2

> <PUBCHEM_CONFORMER_ID>
02A7E66100000001

> <PUBCHEM_MMFF94_ENERGY>
59.3155

> <PUBCHEM_FEATURE_SELFOVERLAP>
50.886

> <PUBCHEM_SHAPE_FINGERPRINT>
10 15 18040723575568339217
10411042 1 17764023962942576695
11089746 13 17489866051340492144
11973863 73 17750219363080464234
12107183 9 18336819776623016202
12236239 1 18335139834534953722
12403259 118 17967821578085418559
12403259 415 18059851818021844899
12507557 5 18408328799993765785
13103583 49 12108078721717460157
13402501 40 18261952956077391469
13583140 156 18040442100686548579
13740256 8 8934993776679376063
13785724 45 17905605498260352282
14466204 15 18335700516244677656
14790565 3 18191592054752154708
14856354 85 15719400537577991082
15142383 8 17603860079892837540
15183329 4 18411132515821142060
15188451 53 15358276986703022961
15238133 3 17748835120189003900
15461852 350 17203603839725686028
15537594 2 11386368157635627688
17780758 139 11963388523314235117
17844677 252 18114472274197689232
200 152 9223237334128053610
20281389 69 18260829297663032784
20511986 3 18200300126714514074
21033648 144 18261388889611100277
21033648 29 18342729758463303048
21054139 6 11959731569031114588
21150785 3 12463566310276673296
21236236 1 18340483456756415015
21279426 13 18339930312049910670
21298829 104 18200879470052280313
21315764 268 18268429225203249513
21421861 104 17896023383536326634
23402539 116 18131629010503099956
23559900 14 17632019753975373026
2838139 119 18408315580058295413
335352 9 18412544302268949158
34934 24 18408317783508380322
350125 39 18270403922723048275
3737641 26 11242235325844844456
4325135 7 18272931640368880879
5104073 3 18195806487158579498
5372103 7 17678718070181381781
5385378 56 18269283374123871603
5486654 36 9295286175571291519
59755656 215 18270968951688203742
6327066 14 18336539422706317517
6328613 192 18336270136968365324
7226269 152 17988927781875607016
7495541 125 13190336916146511542
9981440 41 18336271159101756987

> <PUBCHEM_SHAPE_MULTIPOLES>
456.13
15.71
2.69
1.02
9.73
0.75
0.02
-9.72
-0.71
-2.17
0.62
-1.58
-0.07
0.87

> <PUBCHEM_SHAPE_SELFOVERLAP>
971.779

> <PUBCHEM_SHAPE_VOLUME>
257.3

> <PUBCHEM_COORDINATE_TYPE>
2
5
10

$$$$
