24764449
  -OEChem-10062122013D

 69 73  0     1  0  0  0  0  0999 V2000
   -5.6224    1.9491    1.5421 O   0  0  0  0  0  0  0  0  0  0  0  0
   -2.7387   -1.1398    0.7477 O   0  0  0  0  0  0  0  0  0  0  0  0
   -1.7982    2.8553    0.0461 O   0  0  0  0  0  0  0  0  0  0  0  0
    4.5509    1.7651    0.4804 O   0  0  0  0  0  0  0  0  0  0  0  0
    9.3772   -2.3373    1.4256 O   0  0  0  0  0  0  0  0  0  0  0  0
   -5.3377    0.5802   -0.7695 N   0  0  1  0  0  0  0  0  0  0  0  0
   -4.8537   -0.6068   -0.1985 N   0  0  0  0  0  0  0  0  0  0  0  0
   -0.8207    0.7159   -0.0677 N   0  0  0  0  0  0  0  0  0  0  0  0
    1.4253   -0.0596    0.0503 N   0  0  0  0  0  0  0  0  0  0  0  0
    7.1162   -0.1818   -2.1674 N   0  0  0  0  0  0  0  0  0  0  0  0
   -6.6802    1.0263   -0.4091 C   0  0  0  0  0  0  0  0  0  0  0  0
   -6.8031    1.2730    1.1023 C   0  0  0  0  0  0  0  0  0  0  0  0
   -4.2738    1.4822   -0.8209 C   0  0  0  0  0  0  0  0  0  0  0  0
   -3.1692    0.9856   -0.2421 C   0  0  0  0  0  0  0  0  0  0  0  0
   -7.9969    2.1933    1.3762 C   0  0  0  0  0  0  0  0  0  0  0  0
   -6.9515   -0.0275    1.8965 C   0  0  0  0  0  0  0  0  0  0  0  0
   -3.5344   -0.3881    0.2078 C   0  0  0  0  0  0  0  0  0  0  0  0
   -5.4987   -1.8608   -0.3412 C   0  0  0  0  0  0  0  0  0  0  0  0
   -4.4575    2.8337   -1.4289 C   0  0  0  0  0  0  0  0  0  0  0  0
   -1.8749    1.6269   -0.0729 C   0  0  0  0  0  0  0  0  0  0  0  0
   -6.5115   -2.0208   -1.2870 C   0  0  0  0  0  0  0  0  0  0  0  0
   -5.1212   -2.9349    0.4648 C   0  0  0  0  0  0  0  0  0  0  0  0
   -7.1464   -3.2549   -1.4268 C   0  0  0  0  0  0  0  0  0  0  0  0
   -5.7561   -4.1690    0.3248 C   0  0  0  0  0  0  0  0  0  0  0  0
   -6.7687   -4.3290   -0.6209 C   0  0  0  0  0  0  0  0  0  0  0  0
    0.5632    0.9816    0.0731 C   0  0  0  0  0  0  0  0  0  0  0  0
    0.9479    2.3039    0.2267 C   0  0  0  0  0  0  0  0  0  0  0  0
    2.3045    2.5750    0.3657 C   0  0  0  0  0  0  0  0  0  0  0  0
    3.2221    1.5304    0.3472 C   0  0  0  0  0  0  0  0  0  0  0  0
    2.7358    0.2428    0.1882 C   0  0  0  0  0  0  0  0  0  0  0  0
    6.4092    0.2409    0.0973 C   0  0  0  0  0  0  0  0  0  0  0  0
    5.4157    1.1060   -0.3808 C   0  0  0  0  0  0  0  0  0  0  0  0
    7.2489   -0.3908   -0.8439 C   0  0  0  0  0  0  0  0  0  0  0  0
    6.5759   -0.0003    1.4716 C   0  0  0  0  0  0  0  0  0  0  0  0
    8.2355   -1.2502   -0.3682 C   0  0  0  0  0  0  0  0  0  0  0  0
    5.2766    1.3233   -1.7441 C   0  0  0  0  0  0  0  0  0  0  0  0
    8.4014   -1.4902    0.9980 C   0  0  0  0  0  0  0  0  0  0  0  0
    7.5708   -0.8646    1.9193 C   0  0  0  0  0  0  0  0  0  0  0  0
    6.1449    0.6606   -2.5877 C   0  0  0  0  0  0  0  0  0  0  0  0
   10.1935   -2.9450    0.4258 C   0  0  0  0  0  0  0  0  0  0  0  0
   -6.8946    1.9545   -0.9541 H   0  0  0  0  0  0  0  0  0  0  0  0
   -7.4622    0.3370   -0.7383 H   0  0  0  0  0  0  0  0  0  0  0  0
   -8.0796    2.4235    2.4447 H   0  0  0  0  0  0  0  0  0  0  0  0
   -7.8743    3.1559    0.8664 H   0  0  0  0  0  0  0  0  0  0  0  0
   -8.9371    1.7402    1.0454 H   0  0  0  0  0  0  0  0  0  0  0  0
   -7.6767   -0.7089    1.4417 H   0  0  0  0  0  0  0  0  0  0  0  0
   -7.3090    0.1917    2.9108 H   0  0  0  0  0  0  0  0  0  0  0  0
   -5.9983   -0.5361    2.0548 H   0  0  0  0  0  0  0  0  0  0  0  0
   -5.0355    2.7579   -2.3566 H   0  0  0  0  0  0  0  0  0  0  0  0
   -4.9881    3.5021   -0.7442 H   0  0  0  0  0  0  0  0  0  0  0  0
   -3.5070    3.3032   -1.6965 H   0  0  0  0  0  0  0  0  0  0  0  0
   -5.7005    2.0957    2.5004 H   0  0  0  0  0  0  0  0  0  0  0  0
   -6.7942   -1.2332   -1.9778 H   0  0  0  0  0  0  0  0  0  0  0  0
   -4.3595   -2.8429    1.2319 H   0  0  0  0  0  0  0  0  0  0  0  0
   -1.0300   -0.2722   -0.1866 H   0  0  0  0  0  0  0  0  0  0  0  0
   -7.9253   -3.3841   -2.1727 H   0  0  0  0  0  0  0  0  0  0  0  0
   -5.4667   -5.0038    0.9565 H   0  0  0  0  0  0  0  0  0  0  0  0
   -7.2619   -5.2903   -0.7310 H   0  0  0  0  0  0  0  0  0  0  0  0
    0.2955    3.1612    0.2502 H   0  0  0  0  0  0  0  0  0  0  0  0
    2.6425    3.6004    0.4876 H   0  0  0  0  0  0  0  0  0  0  0  0
    3.3888   -0.6243    0.1808 H   0  0  0  0  0  0  0  0  0  0  0  0
    5.9367    0.4789    2.2095 H   0  0  0  0  0  0  0  0  0  0  0  0
    8.8614   -1.7171   -1.1238 H   0  0  0  0  0  0  0  0  0  0  0  0
    4.5265    1.9938   -2.1483 H   0  0  0  0  0  0  0  0  0  0  0  0
    7.6918   -1.0448    2.9836 H   0  0  0  0  0  0  0  0  0  0  0  0
    6.0854    0.7934   -3.6630 H   0  0  0  0  0  0  0  0  0  0  0  0
    9.6073   -3.5941   -0.2336 H   0  0  0  0  0  0  0  0  0  0  0  0
   10.7723   -2.1995   -0.1300 H   0  0  0  0  0  0  0  0  0  0  0  0
   10.9145   -3.5859    0.9440 H   0  0  0  0  0  0  0  0  0  0  0  0
  1 12  1  0  0  0  0
  1 52  1  0  0  0  0
  2 17  2  0  0  0  0
  3 20  2  0  0  0  0
  4 29  1  0  0  0  0
  4 32  1  0  0  0  0
  5 37  1  0  0  0  0
  5 40  1  0  0  0  0
  6  7  1  0  0  0  0
  6 11  1  0  0  0  0
  6 13  1  0  0  0  0
  7 17  1  0  0  0  0
  7 18  1  0  0  0  0
  8 20  1  0  0  0  0
  8 26  1  0  0  0  0
  8 55  1  0  0  0  0
  9 26  2  0  0  0  0
  9 30  1  0  0  0  0
 10 33  2  0  0  0  0
 10 39  1  0  0  0  0
 11 12  1  0  0  0  0
 11 41  1  0  0  0  0
 11 42  1  0  0  0  0
 12 15  1  0  0  0  0
 12 16  1  0  0  0  0
 13 14  2  0  0  0  0
 13 19  1  0  0  0  0
 14 17  1  0  0  0  0
 14 20  1  0  0  0  0
 15 43  1  0  0  0  0
 15 44  1  0  0  0  0
 15 45  1  0  0  0  0
 16 46  1  0  0  0  0
 16 47  1  0  0  0  0
 16 48  1  0  0  0  0
 18 21  2  0  0  0  0
 18 22  1  0  0  0  0
 19 49  1  0  0  0  0
 19 50  1  0  0  0  0
 19 51  1  0  0  0  0
 21 23  1  0  0  0  0
 21 53  1  0  0  0  0
 22 24  2  0  0  0  0
 22 54  1  0  0  0  0
 23 25  2  0  0  0  0
 23 56  1  0  0  0  0
 24 25  1  0  0  0  0
 24 57  1  0  0  0  0
 25 58  1  0  0  0  0
 26 27  1  0  0  0  0
 27 28  2  0  0  0  0
 27 59  1  0  0  0  0
 28 29  1  0  0  0  0
 28 60  1  0  0  0  0
 29 30  2  0  0  0  0
 30 61  1  0  0  0  0
 31 32  2  0  0  0  0
 31 33  1  0  0  0  0
 31 34  1  0  0  0  0
 32 36  1  0  0  0  0
 33 35  1  0  0  0  0
 34 38  2  0  0  0  0
 34 62  1  0  0  0  0
 35 37  2  0  0  0  0
 35 63  1  0  0  0  0
 36 39  2  0  0  0  0
 36 64  1  0  0  0  0
 37 38  1  0  0  0  0
 38 65  1  0  0  0  0
 39 66  1  0  0  0  0
 40 67  1  0  0  0  0
 40 68  1  0  0  0  0
 40 69  1  0  0  0  0
M  END
> <PUBCHEM_COMPOUND_CID>
24764449

> <PUBCHEM_CONFORMER_RMSD>
1.2

> <PUBCHEM_CONFORMER_DIVERSEORDER>
4
30
88
110
99
41
103
36
49
81
108
77
39
105
71
57
83
43
60
22
92
93
21
102
19
91
111
24
14
66
112
109
86
52
56
7
85
65
15
104
80
8
82
31
72
100
97
29
107
70
59
20
106
25
113
17
58
96
27
46
42
23
75
89
50
6
101
54
67
37
45
5
34
73
38
69
115
64
53
47
51
9
55
1
63
87
114
84
28
79
32
2
61
18
98
13
90
62
26
68
95
16
44
35
11
3
78
12
74
76
33
10
48
40
94

> <PUBCHEM_MMFF94_PARTIAL_CHARGES>
52
1 -0.68
10 -0.62
11 0.37
12 0.28
13 -0.04
14 0.03
17 0.62
18 0.12
19 0.14
2 -0.57
20 0.62
21 -0.15
22 -0.15
23 -0.15
24 -0.15
25 -0.15
26 0.43
27 -0.15
28 -0.15
29 0.08
3 -0.57
30 0.16
32 0.08
33 0.31
34 -0.15
35 -0.15
36 -0.15
37 0.08
38 -0.15
39 0.16
4 -0.17
40 0.28
5 -0.36
52 0.4
53 0.15
54 0.15
55 0.37
56 0.15
57 0.15
58 0.15
59 0.15
6 -0.49
60 0.15
61 0.15
62 0.15
63 0.15
64 0.15
65 0.15
66 0.15
7 -0.16
8 -0.55
9 -0.62

> <PUBCHEM_EFFECTIVE_ROTOR_COUNT>
9

> <PUBCHEM_PHARMACOPHORE_FEATURES>
14
1 1 acceptor
1 1 donor
1 10 acceptor
1 2 acceptor
1 3 acceptor
1 4 acceptor
1 5 acceptor
1 8 donor
3 12 15 16 hydrophobe
5 6 7 13 14 17 rings
6 10 31 32 33 36 39 rings
6 18 21 22 23 24 25 rings
6 31 33 34 35 37 38 rings
6 9 26 27 28 29 30 rings

> <PUBCHEM_HEAVY_ATOM_COUNT>
40

> <PUBCHEM_ATOM_DEF_STEREO_COUNT>
0

> <PUBCHEM_ATOM_UDEF_STEREO_COUNT>
0

> <PUBCHEM_BOND_DEF_STEREO_COUNT>
0

> <PUBCHEM_BOND_UDEF_STEREO_COUNT>
0

> <PUBCHEM_ISOTOPIC_ATOM_COUNT>
0

> <PUBCHEM_COMPONENT_COUNT>
1

> <PUBCHEM_CACTVS_TAUTO_COUNT>
3

> <PUBCHEM_CONFORMER_ID>
0179E02100000004

> <PUBCHEM_MMFF94_ENERGY>
168.7961

> <PUBCHEM_FEATURE_SELFOVERLAP>
71.083

> <PUBCHEM_SHAPE_FINGERPRINT>
10119406 146 17821732740842079947
10677351 14 18408886269458615772
11135926 11 18411131399419789335
11672396 167 18411692218674098191
11828532 37 18272364296722061578
12539747 164 18187648068368735803
12539765 74 10809609399485437336
13627175 4 18187645838146637963
13782708 43 18270119140146662005
13811026 1 18131068255589268447
14344974 204 18127689542389263151
15183329 4 18187081758727294664
15230672 131 18335417946404461627
15361156 5 18114473348509537405
1577012 14 18187370960434859644
16990366 60 18340763832279396688
16994733 274 10303818687573081502
17324776 126 17481694670213932479
20105231 36 17822302279686594985
2026 5 18412822495385172038
21130935 74 18269833267239589248
21792965 169 17676497167987675254
21927370 108 18116160051482154995
23522609 53 18118714151414578085
25025965 108 17987784350261493975
335507 130 17895196558659122914
3383291 50 17988923417915229374
3504750 166 18335137583920038389
397638 26 17561366192366219110
4169191 19 10952050048083029560
44802255 64 13117998903646453113
4516262 110 10447391795737918857
4616759 239 17775289344394546273
4625314 4 18408599284286881365
504579 68 17095516327186450950
5718773 13 18339637948929943766
58083652 198 14764625326342572755
58902169 19 17458350732120673908
6441014 3 17690561206156281467
6691757 9 14117800236841179533
9831232 110 17988657289367532540
9962374 69 18113336406673942584

> <PUBCHEM_SHAPE_MULTIPOLES>
768.93
33.78
4.15
1.67
43.85
3.87
0.32
23.48
-3.81
-8.01
0.2
1.39
-0.09
-3.79

> <PUBCHEM_SHAPE_SELFOVERLAP>
1692.14

> <PUBCHEM_SHAPE_VOLUME>
411.7

> <PUBCHEM_COORDINATE_TYPE>
2
5
10

$$$$
