3099034
  -OEChem-10052120443D

 56 57  0     0  0  0  0  0  0999 V2000
   -3.0587   -1.9987   -0.8888 O   0  0  0  0  0  0  0  0  0  0  0  0
   -0.0525    0.8406    0.6893 O   0  0  0  0  0  0  0  0  0  0  0  0
   -1.0214   -2.5380   -1.8612 N   0  0  0  0  0  0  0  0  0  0  0  0
    0.3205    0.2431    2.9010 N   0  0  0  0  0  0  0  0  0  0  0  0
   -2.0413   -0.5368   -2.3782 N   0  0  0  0  0  0  0  0  0  0  0  0
    1.9377    1.4075    1.7422 N   0  0  0  0  0  0  0  0  0  0  0  0
   -3.0679    2.2242    1.0238 N   0  0  0  0  0  0  0  0  0  0  0  0
    5.4738    0.0940   -0.7116 N   0  0  0  0  0  0  0  0  0  0  0  0
   -0.8521   -2.8446    1.1258 C   0  0  0  0  0  0  0  0  0  0  0  0
   -0.0743   -2.7565    2.4412 C   0  0  0  0  0  0  0  0  0  0  0  0
   -0.1137   -3.7167    0.1046 C   0  0  0  0  0  0  0  0  0  0  0  0
   -0.7640   -1.8888    3.5005 C   0  0  0  0  0  0  0  0  0  0  0  0
   -0.8561   -3.8157   -1.2244 C   0  0  0  0  0  0  0  0  0  0  0  0
   -0.9348   -0.4217    3.1171 C   0  0  0  0  0  0  0  0  0  0  0  0
   -2.1273   -1.7147   -1.6407 C   0  0  0  0  0  0  0  0  0  0  0  0
    0.6708    0.8329    1.6846 C   0  0  0  0  0  0  0  0  0  0  0  0
   -3.0511    0.4956   -2.3396 C   0  0  0  0  0  0  0  0  0  0  0  0
    2.5496    2.0860    0.6232 C   0  0  0  0  0  0  0  0  0  0  0  0
   -2.7765    1.5103   -1.2676 C   0  0  0  0  0  0  0  0  0  0  0  0
    3.3517    1.1483   -0.2321 C   0  0  0  0  0  0  0  0  0  0  0  0
   -2.0130    2.6421   -1.5309 C   0  0  0  0  0  0  0  0  0  0  0  0
    2.7690    0.4791   -1.3026 C   0  0  0  0  0  0  0  0  0  0  0  0
   -3.2767    1.3492    0.0146 C   0  0  0  0  0  0  0  0  0  0  0  0
    4.6956    0.9233    0.0194 C   0  0  0  0  0  0  0  0  0  0  0  0
   -1.7762    3.5652   -0.5183 C   0  0  0  0  0  0  0  0  0  0  0  0
    3.5372   -0.3825   -2.0779 C   0  0  0  0  0  0  0  0  0  0  0  0
   -2.3211    3.3123    0.7302 C   0  0  0  0  0  0  0  0  0  0  0  0
    4.8728   -0.5389   -1.7439 C   0  0  0  0  0  0  0  0  0  0  0  0
   -1.8526   -3.2509    1.3134 H   0  0  0  0  0  0  0  0  0  0  0  0
   -0.9662   -1.8345    0.7272 H   0  0  0  0  0  0  0  0  0  0  0  0
    0.0489   -3.7666    2.8513 H   0  0  0  0  0  0  0  0  0  0  0  0
    0.9355   -2.3736    2.2503 H   0  0  0  0  0  0  0  0  0  0  0  0
    0.0226   -4.7253    0.5123 H   0  0  0  0  0  0  0  0  0  0  0  0
    0.8867   -3.3006   -0.0694 H   0  0  0  0  0  0  0  0  0  0  0  0
   -1.7500   -2.3127    3.7259 H   0  0  0  0  0  0  0  0  0  0  0  0
   -0.1772   -1.9500    4.4257 H   0  0  0  0  0  0  0  0  0  0  0  0
   -1.8397   -4.2749   -1.0752 H   0  0  0  0  0  0  0  0  0  0  0  0
   -0.2914   -4.4499   -1.9158 H   0  0  0  0  0  0  0  0  0  0  0  0
   -1.5857   -0.3145    2.2449 H   0  0  0  0  0  0  0  0  0  0  0  0
   -1.4240    0.1057    3.9438 H   0  0  0  0  0  0  0  0  0  0  0  0
   -0.2920   -2.2135   -2.4885 H   0  0  0  0  0  0  0  0  0  0  0  0
    0.9643    0.3237    3.6820 H   0  0  0  0  0  0  0  0  0  0  0  0
   -1.2184   -0.3827   -2.9527 H   0  0  0  0  0  0  0  0  0  0  0  0
    2.4685    1.3270    2.6040 H   0  0  0  0  0  0  0  0  0  0  0  0
   -4.0356    0.0381   -2.1864 H   0  0  0  0  0  0  0  0  0  0  0  0
   -3.0703    0.9749   -3.3248 H   0  0  0  0  0  0  0  0  0  0  0  0
    3.1897    2.8781    1.0278 H   0  0  0  0  0  0  0  0  0  0  0  0
    1.7728    2.5761    0.0243 H   0  0  0  0  0  0  0  0  0  0  0  0
   -1.5958    2.8135   -2.5192 H   0  0  0  0  0  0  0  0  0  0  0  0
    1.7192    0.6209   -1.5443 H   0  0  0  0  0  0  0  0  0  0  0  0
   -3.8806    0.4881    0.2830 H   0  0  0  0  0  0  0  0  0  0  0  0
    5.2064    1.4151    0.8416 H   0  0  0  0  0  0  0  0  0  0  0  0
   -1.1821    4.4534   -0.7000 H   0  0  0  0  0  0  0  0  0  0  0  0
    3.1038   -0.9148   -2.9169 H   0  0  0  0  0  0  0  0  0  0  0  0
   -2.1641    4.0003    1.5543 H   0  0  0  0  0  0  0  0  0  0  0  0
    5.5148   -1.1996   -2.3172 H   0  0  0  0  0  0  0  0  0  0  0  0
  1 15  2  0  0  0  0
  2 16  2  0  0  0  0
  3 13  1  0  0  0  0
  3 15  1  0  0  0  0
  3 41  1  0  0  0  0
  4 14  1  0  0  0  0
  4 16  1  0  0  0  0
  4 42  1  0  0  0  0
  5 15  1  0  0  0  0
  5 17  1  0  0  0  0
  5 43  1  0  0  0  0
  6 16  1  0  0  0  0
  6 18  1  0  0  0  0
  6 44  1  0  0  0  0
  7 23  1  0  0  0  0
  7 27  2  0  0  0  0
  8 24  1  0  0  0  0
  8 28  2  0  0  0  0
  9 10  1  0  0  0  0
  9 11  1  0  0  0  0
  9 29  1  0  0  0  0
  9 30  1  0  0  0  0
 10 12  1  0  0  0  0
 10 31  1  0  0  0  0
 10 32  1  0  0  0  0
 11 13  1  0  0  0  0
 11 33  1  0  0  0  0
 11 34  1  0  0  0  0
 12 14  1  0  0  0  0
 12 35  1  0  0  0  0
 12 36  1  0  0  0  0
 13 37  1  0  0  0  0
 13 38  1  0  0  0  0
 14 39  1  0  0  0  0
 14 40  1  0  0  0  0
 17 19  1  0  0  0  0
 17 45  1  0  0  0  0
 17 46  1  0  0  0  0
 18 20  1  0  0  0  0
 18 47  1  0  0  0  0
 18 48  1  0  0  0  0
 19 21  1  0  0  0  0
 19 23  2  0  0  0  0
 20 22  1  0  0  0  0
 20 24  2  0  0  0  0
 21 25  2  0  0  0  0
 21 49  1  0  0  0  0
 22 26  2  0  0  0  0
 22 50  1  0  0  0  0
 23 51  1  0  0  0  0
 24 52  1  0  0  0  0
 25 27  1  0  0  0  0
 25 53  1  0  0  0  0
 26 28  1  0  0  0  0
 26 54  1  0  0  0  0
 27 55  1  0  0  0  0
 28 56  1  0  0  0  0
M  END
> <PUBCHEM_COMPOUND_CID>
3099034

> <PUBCHEM_CONFORMER_RMSD>
1.6

> <PUBCHEM_CONFORMER_DIVERSEORDER>
1
37
14
5
92
18
4
39
105
35
11
29
64
90
54
41
101
6
38
80
24
89
73
45
48
46
17
3
82
19
71
42
78
79
56
33
25
81
53
20
47
98
88
21
69
22
49
50
2
83
103
58
65
66
85
27
44
36
63
74
76
34
57
102
31
23
70
87
30
86
26
13
95
68
15
94
51
97
7
62
84
55
52
40
91
67
32
104
72
12
60
96
16
10
93
43
77
61
75
59
99
28
100
9
8

> <PUBCHEM_MMFF94_PARTIAL_CHARGES>
36
1 -0.57
13 0.3
14 0.3
15 0.69
16 0.69
17 0.44
18 0.44
19 -0.14
2 -0.57
20 -0.14
21 -0.15
22 -0.15
23 0.16
24 0.16
25 -0.15
26 -0.15
27 0.16
28 0.16
3 -0.73
4 -0.73
41 0.37
42 0.37
43 0.37
44 0.37
49 0.15
5 -0.73
50 0.15
51 0.15
52 0.15
53 0.15
54 0.15
55 0.15
56 0.15
6 -0.73
7 -0.62
8 -0.62

> <PUBCHEM_EFFECTIVE_ROTOR_COUNT>
15

> <PUBCHEM_PHARMACOPHORE_FEATURES>
11
1 1 acceptor
1 2 acceptor
1 3 donor
1 4 donor
1 5 donor
1 6 donor
1 7 acceptor
1 8 acceptor
4 9 10 11 12 hydrophobe
6 7 19 21 23 25 27 rings
6 8 20 22 24 26 28 rings

> <PUBCHEM_HEAVY_ATOM_COUNT>
28

> <PUBCHEM_ATOM_DEF_STEREO_COUNT>
0

> <PUBCHEM_ATOM_UDEF_STEREO_COUNT>
0

> <PUBCHEM_BOND_DEF_STEREO_COUNT>
0

> <PUBCHEM_BOND_UDEF_STEREO_COUNT>
0

> <PUBCHEM_ISOTOPIC_ATOM_COUNT>
0

> <PUBCHEM_COMPONENT_COUNT>
1

> <PUBCHEM_CACTVS_TAUTO_COUNT>
6

> <PUBCHEM_CONFORMER_ID>
002F499A00000001

> <PUBCHEM_MMFF94_ENERGY>
35.4573

> <PUBCHEM_FEATURE_SELFOVERLAP>
55.922

> <PUBCHEM_SHAPE_FINGERPRINT>
11112662 9 17459780093084063877
11244481 83 17029655331732827233
12156800 1 13107584105700314755
133893 2 17391610213058024287
13642711 20 17393903755364220562
14251740 79 18131632261941159796
14251757 17 17704062984941029934
14713325 29 18335994120140681143
20600515 1 17617609609704678845
23419403 2 17184244523314669355
25265897 201 14616237328822976397
35225 105 17458354090536944695
469060 322 18196115397679683191

> <PUBCHEM_SHAPE_MULTIPOLES>
534.6
7.34
4.74
3.41
10.98
2.42
-1.76
-4.55
4.4
-3.96
-0.27
-1.06
1.96
0.14

> <PUBCHEM_SHAPE_SELFOVERLAP>
1089.899

> <PUBCHEM_SHAPE_VOLUME>
305.4

> <PUBCHEM_COORDINATE_TYPE>
2
5
10

$$$$
