44352915
  -OEChem-10062121583D

 71 79  0     1  0  0  0  0  0999 V2000
    0.0177    0.0918   -2.4309 O   0  0  0  0  0  0  0  0  0  0  0  0
   -1.1802   -0.5406    0.6167 O   0  0  0  0  0  0  0  0  0  0  0  0
    6.0344    1.8076    1.4355 O   0  0  0  0  0  0  0  0  0  0  0  0
   -4.5857   -1.3299   -0.8933 O   0  0  0  0  0  0  0  0  0  0  0  0
    0.7829   -1.4908   -0.9079 N   0  0  0  0  0  0  0  0  0  0  0  0
    1.0947    1.4935   -0.9187 N   0  0  0  0  0  0  0  0  0  0  0  0
   -3.5476    0.7141   -0.4312 N   0  0  0  0  0  0  0  0  0  0  0  0
    6.1785   -0.5188    1.6408 N   0  0  0  0  0  0  0  0  0  0  0  0
   -5.5686    0.3492    1.7718 N   0  0  0  0  0  0  0  0  0  0  0  0
   -8.1270    0.4311    0.6253 N   0  0  0  0  0  0  0  0  0  0  0  0
   -0.3832   -1.0390   -1.6520 C   0  0  1  0  0  0  0  0  0  0  0  0
   -1.6085   -0.7689   -0.7332 C   0  0  2  0  0  0  0  0  0  0  0  0
   -0.0475    1.3424   -1.7909 C   0  0  2  0  0  0  0  0  0  0  0  0
   -2.3596    0.4702   -1.2123 C   0  0  2  0  0  0  0  0  0  0  0  0
   -1.4105    1.6642   -1.1611 C   0  0  0  0  0  0  0  0  0  0  0  0
    1.8814   -0.8047   -0.4445 C   0  0  0  0  0  0  0  0  0  0  0  0
    2.0258    0.6139   -0.4400 C   0  0  0  0  0  0  0  0  0  0  0  0
    2.9790   -1.5217    0.1638 C   0  0  0  0  0  0  0  0  0  0  0  0
    3.2515    1.1077    0.1664 C   0  0  0  0  0  0  0  0  0  0  0  0
    1.0543   -2.7863   -0.4440 C   0  0  0  0  0  0  0  0  0  0  0  0
   -0.7916   -2.0053   -2.7888 C   0  0  0  0  0  0  0  0  0  0  0  0
    1.6655    2.7257   -0.5839 C   0  0  0  0  0  0  0  0  0  0  0  0
    2.3741   -2.8472    0.0978 C   0  0  0  0  0  0  0  0  0  0  0  0
    4.1765   -1.0337    0.6767 C   0  0  0  0  0  0  0  0  0  0  0  0
    4.3027    0.3468    0.6732 C   0  0  0  0  0  0  0  0  0  0  0  0
    2.9324    2.5353    0.0436 C   0  0  0  0  0  0  0  0  0  0  0  0
    5.3665   -1.6712    1.3119 C   0  0  0  0  0  0  0  0  0  0  0  0
    0.2438   -3.9406   -0.4337 C   0  0  0  0  0  0  0  0  0  0  0  0
    5.5859    0.6884    1.2833 C   0  0  0  0  0  0  0  0  0  0  0  0
    1.1549    4.0210   -0.8124 C   0  0  0  0  0  0  0  0  0  0  0  0
    2.8610   -4.1007    0.5484 C   0  0  0  0  0  0  0  0  0  0  0  0
   -3.6128    2.0067    0.2604 C   0  0  0  0  0  0  0  0  0  0  0  0
    3.6410    3.6999    0.4357 C   0  0  0  0  0  0  0  0  0  0  0  0
   -4.5830   -0.2319   -0.3379 C   0  0  0  0  0  0  0  0  0  0  0  0
   -2.2361   -0.7552    1.5442 C   0  0  0  0  0  0  0  0  0  0  0  0
    0.7590   -5.1541    0.0290 C   0  0  0  0  0  0  0  0  0  0  0  0
    2.0579   -5.2397    0.4995 C   0  0  0  0  0  0  0  0  0  0  0  0
    1.8916    5.1338   -0.4096 C   0  0  0  0  0  0  0  0  0  0  0  0
    3.1202    4.9770    0.2082 C   0  0  0  0  0  0  0  0  0  0  0  0
   -5.7730    0.0951    0.4640 C   0  0  0  0  0  0  0  0  0  0  0  0
   -7.0296    0.1352   -0.0992 C   0  0  0  0  0  0  0  0  0  0  0  0
   -6.6660    0.6448    2.4962 C   0  0  0  0  0  0  0  0  0  0  0  0
   -7.9226    0.6851    1.9331 C   0  0  0  0  0  0  0  0  0  0  0  0
   -2.2252   -1.6735   -0.7398 H   0  0  0  0  0  0  0  0  0  0  0  0
    0.1184    2.0702   -2.5957 H   0  0  0  0  0  0  0  0  0  0  0  0
   -2.6947    0.3072   -2.2448 H   0  0  0  0  0  0  0  0  0  0  0  0
   -1.8425    2.5022   -1.7238 H   0  0  0  0  0  0  0  0  0  0  0  0
   -1.2211    2.0319   -0.1474 H   0  0  0  0  0  0  0  0  0  0  0  0
    0.0850   -2.3252   -3.3658 H   0  0  0  0  0  0  0  0  0  0  0  0
   -1.4606   -1.5042   -3.5004 H   0  0  0  0  0  0  0  0  0  0  0  0
   -1.3174   -2.8973   -2.4467 H   0  0  0  0  0  0  0  0  0  0  0  0
    5.1146   -2.2014    2.2335 H   0  0  0  0  0  0  0  0  0  0  0  0
    5.9174   -2.3104    0.6179 H   0  0  0  0  0  0  0  0  0  0  0  0
   -0.7891   -3.9126   -0.7596 H   0  0  0  0  0  0  0  0  0  0  0  0
    0.1930    4.1658   -1.2958 H   0  0  0  0  0  0  0  0  0  0  0  0
    3.8630   -4.1819    0.9620 H   0  0  0  0  0  0  0  0  0  0  0  0
   -2.8686    2.0809    1.0556 H   0  0  0  0  0  0  0  0  0  0  0  0
   -4.5848    2.2065    0.7095 H   0  0  0  0  0  0  0  0  0  0  0  0
   -3.4921    2.8201   -0.4613 H   0  0  0  0  0  0  0  0  0  0  0  0
    4.6052    3.6265    0.9256 H   0  0  0  0  0  0  0  0  0  0  0  0
    7.0871   -0.5827    2.0890 H   0  0  0  0  0  0  0  0  0  0  0  0
   -2.7185    0.1674    1.8524 H   0  0  0  0  0  0  0  0  0  0  0  0
   -2.9418   -1.5337    1.2442 H   0  0  0  0  0  0  0  0  0  0  0  0
   -1.7595   -1.1316    2.4571 H   0  0  0  0  0  0  0  0  0  0  0  0
    0.1282   -6.0392    0.0233 H   0  0  0  0  0  0  0  0  0  0  0  0
    2.4456   -6.1893    0.8571 H   0  0  0  0  0  0  0  0  0  0  0  0
    1.4964    6.1309   -0.5832 H   0  0  0  0  0  0  0  0  0  0  0  0
    3.6858    5.8509    0.5196 H   0  0  0  0  0  0  0  0  0  0  0  0
   -7.2029   -0.0663   -1.1498 H   0  0  0  0  0  0  0  0  0  0  0  0
   -6.5024    0.8493    3.5470 H   0  0  0  0  0  0  0  0  0  0  0  0
   -8.8039    0.9229    2.5159 H   0  0  0  0  0  0  0  0  0  0  0  0
  1 11  1  0  0  0  0
  1 13  1  0  0  0  0
  2 12  1  0  0  0  0
  2 35  1  0  0  0  0
  3 29  2  0  0  0  0
  4 34  2  0  0  0  0
  5 11  1  0  0  0  0
  5 16  1  0  0  0  0
  5 20  1  0  0  0  0
  6 13  1  0  0  0  0
  6 17  1  0  0  0  0
  6 22  1  0  0  0  0
  7 14  1  0  0  0  0
  7 32  1  0  0  0  0
  7 34  1  0  0  0  0
  8 27  1  0  0  0  0
  8 29  1  0  0  0  0
  8 61  1  0  0  0  0
  9 40  2  0  0  0  0
  9 42  1  0  0  0  0
 10 41  2  0  0  0  0
 10 43  1  0  0  0  0
 11 12  1  0  0  0  0
 11 21  1  0  0  0  0
 12 14  1  0  0  0  0
 12 44  1  0  0  0  0
 13 15  1  0  0  0  0
 13 45  1  0  0  0  0
 14 15  1  0  0  0  0
 14 46  1  0  0  0  0
 15 47  1  0  0  0  0
 15 48  1  0  0  0  0
 16 17  2  0  0  0  0
 16 18  1  0  0  0  0
 17 19  1  0  0  0  0
 18 23  1  0  0  0  0
 18 24  2  0  0  0  0
 19 25  2  0  0  0  0
 19 26  1  0  0  0  0
 20 23  1  0  0  0  0
 20 28  2  0  0  0  0
 21 49  1  0  0  0  0
 21 50  1  0  0  0  0
 21 51  1  0  0  0  0
 22 26  1  0  0  0  0
 22 30  2  0  0  0  0
 23 31  2  0  0  0  0
 24 25  1  0  0  0  0
 24 27  1  0  0  0  0
 25 29  1  0  0  0  0
 26 33  2  0  0  0  0
 27 52  1  0  0  0  0
 27 53  1  0  0  0  0
 28 36  1  0  0  0  0
 28 54  1  0  0  0  0
 30 38  1  0  0  0  0
 30 55  1  0  0  0  0
 31 37  1  0  0  0  0
 31 56  1  0  0  0  0
 32 57  1  0  0  0  0
 32 58  1  0  0  0  0
 32 59  1  0  0  0  0
 33 39  1  0  0  0  0
 33 60  1  0  0  0  0
 34 40  1  0  0  0  0
 35 62  1  0  0  0  0
 35 63  1  0  0  0  0
 35 64  1  0  0  0  0
 36 37  2  0  0  0  0
 36 65  1  0  0  0  0
 37 66  1  0  0  0  0
 38 39  2  0  0  0  0
 38 67  1  0  0  0  0
 39 68  1  0  0  0  0
 40 41  1  0  0  0  0
 41 69  1  0  0  0  0
 42 43  2  0  0  0  0
 42 70  1  0  0  0  0
 43 71  1  0  0  0  0
M  END
> <PUBCHEM_COMPOUND_CID>
44352915

> <PUBCHEM_CONFORMER_RMSD>
1

> <PUBCHEM_CONFORMER_DIVERSEORDER>
1
7
3
4
6
2

> <PUBCHEM_MMFF94_PARTIAL_CHARGES>
51
1 -0.56
10 -0.62
11 0.54
12 0.28
13 0.54
14 0.3
16 -0.05
17 -0.05
18 -0.01
19 -0.01
2 -0.56
20 -0.15
22 -0.15
24 -0.14
25 0.09
27 0.44
28 -0.15
29 0.54
3 -0.57
30 -0.15
31 -0.15
32 0.3
33 -0.15
34 0.54
35 0.28
36 -0.15
37 -0.15
38 -0.15
39 -0.15
4 -0.57
40 0.4
41 0.16
42 0.16
43 0.16
5 -0.04
54 0.15
55 0.15
56 0.15
6 -0.04
60 0.15
61 0.37
65 0.15
66 0.15
67 0.15
68 0.15
69 0.15
7 -0.66
70 0.15
71 0.15
8 -0.73
9 -0.62

> <PUBCHEM_EFFECTIVE_ROTOR_COUNT>
5.2

> <PUBCHEM_PHARMACOPHORE_FEATURES>
18
1 1 acceptor
1 10 acceptor
1 2 acceptor
1 3 acceptor
1 4 acceptor
1 5 cation
1 6 cation
1 8 donor
1 9 acceptor
5 5 16 18 20 23 rings
5 6 17 19 22 26 rings
5 8 24 25 27 29 rings
6 1 11 12 13 14 15 rings
6 16 17 18 19 24 25 rings
6 20 23 28 31 36 37 rings
6 22 26 30 33 38 39 rings
6 9 10 40 41 42 43 rings
7 1 5 6 11 13 16 17 rings

> <PUBCHEM_HEAVY_ATOM_COUNT>
43

> <PUBCHEM_ATOM_DEF_STEREO_COUNT>
4

> <PUBCHEM_ATOM_UDEF_STEREO_COUNT>
0

> <PUBCHEM_BOND_DEF_STEREO_COUNT>
0

> <PUBCHEM_BOND_UDEF_STEREO_COUNT>
0

> <PUBCHEM_ISOTOPIC_ATOM_COUNT>
0

> <PUBCHEM_COMPONENT_COUNT>
1

> <PUBCHEM_CACTVS_TAUTO_COUNT>
2

> <PUBCHEM_CONFORMER_ID>
02A4C59300000001

> <PUBCHEM_MMFF94_ENERGY>
205.9641

> <PUBCHEM_FEATURE_SELFOVERLAP>
92.314

> <PUBCHEM_SHAPE_FINGERPRINT>
10162869 55 18341886421204063783
10190108 129 18340213969022611610
1100329 8 18193825154256991100
11445158 3 17821721776011600038
11505856 67 16893169053657958653
11534866 41 17749398053263977651
11763715 3 17761520009360309911
11828532 37 16951144979372650593
12608794 3 18192407861966806182
12677640 9 17836078244842177135
12758862 65 17967258580650013419
13140716 1 18265324191676297454
1361 2 18410006645968670738
13636023 51 17023195971349849124
13782708 43 17168139014319021483
14028597 1 17846782875618390457
14400156 188 18262812769416720899
14790565 3 18409441497741229500
14849402 71 18337111271510534092
14910700 183 18335416876757664762
14955137 171 18409164394840278838
15324884 4 17243822853872876252
15328829 1 17703208699351556341
15927050 60 17976821218688679844
15950262 2 15768346479358081672
16096371 109 18410298021282673441
16112460 7 18196363938846778212
19319366 153 18272089448152050601
1979834 28 18333738991758827567
21716022 299 14402969447671141573
21796203 349 18261940878834421130
244849 19 17895745202730460381
24771293 8 18200578316099570776
3178227 256 18407760339755604584
392239 28 18411132554665686935
394071 54 18341895165003331435
4112364 45 18342182210906260969
4144715 1 18118131269197501977
4149490 64 18188494696680589363
5104073 3 18264497355090806257
57527306 92 15841541977499106522
57816373 69 18125731084884641367
6058803 2 17839448235429063140
86090 222 17386300791851838459

> <PUBCHEM_SHAPE_MULTIPOLES>
831.56
14.89
6.29
1.82
29.48
0.79
-0.19
-4.22
11.98
-9.59
-0.31
1.47
0.14
-0.92

> <PUBCHEM_SHAPE_SELFOVERLAP>
1915.57

> <PUBCHEM_SHAPE_VOLUME>
424.4

> <PUBCHEM_COORDINATE_TYPE>
2
5
10

$$$$
