24947488
  -OEChem-10052115193D

 53 56  0     0  0  0  0  0  0999 V2000
    0.2261    2.2870   -1.8803 F   0  0  0  0  0  0  0  0  0  0  0  0
   -2.1239    4.6431    1.4793 F   0  0  0  0  0  0  0  0  0  0  0  0
   -6.6103   -1.2369   -1.6719 O   0  0  0  0  0  0  0  0  0  0  0  0
    2.8483   -0.9494   -0.1752 N   0  0  0  0  0  0  0  0  0  0  0  0
   -2.6457   -1.9905    0.9673 N   0  0  0  0  0  0  0  0  0  0  0  0
    2.8255    1.2110   -0.7355 N   0  0  0  0  0  0  0  0  0  0  0  0
   -0.4684   -1.2241    0.7000 N   0  0  0  0  0  0  0  0  0  0  0  0
   -1.0863   -2.6041    2.5765 N   0  0  0  0  0  0  0  0  0  0  0  0
    5.2274   -1.3933   -1.5538 N   0  0  0  0  0  0  0  0  0  0  0  0
   -5.2090   -0.9323   -1.6841 C   0  0  0  0  0  0  0  0  0  0  0  0
   -4.5868   -1.5759   -0.4288 C   0  0  0  0  0  0  0  0  0  0  0  0
   -3.0914   -1.3331   -0.2394 C   0  0  0  0  0  0  0  0  0  0  0  0
   -4.6241   -1.4953   -2.9810 C   0  0  0  0  0  0  0  0  0  0  0  0
   -5.0944    0.5924   -1.6689 C   0  0  0  0  0  0  0  0  0  0  0  0
    1.7211   -0.4310    0.3958 C   0  0  0  0  0  0  0  0  0  0  0  0
    1.7291    0.9010    0.0365 C   0  0  0  0  0  0  0  0  0  0  0  0
    3.4735    0.0755   -0.8412 C   0  0  0  0  0  0  0  0  0  0  0  0
    0.7902   -1.1933    1.1847 C   0  0  0  0  0  0  0  0  0  0  0  0
   -1.3429   -1.9372    1.4350 C   0  0  0  0  0  0  0  0  0  0  0  0
    0.7361    1.8657    0.4043 C   0  0  0  0  0  0  0  0  0  0  0  0
    4.7050   -0.1943   -1.5442 C   0  0  0  0  0  0  0  0  0  0  0  0
    3.4022   -2.2153   -0.1869 C   0  0  0  0  0  0  0  0  0  0  0  0
    1.1818   -1.8335    2.3428 C   0  0  0  0  0  0  0  0  0  0  0  0
    4.5529   -2.3926   -0.8637 C   0  0  0  0  0  0  0  0  0  0  0  0
    0.0086    2.5343   -0.5802 C   0  0  0  0  0  0  0  0  0  0  0  0
    0.4978    2.1353    1.7519 C   0  0  0  0  0  0  0  0  0  0  0  0
    5.3881    0.9286   -2.2710 C   0  0  0  0  0  0  0  0  0  0  0  0
    0.1914   -2.5308    3.0037 C   0  0  0  0  0  0  0  0  0  0  0  0
   -0.9575    3.4727   -0.2172 C   0  0  0  0  0  0  0  0  0  0  0  0
   -0.4683    3.0738    2.1149 C   0  0  0  0  0  0  0  0  0  0  0  0
   -1.1958    3.7425    1.1305 C   0  0  0  0  0  0  0  0  0  0  0  0
   -4.7823   -2.6575   -0.4521 H   0  0  0  0  0  0  0  0  0  0  0  0
   -5.1291   -1.2188    0.4583 H   0  0  0  0  0  0  0  0  0  0  0  0
   -2.5333   -1.7262   -1.0956 H   0  0  0  0  0  0  0  0  0  0  0  0
   -2.8921   -0.2588   -0.1631 H   0  0  0  0  0  0  0  0  0  0  0  0
   -4.7230   -2.5862   -3.0085 H   0  0  0  0  0  0  0  0  0  0  0  0
   -3.5678   -1.2379   -3.1031 H   0  0  0  0  0  0  0  0  0  0  0  0
   -5.1679   -1.1148   -3.8535 H   0  0  0  0  0  0  0  0  0  0  0  0
   -5.5227    1.0054   -0.7486 H   0  0  0  0  0  0  0  0  0  0  0  0
   -4.0566    0.9295   -1.7513 H   0  0  0  0  0  0  0  0  0  0  0  0
   -5.6587    1.0367   -2.4973 H   0  0  0  0  0  0  0  0  0  0  0  0
   -3.3054   -2.5288    1.5174 H   0  0  0  0  0  0  0  0  0  0  0  0
   -7.0133   -0.8467   -2.4662 H   0  0  0  0  0  0  0  0  0  0  0  0
    2.9011   -3.0207    0.3336 H   0  0  0  0  0  0  0  0  0  0  0  0
    2.1934   -1.7964    2.7277 H   0  0  0  0  0  0  0  0  0  0  0  0
    5.0154   -3.3732   -0.8976 H   0  0  0  0  0  0  0  0  0  0  0  0
    1.0591    1.6330    2.5363 H   0  0  0  0  0  0  0  0  0  0  0  0
    5.6466    1.7211   -1.5628 H   0  0  0  0  0  0  0  0  0  0  0  0
    4.7171    1.3351   -3.0331 H   0  0  0  0  0  0  0  0  0  0  0  0
    6.3016    0.5724   -2.7550 H   0  0  0  0  0  0  0  0  0  0  0  0
    0.4037   -3.0645    3.9240 H   0  0  0  0  0  0  0  0  0  0  0  0
   -1.5244    3.9929   -0.9835 H   0  0  0  0  0  0  0  0  0  0  0  0
   -0.6532    3.2853    3.1639 H   0  0  0  0  0  0  0  0  0  0  0  0
  1 25  1  0  0  0  0
  2 31  1  0  0  0  0
  3 10  1  0  0  0  0
  3 43  1  0  0  0  0
  4 15  1  0  0  0  0
  4 17  1  0  0  0  0
  4 22  1  0  0  0  0
  5 12  1  0  0  0  0
  5 19  1  0  0  0  0
  5 42  1  0  0  0  0
  6 16  1  0  0  0  0
  6 17  2  0  0  0  0
  7 18  2  0  0  0  0
  7 19  1  0  0  0  0
  8 19  2  0  0  0  0
  8 28  1  0  0  0  0
  9 21  2  0  0  0  0
  9 24  1  0  0  0  0
 10 11  1  0  0  0  0
 10 13  1  0  0  0  0
 10 14  1  0  0  0  0
 11 12  1  0  0  0  0
 11 32  1  0  0  0  0
 11 33  1  0  0  0  0
 12 34  1  0  0  0  0
 12 35  1  0  0  0  0
 13 36  1  0  0  0  0
 13 37  1  0  0  0  0
 13 38  1  0  0  0  0
 14 39  1  0  0  0  0
 14 40  1  0  0  0  0
 14 41  1  0  0  0  0
 15 16  2  0  0  0  0
 15 18  1  0  0  0  0
 16 20  1  0  0  0  0
 17 21  1  0  0  0  0
 18 23  1  0  0  0  0
 20 25  2  0  0  0  0
 20 26  1  0  0  0  0
 21 27  1  0  0  0  0
 22 24  2  0  0  0  0
 22 44  1  0  0  0  0
 23 28  2  0  0  0  0
 23 45  1  0  0  0  0
 24 46  1  0  0  0  0
 25 29  1  0  0  0  0
 26 30  2  0  0  0  0
 26 47  1  0  0  0  0
 27 48  1  0  0  0  0
 27 49  1  0  0  0  0
 27 50  1  0  0  0  0
 28 51  1  0  0  0  0
 29 31  2  0  0  0  0
 29 52  1  0  0  0  0
 30 31  1  0  0  0  0
 30 53  1  0  0  0  0
M  END
> <PUBCHEM_COMPOUND_CID>
24947488

> <PUBCHEM_CONFORMER_RMSD>
1

> <PUBCHEM_CONFORMER_DIVERSEORDER>
1
43
65
113
116
26
18
119
52
68
20
83
19
114
69
95
38
22
53
87
27
45
16
75
29
106
25
85
101
112
107
66
34
57
47
2
24
104
118
4
21
74
62
37
17
5
82
41
42
59
80
64
81
33
86
92
117
72
93
105
84
50
55
71
94
77
63
7
58
102
3
40
98
78
111
100
11
79
89
115
23
13
67
56
39
10
15
9
97
46
36
96
48
88
6
31
49
76
90
30
12
51
54
109
73
91
8
108
32
103
60
110
28
35
70
61
44
14
99

> <PUBCHEM_MMFF94_PARTIAL_CHARGES>
37
1 -0.19
10 0.28
12 0.37
15 -0.2
16 0.17
17 0.1
18 0.36
19 0.72
2 -0.19
20 0.05
21 0.47
22 -0.18
23 -0.15
24 0.02
25 0.19
26 -0.15
27 0.06
28 0.16
29 -0.15
3 -0.68
30 -0.15
31 0.19
4 0.33
42 0.4
43 0.4
44 0.15
45 0.15
46 0.15
47 0.15
5 -0.87
51 0.15
52 0.15
53 0.15
6 -0.57
7 -0.62
8 -0.62
9 -0.62

> <PUBCHEM_EFFECTIVE_ROTOR_COUNT>
6

> <PUBCHEM_PHARMACOPHORE_FEATURES>
12
1 3 acceptor
1 3 donor
1 5 donor
1 7 acceptor
1 9 acceptor
3 10 13 14 hydrophobe
3 4 6 17 cation
4 5 7 8 19 cation
5 4 6 15 16 17 rings
6 20 25 26 29 30 31 rings
6 4 9 17 21 22 24 rings
6 7 8 18 19 23 28 rings

> <PUBCHEM_HEAVY_ATOM_COUNT>
31

> <PUBCHEM_ATOM_DEF_STEREO_COUNT>
0

> <PUBCHEM_ATOM_UDEF_STEREO_COUNT>
0

> <PUBCHEM_BOND_DEF_STEREO_COUNT>
0

> <PUBCHEM_BOND_UDEF_STEREO_COUNT>
0

> <PUBCHEM_ISOTOPIC_ATOM_COUNT>
0

> <PUBCHEM_COMPONENT_COUNT>
1

> <PUBCHEM_CACTVS_TAUTO_COUNT>
3

> <PUBCHEM_CONFORMER_ID>
017CAB2000000001

> <PUBCHEM_MMFF94_ENERGY>
87.0902

> <PUBCHEM_FEATURE_SELFOVERLAP>
61.014

> <PUBCHEM_SHAPE_FINGERPRINT>
10165383 225 15597845464056683088
10675989 125 17821725010132924890
11115154 58 18201725076614895985
11445158 3 17549581773212287467
12166972 35 16845011342104272015
12293681 160 18186522132946737610
12788726 201 18410858724688773202
13134695 92 18056772132907109161
13165053 182 17751947910074173716
13911987 19 17470769901119609950
13947920 24 17530968024499974564
140371 6 17827954963570042788
14114206 34 18408881811619938229
14347329 18 17095795624889250447
14400156 266 17680691637481521050
14537116 161 18338218420254223359
14931854 50 18260257543611990551
14932702 115 17756673418340899901
15210252 30 17530959215516775725
15264996 19 18266172830698289501
15297060 5 16915388685428883761
15775530 1 17251194194241379162
17138139 8 18337664226942766517
17909252 39 18202278074675522198
21049683 271 16672793895173967346
21344244 181 16837710275420608997
221357 26 18409160039733047383
23536364 44 18334018263628149655
3380486 77 17676475138989384730
46194498 28 17754747357062103463
484985 159 16268298569572820814
513532 50 18055890303433811755
5252454 2 17458888423741062151
7808743 9 16588300665522562607
81228 2 18188511137176848112

> <PUBCHEM_SHAPE_MULTIPOLES>
587.66
10.65
4.66
2.88
6.25
5.17
-0.49
-6.98
12.66
1.75
-2.78
0.99
-1.11
-1.28

> <PUBCHEM_SHAPE_SELFOVERLAP>
1286.599

> <PUBCHEM_SHAPE_VOLUME>
320.5

> <PUBCHEM_COORDINATE_TYPE>
2
5
10

$$$$
