24905240
  -OEChem-10052115163D

 36 38  0     0  0  0  0  0  0999 V2000
    3.8044    0.2725   -2.1257 O   0  0  0  0  0  0  0  0  0  0  0  0
   -2.4427    1.0269    0.0121 N   0  0  0  0  0  0  0  0  0  0  0  0
   -1.1521    1.4039    0.0752 N   0  0  0  0  0  0  0  0  0  0  0  0
   -3.7798   -0.9898   -0.0763 N   0  0  0  0  0  0  0  0  0  0  0  0
   -2.3910   -2.9950   -0.0428 N   0  0  0  0  0  0  0  0  0  0  0  0
   -0.0080   -2.9119    0.0659 N   0  0  0  0  0  0  0  0  0  0  0  0
    6.3248    0.2324    0.4317 N   0  0  0  0  0  0  0  0  0  0  0  0
   -3.4775    2.0330   -0.0196 C   0  0  0  0  0  0  0  0  0  0  0  0
   -2.6149   -0.3253   -0.0149 C   0  0  0  0  0  0  0  0  0  0  0  0
   -1.3451   -0.8731    0.0341 C   0  0  0  0  0  0  0  0  0  0  0  0
   -0.4888    0.2425    0.0882 C   0  0  0  0  0  0  0  0  0  0  0  0
   -3.3648    2.9174   -1.2640 C   0  0  0  0  0  0  0  0  0  0  0  0
   -3.4769    2.8817    1.2542 C   0  0  0  0  0  0  0  0  0  0  0  0
    0.9510    0.2407    0.1522 C   0  0  0  0  0  0  0  0  0  0  0  0
   -1.2541   -2.2609    0.0184 C   0  0  0  0  0  0  0  0  0  0  0  0
    1.7017    0.2573   -1.0234 C   0  0  0  0  0  0  0  0  0  0  0  0
    1.5938    0.2225    1.3900 C   0  0  0  0  0  0  0  0  0  0  0  0
   -3.5665   -2.3234   -0.0858 C   0  0  0  0  0  0  0  0  0  0  0  0
    3.0951    0.2556   -0.9610 C   0  0  0  0  0  0  0  0  0  0  0  0
    2.9872    0.2208    1.4523 C   0  0  0  0  0  0  0  0  0  0  0  0
    3.7380    0.2374    0.2768 C   0  0  0  0  0  0  0  0  0  0  0  0
    5.1664    0.2347    0.3624 C   0  0  0  0  0  0  0  0  0  0  0  0
   -4.4403    1.5103   -0.0699 H   0  0  0  0  0  0  0  0  0  0  0  0
   -2.4383    3.5023   -1.2630 H   0  0  0  0  0  0  0  0  0  0  0  0
   -4.2047    3.6182   -1.3173 H   0  0  0  0  0  0  0  0  0  0  0  0
   -3.3737    2.3100   -2.1758 H   0  0  0  0  0  0  0  0  0  0  0  0
   -2.5548    3.4653    1.3520 H   0  0  0  0  0  0  0  0  0  0  0  0
   -3.5659    2.2488    2.1441 H   0  0  0  0  0  0  0  0  0  0  0  0
   -4.3191    3.5819    1.2525 H   0  0  0  0  0  0  0  0  0  0  0  0
    1.2012    0.2711   -1.9896 H   0  0  0  0  0  0  0  0  0  0  0  0
    1.0229    0.2089    2.3155 H   0  0  0  0  0  0  0  0  0  0  0  0
   -4.4566   -2.9413   -0.1343 H   0  0  0  0  0  0  0  0  0  0  0  0
    3.4727    0.2062    2.4252 H   0  0  0  0  0  0  0  0  0  0  0  0
    0.8557   -2.3918    0.1115 H   0  0  0  0  0  0  0  0  0  0  0  0
    0.0131   -3.9228    0.0523 H   0  0  0  0  0  0  0  0  0  0  0  0
    3.1861    0.2836   -2.8763 H   0  0  0  0  0  0  0  0  0  0  0  0
  1 19  1  0  0  0  0
  1 36  1  0  0  0  0
  2  3  1  0  0  0  0
  2  8  1  0  0  0  0
  2  9  1  0  0  0  0
  3 11  2  0  0  0  0
  4  9  2  0  0  0  0
  4 18  1  0  0  0  0
  5 15  1  0  0  0  0
  5 18  2  0  0  0  0
  6 15  1  0  0  0  0
  6 34  1  0  0  0  0
  6 35  1  0  0  0  0
  7 22  3  0  0  0  0
  8 12  1  0  0  0  0
  8 13  1  0  0  0  0
  8 23  1  0  0  0  0
  9 10  1  0  0  0  0
 10 11  1  0  0  0  0
 10 15  2  0  0  0  0
 11 14  1  0  0  0  0
 12 24  1  0  0  0  0
 12 25  1  0  0  0  0
 12 26  1  0  0  0  0
 13 27  1  0  0  0  0
 13 28  1  0  0  0  0
 13 29  1  0  0  0  0
 14 16  2  0  0  0  0
 14 17  1  0  0  0  0
 16 19  1  0  0  0  0
 16 30  1  0  0  0  0
 17 20  2  0  0  0  0
 17 31  1  0  0  0  0
 18 32  1  0  0  0  0
 19 21  2  0  0  0  0
 20 21  1  0  0  0  0
 20 33  1  0  0  0  0
 21 22  1  0  0  0  0
M  END
> <PUBCHEM_COMPOUND_CID>
24905240

> <PUBCHEM_CONFORMER_RMSD>
0.6

> <PUBCHEM_CONFORMER_DIVERSEORDER>
1
3
4
6
5
2

> <PUBCHEM_MMFF94_PARTIAL_CHARGES>
26
1 -0.53
11 0.23
14 0.05
15 0.41
16 -0.15
17 -0.15
18 0.47
19 0.08
2 0.31
20 -0.15
21 0.07
22 0.48
3 -0.71
30 0.15
31 0.15
32 0.15
33 0.15
34 0.4
35 0.4
36 0.45
4 -0.57
5 -0.62
6 -0.9
7 -0.56
8 0.26
9 0.11

> <PUBCHEM_EFFECTIVE_ROTOR_COUNT>
2

> <PUBCHEM_PHARMACOPHORE_FEATURES>
11
1 1 donor
1 3 acceptor
1 6 cation
1 6 donor
1 7 acceptor
3 2 4 9 cation
3 4 5 18 cation
3 8 12 13 hydrophobe
5 2 3 9 10 11 rings
6 14 16 17 19 20 21 rings
6 4 5 9 10 15 18 rings

> <PUBCHEM_HEAVY_ATOM_COUNT>
22

> <PUBCHEM_ATOM_DEF_STEREO_COUNT>
0

> <PUBCHEM_ATOM_UDEF_STEREO_COUNT>
0

> <PUBCHEM_BOND_DEF_STEREO_COUNT>
0

> <PUBCHEM_BOND_UDEF_STEREO_COUNT>
0

> <PUBCHEM_ISOTOPIC_ATOM_COUNT>
0

> <PUBCHEM_COMPONENT_COUNT>
1

> <PUBCHEM_CACTVS_TAUTO_COUNT>
15

> <PUBCHEM_CONFORMER_ID>
017C061800000001

> <PUBCHEM_MMFF94_ENERGY>
49.1431

> <PUBCHEM_FEATURE_SELFOVERLAP>
56.099

> <PUBCHEM_SHAPE_FINGERPRINT>
10165383 225 18269278967661869553
10319926 262 18270663334869062816
10411042 1 17978226394280549483
105312 117 18189890925095374565
11315181 36 18187924023800599192
11582403 64 16551370131234125953
11796584 16 18270683061633370606
12107183 9 18046616807938505410
12236239 1 17748821947276490706
12390115 104 18200606787084348337
12500047 106 18412537691828905568
12553582 1 18192434297491136803
12788726 201 18192164891008141175
13140716 1 18122629615911006115
13583140 156 17988633112933260478
14386348 63 17632303418868693062
14508225 48 18195230334338475029
15042514 8 18265335204131479227
16752209 62 18336536196848163691
16945 1 18410853300419215795
17844677 252 18340771541777568944
19049666 15 17917438587772269610
200 152 16660634194034059790
20510252 161 18271524290548243305
20645477 56 18412265012739898129
20645477 70 16343430505627736796
21033648 29 17346585388252881880
21065201 7 18412825794124971682
21279426 13 18200317598684107534
22907989 373 18261102011391601221
23175994 123 17060346261834155448
23402539 116 18340479071051402447
23557571 272 18273497896777427856
23559900 14 18201723891298789846
23598291 2 17676772049888431972
2748010 2 18194129512809009231
283562 15 18411976988518316363
4214541 1 18410853270175090280
474 4 16880202380082756164
5104073 3 18410005508261033538
5265222 85 18198912586422697446
559249 180 18335694997797375266
573450 72 18333724728594067194
57527295 17 16916213361102245241
59755656 520 18200595779098921193
6049 1 17917715750564976592
6327066 14 18043238051382502157
77492 1 17676483969062115594
81228 2 18338518663794742841
9709674 26 18272939323321867358
9862522 239 17823410496822858573

> <PUBCHEM_SHAPE_MULTIPOLES>
416.99
9.75
3.01
1.22
11.73
0.8
0.2
-3.1
-0.07
-5.78
0.02
0.84
-0.57
-0.07

> <PUBCHEM_SHAPE_SELFOVERLAP>
917.116

> <PUBCHEM_SHAPE_VOLUME>
222.4

> <PUBCHEM_COORDINATE_TYPE>
2
5
10

$$$$
