49830785
  -OEChem-10052120443D

 27 29  0     0  0  0  0  0  0999 V2000
    5.4903    0.4259   -0.0007 Br  0  0  0  0  0  0  0  0  0  0  0  0
   -3.4505    1.1535   -0.0006 N   0  0  0  0  0  0  0  0  0  0  0  0
   -2.6275    2.2154   -0.0001 N   0  0  0  0  0  0  0  0  0  0  0  0
   -0.2469    2.3632    0.0006 N   0  0  0  0  0  0  0  0  0  0  0  0
   -1.4517    0.2521    0.0003 C   0  0  0  0  0  0  0  0  0  0  0  0
   -0.5103   -0.7906    0.0006 C   0  0  0  0  0  0  0  0  0  0  0  0
   -2.8077   -0.0548   -0.0004 C   0  0  0  0  0  0  0  0  0  0  0  0
    0.9041   -0.5038    0.0003 C   0  0  0  0  0  0  0  0  0  0  0  0
   -1.4122    1.6631    0.0006 C   0  0  0  0  0  0  0  0  0  0  0  0
   -0.9751   -2.1117    0.0003 C   0  0  0  0  0  0  0  0  0  0  0  0
   -3.2922   -1.3646   -0.0005 C   0  0  0  0  0  0  0  0  0  0  0  0
   -2.3428   -2.3918   -0.0003 C   0  0  0  0  0  0  0  0  0  0  0  0
    1.5873   -0.3648   -1.2079 C   0  0  0  0  0  0  0  0  0  0  0  0
    1.5879   -0.3653    1.2082 C   0  0  0  0  0  0  0  0  0  0  0  0
    2.9543   -0.0878   -1.2082 C   0  0  0  0  0  0  0  0  0  0  0  0
    2.9550   -0.0884    1.2079 C   0  0  0  0  0  0  0  0  0  0  0  0
    3.6381    0.0505   -0.0003 C   0  0  0  0  0  0  0  0  0  0  0  0
   -0.2717   -2.9421    0.0004 H   0  0  0  0  0  0  0  0  0  0  0  0
   -4.3548   -1.5801   -0.0009 H   0  0  0  0  0  0  0  0  0  0  0  0
   -4.4487    1.3228   -0.0010 H   0  0  0  0  0  0  0  0  0  0  0  0
   -2.6771   -3.4263   -0.0006 H   0  0  0  0  0  0  0  0  0  0  0  0
    1.0691   -0.4689   -2.1583 H   0  0  0  0  0  0  0  0  0  0  0  0
    1.0702   -0.4698    2.1588 H   0  0  0  0  0  0  0  0  0  0  0  0
    3.4717    0.0177   -2.1582 H   0  0  0  0  0  0  0  0  0  0  0  0
    3.4729    0.0167    2.1577 H   0  0  0  0  0  0  0  0  0  0  0  0
    0.6772    1.9503    0.0010 H   0  0  0  0  0  0  0  0  0  0  0  0
   -0.2478    3.3788    0.0004 H   0  0  0  0  0  0  0  0  0  0  0  0
  1 17  1  0  0  0  0
  2  3  1  0  0  0  0
  2  7  1  0  0  0  0
  2 20  1  0  0  0  0
  3  9  2  0  0  0  0
  4  9  1  0  0  0  0
  4 26  1  0  0  0  0
  4 27  1  0  0  0  0
  5  6  2  0  0  0  0
  5  7  1  0  0  0  0
  5  9  1  0  0  0  0
  6  8  1  0  0  0  0
  6 10  1  0  0  0  0
  7 11  2  0  0  0  0
  8 13  2  0  0  0  0
  8 14  1  0  0  0  0
 10 12  2  0  0  0  0
 10 18  1  0  0  0  0
 11 12  1  0  0  0  0
 11 19  1  0  0  0  0
 12 21  1  0  0  0  0
 13 15  1  0  0  0  0
 13 22  1  0  0  0  0
 14 16  2  0  0  0  0
 14 23  1  0  0  0  0
 15 17  2  0  0  0  0
 15 24  1  0  0  0  0
 16 17  1  0  0  0  0
 16 25  1  0  0  0  0
M  END
> <PUBCHEM_COMPOUND_CID>
49830785

> <PUBCHEM_CONFORMER_RMSD>
0.6

> <PUBCHEM_CONFORMER_DIVERSEORDER>
1

> <PUBCHEM_MMFF94_PARTIAL_CHARGES>
24
1 -0.11
10 -0.15
11 -0.15
12 -0.15
13 -0.15
14 -0.15
15 -0.15
16 -0.15
17 0.11
18 0.15
19 0.15
2 0.3
20 0.27
21 0.15
22 0.15
23 0.15
24 0.15
25 0.15
26 0.4
27 0.4
3 -0.71
4 -0.88
7 -0.15
9 0.37

> <PUBCHEM_EFFECTIVE_ROTOR_COUNT>
1

> <PUBCHEM_PHARMACOPHORE_FEATURES>
7
1 1 hydrophobe
1 2 donor
1 4 donor
3 3 4 9 cation
5 2 3 5 7 9 rings
6 5 6 7 10 11 12 rings
6 8 13 14 15 16 17 rings

> <PUBCHEM_HEAVY_ATOM_COUNT>
17

> <PUBCHEM_ATOM_DEF_STEREO_COUNT>
0

> <PUBCHEM_ATOM_UDEF_STEREO_COUNT>
0

> <PUBCHEM_BOND_DEF_STEREO_COUNT>
0

> <PUBCHEM_BOND_UDEF_STEREO_COUNT>
0

> <PUBCHEM_ISOTOPIC_ATOM_COUNT>
0

> <PUBCHEM_COMPONENT_COUNT>
1

> <PUBCHEM_CACTVS_TAUTO_COUNT>
13

> <PUBCHEM_CONFORMER_ID>
02F85B8100000001

> <PUBCHEM_MMFF94_ENERGY>
44.0111

> <PUBCHEM_FEATURE_SELFOVERLAP>
35.611

> <PUBCHEM_SHAPE_FINGERPRINT>
10493431 412 18198353870737610065
10498660 4 18410291372061583484
10608611 8 18273210911188533560
10646746 165 18412261736164861992
10989021 7 18124032592468349587
11132069 177 18410858741583584717
11315181 36 17968375745410941942
12107183 9 17830162512362058370
12173636 292 18338516318368325829
12236239 1 17676485060042038906
12670546 56 18335690647026847562
13140716 1 18194409016263914507
13214271 11 18272649064767426892
13538477 17 18187359926405179074
13583140 156 17845068767593814330
13764800 53 18339086999331243697
13965767 371 17465387417402064740
14614273 12 18188204287301029677
15219456 202 17917715677882835358
15669948 3 18408878551111954563
15775835 57 18187085005601374648
16752209 62 18335972138835514383
16945 1 18410575110929034179
17357779 13 17986372577114072999
18186145 218 17917442964491604822
19049666 15 17916876690233665398
19868273 325 18409167748655803447
200 152 15936402377191965770
20510252 161 18342742896862940385
20645477 56 18412268311110952200
21267235 1 18335710493343007810
22094290 60 18412547643305267962
22802520 49 17987250931800604998
2297311 6 18341062903552476718
2334 1 17834113426696789779
23402539 116 18341043094746647790
23419403 2 17686863479129805405
23493267 7 18343581815850915618
23557571 272 18272096023772964596
23559900 14 18272092635466079838
2748010 2 18122897900969063455
474 4 17097220652394514836
5104073 3 18410855439307674842
573450 72 18261663823273777066
7097593 13 17826773872922439010
77492 1 17676205775440620386
81228 2 18411708707380302747
9709674 26 18342746191362007950

> <PUBCHEM_SHAPE_MULTIPOLES>
340.85
7.78
2.12
0.96
8.3
0.43
0
0.48
0
-2.66
0
0.81
-0.11
0

> <PUBCHEM_SHAPE_SELFOVERLAP>
749.927

> <PUBCHEM_SHAPE_VOLUME>
190.1

> <PUBCHEM_COORDINATE_TYPE>
2
5
10

$$$$
