4121107
  -OEChem-10052120443D

 34 36  0     0  0  0  0  0  0999 V2000
    5.9911    2.3893   -0.0019 S   0  0  0  0  0  0  0  0  0  0  0  0
   -4.6131    2.5888    0.0049 O   0  0  0  0  0  0  0  0  0  0  0  0
   -7.9158   -0.8453   -0.0011 O   0  0  0  0  0  0  0  0  0  0  0  0
    0.6696   -1.7646    0.0006 O   0  0  0  0  0  0  0  0  0  0  0  0
    1.9805    0.1892   -0.0008 N   0  0  0  0  0  0  0  0  0  0  0  0
    4.4048    1.8977   -0.0013 N   0  0  0  0  0  0  0  0  0  0  0  0
    6.7716    0.9235   -0.0008 N   0  0  0  0  0  0  0  0  0  0  0  0
   -0.3273    0.3168   -0.0028 N   0  0  0  0  0  0  0  0  0  0  0  0
   -1.5714   -0.2136   -0.0022 N   0  0  0  0  0  0  0  0  0  0  0  0
    3.2871   -0.2935    0.0009 C   0  0  0  0  0  0  0  0  0  0  0  0
    4.4201    0.5550   -0.0001 C   0  0  0  0  0  0  0  0  0  0  0  0
    5.8155   -0.0193    0.0002 C   0  0  0  0  0  0  0  0  0  0  0  0
    3.5538   -1.6733    0.0019 C   0  0  0  0  0  0  0  0  0  0  0  0
    6.0229   -1.4196    0.0015 C   0  0  0  0  0  0  0  0  0  0  0  0
    4.8622   -2.2118    0.0023 C   0  0  0  0  0  0  0  0  0  0  0  0
   -3.9403    0.2868    0.0010 C   0  0  0  0  0  0  0  0  0  0  0  0
   -4.9253    1.2622    0.0015 C   0  0  0  0  0  0  0  0  0  0  0  0
   -4.2638   -1.0615   -0.0005 C   0  0  0  0  0  0  0  0  0  0  0  0
   -6.2667    0.8803    0.0004 C   0  0  0  0  0  0  0  0  0  0  0  0
    0.7735   -0.5399   -0.0013 C   0  0  0  0  0  0  0  0  0  0  0  0
   -6.6068   -0.4724   -0.0010 C   0  0  0  0  0  0  0  0  0  0  0  0
   -5.6053   -1.4434   -0.0015 C   0  0  0  0  0  0  0  0  0  0  0  0
   -2.5170    0.6688    0.0001 C   0  0  0  0  0  0  0  0  0  0  0  0
    2.7649   -2.4166    0.0025 H   0  0  0  0  0  0  0  0  0  0  0  0
    7.0122   -1.8622    0.0017 H   0  0  0  0  0  0  0  0  0  0  0  0
    4.9757   -3.2952    0.0032 H   0  0  0  0  0  0  0  0  0  0  0  0
    1.8901    1.2022   -0.0022 H   0  0  0  0  0  0  0  0  0  0  0  0
   -3.5066   -1.8402   -0.0011 H   0  0  0  0  0  0  0  0  0  0  0  0
   -7.0486    1.6361    0.0012 H   0  0  0  0  0  0  0  0  0  0  0  0
   -5.8644   -2.4987   -0.0025 H   0  0  0  0  0  0  0  0  0  0  0  0
   -2.2881    1.7503    0.0013 H   0  0  0  0  0  0  0  0  0  0  0  0
   -0.2261    1.3266   -0.0030 H   0  0  0  0  0  0  0  0  0  0  0  0
   -5.4346    3.1093    0.0052 H   0  0  0  0  0  0  0  0  0  0  0  0
   -8.4714   -0.0471   -0.0005 H   0  0  0  0  0  0  0  0  0  0  0  0
  1  6  1  0  0  0  0
  1  7  1  0  0  0  0
  2 17  1  0  0  0  0
  2 33  1  0  0  0  0
  3 21  1  0  0  0  0
  3 34  1  0  0  0  0
  4 20  2  0  0  0  0
  5 10  1  0  0  0  0
  5 20  1  0  0  0  0
  5 27  1  0  0  0  0
  6 11  2  0  0  0  0
  7 12  2  0  0  0  0
  8  9  1  0  0  0  0
  8 20  1  0  0  0  0
  8 32  1  0  0  0  0
  9 23  2  3  0  0  0
 10 11  1  0  0  0  0
 10 13  2  0  0  0  0
 11 12  1  0  0  0  0
 12 14  1  0  0  0  0
 13 15  1  0  0  0  0
 13 24  1  0  0  0  0
 14 15  2  0  0  0  0
 14 25  1  0  0  0  0
 15 26  1  0  0  0  0
 16 17  2  0  0  0  0
 16 18  1  0  0  0  0
 16 23  1  0  0  0  0
 17 19  1  0  0  0  0
 18 22  2  0  0  0  0
 18 28  1  0  0  0  0
 19 21  2  0  0  0  0
 19 29  1  0  0  0  0
 21 22  1  0  0  0  0
 22 30  1  0  0  0  0
 23 31  1  0  0  0  0
M  END
> <PUBCHEM_COMPOUND_CID>
4121107

> <PUBCHEM_CONFORMER_RMSD>
0.8

> <PUBCHEM_CONFORMER_DIVERSEORDER>
1
31
26
30
17
27
32
10
16
25
28
4
15
33
18
3
22
5
21
7
2
24
23
12
8
11
29
20
6
9
19
14
13

> <PUBCHEM_MMFF94_PARTIAL_CHARGES>
34
1 0.44
10 0.12
11 0.29
12 0.29
13 -0.15
14 -0.15
15 -0.15
16 0.09
17 0.08
18 -0.15
19 -0.15
2 -0.53
20 0.69
21 0.08
22 -0.15
23 0.3
24 0.15
25 0.15
26 0.15
27 0.37
28 0.15
29 0.15
3 -0.53
30 0.15
31 0.06
32 0.37
33 0.45
34 0.45
4 -0.57
5 -0.55
6 -0.51
7 -0.51
8 -0.37
9 -0.51

> <PUBCHEM_EFFECTIVE_ROTOR_COUNT>
5

> <PUBCHEM_PHARMACOPHORE_FEATURES>
11
1 2 donor
1 3 donor
1 4 acceptor
1 5 donor
1 6 acceptor
1 7 acceptor
1 8 donor
1 9 acceptor
5 1 6 7 11 12 rings
6 10 11 12 13 14 15 rings
6 16 17 18 19 21 22 rings

> <PUBCHEM_HEAVY_ATOM_COUNT>
23

> <PUBCHEM_ATOM_DEF_STEREO_COUNT>
0

> <PUBCHEM_ATOM_UDEF_STEREO_COUNT>
0

> <PUBCHEM_BOND_DEF_STEREO_COUNT>
0

> <PUBCHEM_BOND_UDEF_STEREO_COUNT>
1

> <PUBCHEM_ISOTOPIC_ATOM_COUNT>
0

> <PUBCHEM_COMPONENT_COUNT>
1

> <PUBCHEM_CACTVS_TAUTO_COUNT>
66

> <PUBCHEM_CONFORMER_ID>
003EE21300000001

> <PUBCHEM_MMFF94_ENERGY>
65.3258

> <PUBCHEM_FEATURE_SELFOVERLAP>
55.989

> <PUBCHEM_SHAPE_FINGERPRINT>
10299344 5 18130790070858270891
10411042 1 18050285870337020818
10595046 47 18411699868047301281
10835480 77 18337386046549012981
10968037 39 18410291428908696263
11315181 36 18343303670217560313
11524674 6 16200430291394492111
11719270 70 18060135406028214614
11991303 11 17203324567481877119
12107183 9 17618222801947600147
12166972 35 18408326587753863892
12236239 1 18343021077404581863
12516196 113 18411136935332024597
13073987 5 18410012109166804689
13167372 99 18341051813846938456
13533116 47 17095796617147976986
13785724 45 17692533317493636958
14251732 16 18409730681450493487
14251764 18 18410573989462255703
14461889 52 18334856177562032354
14933364 13 18411420604926149765
15183329 4 18411420591946101360
15419008 145 18189321404517398840
15716309 27 18272369772267274031
16993427 108 16737465657898790346
17844677 252 18411424977224060037
19427546 62 18335703905812631058
20157964 124 18411702089109869594
20281389 69 18334575728665753773
21315763 129 18338235968441145724
21315763 28 18410572864228504802
220451 1 16845850187586919815
23081809 10 17989484113189258287
23522609 53 17844553126320465713
23536379 177 18411136909440674371
23559900 14 18338791330158000505
23569943 247 17170667779404950114
3004659 81 18409167684658711434
335352 9 18410299108637386366
34797466 226 17918283060036687060
4073 2 18041565840198837706
4325135 7 18412826906173205479
5104073 3 18261396611271273777
9996256 80 18411417297954078879

> <PUBCHEM_SHAPE_MULTIPOLES>
434.67
22.99
2.22
0.59
12.81
0.54
0
1.92
0
-2.16
0
-0.04
0
-0.01

> <PUBCHEM_SHAPE_SELFOVERLAP>
931.731

> <PUBCHEM_SHAPE_VOLUME>
240.2

> <PUBCHEM_COORDINATE_TYPE>
2
5
10

$$$$
