49830700
  -OEChem-10052115183D

 38 40  0     0  0  0  0  0  0999 V2000
   -6.8315    2.2330   -0.0001 F   0  0  0  0  0  0  0  0  0  0  0  0
   -7.3714    0.4268   -1.0837 F   0  0  0  0  0  0  0  0  0  0  0  0
   -7.3705    0.4276    1.0851 F   0  0  0  0  0  0  0  0  0  0  0  0
    7.6707   -0.5141    0.0017 F   0  0  0  0  0  0  0  0  0  0  0  0
    6.1542   -1.6343    1.0848 F   0  0  0  0  0  0  0  0  0  0  0  0
    6.1560   -1.6343   -1.0841 F   0  0  0  0  0  0  0  0  0  0  0  0
    1.7176   -1.2339   -0.0008 O   0  0  0  0  0  0  0  0  0  0  0  0
   -0.1637    0.1607   -0.0001 N   0  0  0  0  0  0  0  0  0  0  0  0
   -3.2833   -2.6240    0.0000 N   0  0  0  0  0  0  0  0  0  0  0  0
    1.9445    1.0935   -0.0004 N   0  0  0  0  0  0  0  0  0  0  0  0
    4.1350    0.1685   -0.0008 N   0  0  0  0  0  0  0  0  0  0  0  0
   -2.5650   -0.3238   -0.0001 C   0  0  0  0  0  0  0  0  0  0  0  0
   -3.5741   -1.3094    0.0001 C   0  0  0  0  0  0  0  0  0  0  0  0
   -1.2291   -0.7473   -0.0001 C   0  0  0  0  0  0  0  0  0  0  0  0
   -5.2391    0.4675    0.0001 C   0  0  0  0  0  0  0  0  0  0  0  0
   -2.9047    1.0398   -0.0005 C   0  0  0  0  0  0  0  0  0  0  0  0
   -4.9011   -0.8880    0.0004 C   0  0  0  0  0  0  0  0  0  0  0  0
   -4.2400    1.4328   -0.0005 C   0  0  0  0  0  0  0  0  0  0  0  0
   -0.9263   -2.1013   -0.0004 C   0  0  0  0  0  0  0  0  0  0  0  0
   -1.9812   -2.9910   -0.0004 C   0  0  0  0  0  0  0  0  0  0  0  0
   -6.6731    0.8774    0.0003 C   0  0  0  0  0  0  0  0  0  0  0  0
    1.2233   -0.1111   -0.0005 C   0  0  0  0  0  0  0  0  0  0  0  0
    3.3487    1.2681   -0.0006 C   0  0  0  0  0  0  0  0  0  0  0  0
    5.4696    0.3847   -0.0005 C   0  0  0  0  0  0  0  0  0  0  0  0
    3.8312    2.5669    0.0001 C   0  0  0  0  0  0  0  0  0  0  0  0
    6.0514    1.6421   -0.0001 C   0  0  0  0  0  0  0  0  0  0  0  0
    5.2096    2.7488    0.0003 C   0  0  0  0  0  0  0  0  0  0  0  0
    6.3423   -0.8258    0.0005 C   0  0  0  0  0  0  0  0  0  0  0  0
   -2.1668    1.8351   -0.0008 H   0  0  0  0  0  0  0  0  0  0  0  0
   -5.6958   -1.6329    0.0007 H   0  0  0  0  0  0  0  0  0  0  0  0
   -4.4783    2.4926   -0.0008 H   0  0  0  0  0  0  0  0  0  0  0  0
    0.0572   -2.5405   -0.0005 H   0  0  0  0  0  0  0  0  0  0  0  0
   -0.3954    1.1467    0.0001 H   0  0  0  0  0  0  0  0  0  0  0  0
   -1.8071   -4.0622   -0.0006 H   0  0  0  0  0  0  0  0  0  0  0  0
    1.3976    1.9509    0.0000 H   0  0  0  0  0  0  0  0  0  0  0  0
    3.1699    3.4272    0.0005 H   0  0  0  0  0  0  0  0  0  0  0  0
    7.1266    1.7834    0.0002 H   0  0  0  0  0  0  0  0  0  0  0  0
    5.6271    3.7513    0.0007 H   0  0  0  0  0  0  0  0  0  0  0  0
  1 21  1  0  0  0  0
  2 21  1  0  0  0  0
  3 21  1  0  0  0  0
  4 28  1  0  0  0  0
  5 28  1  0  0  0  0
  6 28  1  0  0  0  0
  7 22  2  0  0  0  0
  8 14  1  0  0  0  0
  8 22  1  0  0  0  0
  8 33  1  0  0  0  0
  9 13  2  0  0  0  0
  9 20  1  0  0  0  0
 10 22  1  0  0  0  0
 10 23  1  0  0  0  0
 10 35  1  0  0  0  0
 11 23  1  0  0  0  0
 11 24  2  0  0  0  0
 12 13  1  0  0  0  0
 12 14  2  0  0  0  0
 12 16  1  0  0  0  0
 13 17  1  0  0  0  0
 14 19  1  0  0  0  0
 15 17  2  0  0  0  0
 15 18  1  0  0  0  0
 15 21  1  0  0  0  0
 16 18  2  0  0  0  0
 16 29  1  0  0  0  0
 17 30  1  0  0  0  0
 18 31  1  0  0  0  0
 19 20  2  0  0  0  0
 19 32  1  0  0  0  0
 20 34  1  0  0  0  0
 23 25  2  0  0  0  0
 24 26  1  0  0  0  0
 24 28  1  0  0  0  0
 25 27  1  0  0  0  0
 25 36  1  0  0  0  0
 26 27  2  0  0  0  0
 26 37  1  0  0  0  0
 27 38  1  0  0  0  0
M  END
> <PUBCHEM_COMPOUND_CID>
49830700

> <PUBCHEM_CONFORMER_RMSD>
0.8

> <PUBCHEM_CONFORMER_DIVERSEORDER>
1
27
7
9
10
11
18
20
24
5
22
8
4
28
17
15
21
12
23
19
25
14
26
3
16
2
6
13

> <PUBCHEM_MMFF94_PARTIAL_CHARGES>
37
1 -0.34
10 -0.55
11 -0.62
13 0.31
14 0.12
15 -0.14
16 -0.15
17 -0.15
18 -0.15
19 -0.15
2 -0.34
20 0.16
21 1.16
22 0.69
23 0.43
24 0.17
25 -0.15
26 -0.15
27 -0.15
28 1.16
29 0.15
3 -0.34
30 0.15
31 0.15
32 0.15
33 0.37
34 0.15
35 0.37
36 0.15
37 0.15
38 0.15
4 -0.34
5 -0.34
6 -0.34
7 -0.57
8 -0.55
9 -0.62

> <PUBCHEM_EFFECTIVE_ROTOR_COUNT>
6

> <PUBCHEM_PHARMACOPHORE_FEATURES>
8
1 10 donor
1 11 acceptor
1 7 acceptor
1 8 donor
1 9 acceptor
6 11 23 24 25 26 27 rings
6 12 13 15 16 17 18 rings
6 9 12 13 14 19 20 rings

> <PUBCHEM_HEAVY_ATOM_COUNT>
28

> <PUBCHEM_ATOM_DEF_STEREO_COUNT>
0

> <PUBCHEM_ATOM_UDEF_STEREO_COUNT>
0

> <PUBCHEM_BOND_DEF_STEREO_COUNT>
0

> <PUBCHEM_BOND_UDEF_STEREO_COUNT>
0

> <PUBCHEM_ISOTOPIC_ATOM_COUNT>
0

> <PUBCHEM_COMPONENT_COUNT>
1

> <PUBCHEM_CACTVS_TAUTO_COUNT>
11

> <PUBCHEM_CONFORMER_ID>
02F85B2C00000001

> <PUBCHEM_MMFF94_ENERGY>
72.3473

> <PUBCHEM_FEATURE_SELFOVERLAP>
40.681

> <PUBCHEM_SHAPE_FINGERPRINT>
10 15 18187370952366833097
10411042 1 17617941774687821931
10595046 47 18121499313509457180
10835480 77 18271522121685243408
11315181 36 17489872665099374747
11719270 70 17847062168957761110
11796584 16 18342740750007559170
12107183 9 18336822001399725034
12236239 1 18260265282446640531
12516196 113 8286200548014774623
13073987 5 18264770046490404058
14117953 113 18260265218792875941
14257110 125 18409729565413085275
14341114 176 18336267928827381396
14347424 109 18411412922089617504
14904525 67 15502367954930692334
14933364 13 18408042935265215688
15183329 4 18342462530256927672
15196674 1 18338797931073899492
1577012 14 18339922718246868884
15849732 13 17821730537686925765
17844677 252 18338242673507210096
18335252 114 18412255138736867221
18608769 82 18340209708853293699
19611394 137 17969236693191045353
20281389 69 18334575745951267397
21033648 29 17987506186413560408
21236236 1 18341049739736372079
21279426 13 18412266151175023078
21585482 111 18119529835373143965
21859007 373 17896029958519249453
23559900 14 18270956967943886552
249057 3 18410856568762480716
2838139 119 18413385437101411245
3004659 81 18409168823262699752
3103668 31 18043809788960616364
335352 9 18410856568577949156
350125 39 18335980882950689377
3545911 37 18409449180804264317
3633792 109 18271244907405130737
4073 2 18042126630147205730
4144715 1 17971481937924605506
4214541 1 18410574028528495940
5104073 3 18337107977380758498
559249 180 18411980282125352870
59755656 215 18410294670712388046
59755656 520 18335696157338318439
6299153 45 18338801113212208168
9995097 60 18413390947417812358

> <PUBCHEM_SHAPE_MULTIPOLES>
506.79
21.83
2.76
0.7
4.04
0.42
0
-6.33
-0.01
0.66
0
-0.08
0.06
0

> <PUBCHEM_SHAPE_SELFOVERLAP>
1116.951

> <PUBCHEM_SHAPE_VOLUME>
271.9

> <PUBCHEM_COORDINATE_TYPE>
2
5
10

$$$$
