49830437
  -OEChem-10062121533D

 41 43  0     0  0  0  0  0  0999 V2000
   -4.7287    0.9254   -0.2241 S   0  0  0  0  0  0  0  0  0  0  0  0
   -5.9673    1.6088    0.0986 O   0  0  0  0  0  0  0  0  0  0  0  0
   -4.0804    1.1396   -1.5027 O   0  0  0  0  0  0  0  0  0  0  0  0
   -3.6223    1.1617    1.0745 N   0  0  0  0  0  0  0  0  0  0  0  0
    5.7516   -1.1618   -0.3171 N   0  0  0  0  0  0  0  0  0  0  0  0
    6.3183    0.0300   -0.5687 N   0  0  0  0  0  0  0  0  0  0  0  0
    5.3693    2.2255   -0.6750 N   0  0  0  0  0  0  0  0  0  0  0  0
   -5.0423   -0.8175   -0.0563 C   0  0  0  0  0  0  0  0  0  0  0  0
    1.7825   -0.3454    0.2923 C   0  0  0  0  0  0  0  0  0  0  0  0
    0.4015    0.0404    0.4929 C   0  0  0  0  0  0  0  0  0  0  0  0
   -6.0188   -1.3083   -1.1121 C   0  0  0  0  0  0  0  0  0  0  0  0
   -2.2601    0.7825    0.8774 C   0  0  0  0  0  0  0  0  0  0  0  0
    4.0708    0.2411   -0.1916 C   0  0  0  0  0  0  0  0  0  0  0  0
    4.4041   -1.1043   -0.0828 C   0  0  0  0  0  0  0  0  0  0  0  0
    2.7364    0.6371   -0.0018 C   0  0  0  0  0  0  0  0  0  0  0  0
    2.1447   -1.6897    0.3958 C   0  0  0  0  0  0  0  0  0  0  0  0
   -0.4120   -0.6998    1.3508 C   0  0  0  0  0  0  0  0  0  0  0  0
   -0.1158    1.1517   -0.1727 C   0  0  0  0  0  0  0  0  0  0  0  0
   -1.7428   -0.3288    1.5431 C   0  0  0  0  0  0  0  0  0  0  0  0
   -1.4466    1.5228    0.0195 C   0  0  0  0  0  0  0  0  0  0  0  0
    3.4690   -2.0995    0.2098 C   0  0  0  0  0  0  0  0  0  0  0  0
    5.2927    0.8811   -0.4911 C   0  0  0  0  0  0  0  0  0  0  0  0
   -6.3038   -2.7929   -0.9587 C   0  0  0  0  0  0  0  0  0  0  0  0
   -4.0867   -1.3404   -0.1586 H   0  0  0  0  0  0  0  0  0  0  0  0
   -5.4405   -0.9850    0.9496 H   0  0  0  0  0  0  0  0  0  0  0  0
   -5.6168   -1.1204   -2.1145 H   0  0  0  0  0  0  0  0  0  0  0  0
   -6.9613   -0.7528   -1.0421 H   0  0  0  0  0  0  0  0  0  0  0  0
   -3.9888    0.9298    2.0075 H   0  0  0  0  0  0  0  0  0  0  0  0
    2.4934    1.6931   -0.0583 H   0  0  0  0  0  0  0  0  0  0  0  0
    1.4157   -2.4730    0.5902 H   0  0  0  0  0  0  0  0  0  0  0  0
   -0.0460   -1.5528    1.9154 H   0  0  0  0  0  0  0  0  0  0  0  0
    0.4699    1.7411   -0.8726 H   0  0  0  0  0  0  0  0  0  0  0  0
   -2.3663   -0.9093    2.2183 H   0  0  0  0  0  0  0  0  0  0  0  0
   -1.8337    2.3947   -0.5014 H   0  0  0  0  0  0  0  0  0  0  0  0
    3.7514   -3.1438    0.2822 H   0  0  0  0  0  0  0  0  0  0  0  0
   -5.3861   -3.3810   -1.0611 H   0  0  0  0  0  0  0  0  0  0  0  0
   -6.7432   -3.0089    0.0204 H   0  0  0  0  0  0  0  0  0  0  0  0
   -7.0079   -3.1255   -1.7278 H   0  0  0  0  0  0  0  0  0  0  0  0
    6.3440   -1.9827   -0.3203 H   0  0  0  0  0  0  0  0  0  0  0  0
    6.2477    2.6863   -0.8912 H   0  0  0  0  0  0  0  0  0  0  0  0
    4.5647    2.8413   -0.6086 H   0  0  0  0  0  0  0  0  0  0  0  0
  1  2  2  0  0  0  0
  1  3  2  0  0  0  0
  1  4  1  0  0  0  0
  1  8  1  0  0  0  0
  4 12  1  0  0  0  0
  4 28  1  0  0  0  0
  5  6  1  0  0  0  0
  5 14  1  0  0  0  0
  5 39  1  0  0  0  0
  6 22  2  0  0  0  0
  7 22  1  0  0  0  0
  7 40  1  0  0  0  0
  7 41  1  0  0  0  0
  8 11  1  0  0  0  0
  8 24  1  0  0  0  0
  8 25  1  0  0  0  0
  9 10  1  0  0  0  0
  9 15  2  0  0  0  0
  9 16  1  0  0  0  0
 10 17  2  0  0  0  0
 10 18  1  0  0  0  0
 11 23  1  0  0  0  0
 11 26  1  0  0  0  0
 11 27  1  0  0  0  0
 12 19  2  0  0  0  0
 12 20  1  0  0  0  0
 13 14  2  0  0  0  0
 13 15  1  0  0  0  0
 13 22  1  0  0  0  0
 14 21  1  0  0  0  0
 15 29  1  0  0  0  0
 16 21  2  0  0  0  0
 16 30  1  0  0  0  0
 17 19  1  0  0  0  0
 17 31  1  0  0  0  0
 18 20  2  0  0  0  0
 18 32  1  0  0  0  0
 19 33  1  0  0  0  0
 20 34  1  0  0  0  0
 21 35  1  0  0  0  0
 23 36  1  0  0  0  0
 23 37  1  0  0  0  0
 23 38  1  0  0  0  0
M  END
> <PUBCHEM_COMPOUND_CID>
49830437

> <PUBCHEM_CONFORMER_RMSD>
0.8

> <PUBCHEM_CONFORMER_DIVERSEORDER>
1
31
37
19
15
12
3
14
20
11
10
5
33
29
32
9
22
38
4
21
27
13
6
28
7
25
26
39
34
18
24
23
30
2
16
36
8
35
17

> <PUBCHEM_MMFF94_PARTIAL_CHARGES>
29
1 1.33
12 0.2
14 -0.15
15 -0.15
16 -0.15
17 -0.15
18 -0.15
19 -0.15
2 -0.65
20 -0.15
21 -0.15
22 0.37
28 0.42
29 0.15
3 -0.65
30 0.15
31 0.15
32 0.15
33 0.15
34 0.15
35 0.15
39 0.27
4 -0.76
40 0.4
41 0.4
5 0.3
6 -0.71
7 -0.88
8 0.11

> <PUBCHEM_EFFECTIVE_ROTOR_COUNT>
5

> <PUBCHEM_PHARMACOPHORE_FEATURES>
10
1 2 acceptor
1 23 hydrophobe
1 3 acceptor
1 4 donor
1 5 donor
1 7 donor
3 6 7 22 cation
5 5 6 13 14 22 rings
6 10 12 17 18 19 20 rings
6 9 13 14 15 16 21 rings

> <PUBCHEM_HEAVY_ATOM_COUNT>
23

> <PUBCHEM_ATOM_DEF_STEREO_COUNT>
0

> <PUBCHEM_ATOM_UDEF_STEREO_COUNT>
0

> <PUBCHEM_BOND_DEF_STEREO_COUNT>
0

> <PUBCHEM_BOND_UDEF_STEREO_COUNT>
0

> <PUBCHEM_ISOTOPIC_ATOM_COUNT>
0

> <PUBCHEM_COMPONENT_COUNT>
1

> <PUBCHEM_CACTVS_TAUTO_COUNT>
35

> <PUBCHEM_CONFORMER_ID>
02F85A2500000001

> <PUBCHEM_MMFF94_ENERGY>
54.352

> <PUBCHEM_FEATURE_SELFOVERLAP>
50.854

> <PUBCHEM_SHAPE_FINGERPRINT>
105312 117 15357695280495745771
10554248 39 17095243597333516670
10595046 47 18412263921696638729
11089746 13 17821446846591427696
117089 54 17905326583474773759
11796584 16 17989205902715039127
12236239 1 18343865506619261668
12821665 9 18263930006679468997
12969540 114 17312817169676022987
13288520 33 18131069347117466729
13533116 47 16950556628808612650
13631057 29 18201998854889081091
13668630 136 17917999356372792070
13690498 29 18411128165936831693
14251757 5 18270675506343181895
14461889 52 18201428246977251722
14466204 15 7925637717541496751
14528608 73 18409733958705751632
15142383 8 8935010256585292622
15183329 4 18260260841835948539
15348495 7 11527654306751362599
15461852 350 18413111676096649070
15537594 2 16128371567331557831
16993438 75 18042695073206732355
17834072 33 18412545401015666032
1813 80 14979953653725210480
19489759 90 15502381118879125329
200 152 18201439146928833448
20028762 73 18268988700987804610
20281389 69 11891336452287946327
20645477 70 18338240337092863578
21054139 6 18411697694667820486
21150785 3 18336827584208265550
21196832 93 18119530083932373771
220451 1 18271812289617050323
2303208 19 14549022061118704564
23402539 116 18261112950414814497
23522609 53 17914645892910824289
23559900 14 18335421296104984480
2838139 119 17603303739076530693
29717793 49 18059581231040365348
335352 9 18335428968229520726
3545911 37 17967542242144982352
4015057 19 18260555562270514209
4325135 7 18408603665042058295
5283173 99 17894628123927222853
59755656 520 16515688835840275771
7226269 152 12757146870732231151
7495541 125 17847056679794079008
8863177 126 17416956408826924943

> <PUBCHEM_SHAPE_MULTIPOLES>
445.52
16.96
2.19
1.11
3.97
0.73
0.13
3.13
-6.5
1.44
-0.44
0.99
0.05
-1.49

> <PUBCHEM_SHAPE_SELFOVERLAP>
954.432

> <PUBCHEM_SHAPE_VOLUME>
248.5

> <PUBCHEM_COORDINATE_TYPE>
2
5
10

$$$$
