21362674
  -OEChem-10062122043D

 35 38  0     0  0  0  0  0  0999 V2000
    1.3887   -4.6025   -0.1222 Cl  0  0  0  0  0  0  0  0  0  0  0  0
   -2.7672   -2.0088   -0.0424 O   0  0  0  0  0  0  0  0  0  0  0  0
    1.4050    1.2364    0.0502 N   0  0  0  0  0  0  0  0  0  0  0  0
   -1.2475   -0.2152    0.0090 N   0  0  0  0  0  0  0  0  0  0  0  0
    4.7668    2.7538    0.0910 N   0  0  0  0  0  0  0  0  0  0  0  0
    1.1935   -0.1219    0.0107 C   0  0  0  0  0  0  0  0  0  0  0  0
    2.4468   -0.7353   -0.0075 C   0  0  0  0  0  0  0  0  0  0  0  0
    3.4308    0.3031    0.0227 C   0  0  0  0  0  0  0  0  0  0  0  0
    2.7492    1.5191    0.0578 C   0  0  0  0  0  0  0  0  0  0  0  0
   -0.0040   -0.8462   -0.0101 C   0  0  0  0  0  0  0  0  0  0  0  0
    2.5078   -2.1441   -0.0490 C   0  0  0  0  0  0  0  0  0  0  0  0
    0.0826   -2.2405   -0.0508 C   0  0  0  0  0  0  0  0  0  0  0  0
    4.8343    0.3237    0.0230 C   0  0  0  0  0  0  0  0  0  0  0  0
    1.3188   -2.8818   -0.0701 C   0  0  0  0  0  0  0  0  0  0  0  0
    3.4139    2.7381    0.0920 C   0  0  0  0  0  0  0  0  0  0  0  0
    5.4315    1.5768    0.0580 C   0  0  0  0  0  0  0  0  0  0  0  0
   -2.5170   -0.8087   -0.0076 C   0  0  0  0  0  0  0  0  0  0  0  0
   -3.6634    0.1376   -0.0082 C   0  0  0  0  0  0  0  0  0  0  0  0
   -4.8912   -0.2535    0.5257 C   0  0  0  0  0  0  0  0  0  0  0  0
   -3.5111    1.4168   -0.5430 C   0  0  0  0  0  0  0  0  0  0  0  0
   -5.9670    0.6346    0.5247 C   0  0  0  0  0  0  0  0  0  0  0  0
   -4.5867    2.3049   -0.5440 C   0  0  0  0  0  0  0  0  0  0  0  0
   -5.8147    1.9137   -0.0101 C   0  0  0  0  0  0  0  0  0  0  0  0
    0.6733    1.9331    0.0703 H   0  0  0  0  0  0  0  0  0  0  0  0
    3.4723   -2.6451   -0.0643 H   0  0  0  0  0  0  0  0  0  0  0  0
   -0.7885   -2.8819   -0.0694 H   0  0  0  0  0  0  0  0  0  0  0  0
    5.4273   -0.5833   -0.0031 H   0  0  0  0  0  0  0  0  0  0  0  0
    2.9071    3.6938    0.1192 H   0  0  0  0  0  0  0  0  0  0  0  0
   -1.1972    0.7965    0.0796 H   0  0  0  0  0  0  0  0  0  0  0  0
    6.5138    1.6658    0.0596 H   0  0  0  0  0  0  0  0  0  0  0  0
   -5.0290   -1.2439    0.9517 H   0  0  0  0  0  0  0  0  0  0  0  0
   -2.5861    1.7520   -1.0024 H   0  0  0  0  0  0  0  0  0  0  0  0
   -6.9229    0.3305    0.9411 H   0  0  0  0  0  0  0  0  0  0  0  0
   -4.4713    3.2982   -0.9679 H   0  0  0  0  0  0  0  0  0  0  0  0
   -6.6526    2.6046   -0.0124 H   0  0  0  0  0  0  0  0  0  0  0  0
  1 14  1  0  0  0  0
  2 17  2  0  0  0  0
  3  6  1  0  0  0  0
  3  9  1  0  0  0  0
  3 24  1  0  0  0  0
  4 10  1  0  0  0  0
  4 17  1  0  0  0  0
  4 29  1  0  0  0  0
  5 15  2  0  0  0  0
  5 16  1  0  0  0  0
  6  7  2  0  0  0  0
  6 10  1  0  0  0  0
  7  8  1  0  0  0  0
  7 11  1  0  0  0  0
  8  9  2  0  0  0  0
  8 13  1  0  0  0  0
  9 15  1  0  0  0  0
 10 12  2  0  0  0  0
 11 14  2  0  0  0  0
 11 25  1  0  0  0  0
 12 14  1  0  0  0  0
 12 26  1  0  0  0  0
 13 16  2  0  0  0  0
 13 27  1  0  0  0  0
 15 28  1  0  0  0  0
 16 30  1  0  0  0  0
 17 18  1  0  0  0  0
 18 19  2  0  0  0  0
 18 20  1  0  0  0  0
 19 21  1  0  0  0  0
 19 31  1  0  0  0  0
 20 22  2  0  0  0  0
 20 32  1  0  0  0  0
 21 23  2  0  0  0  0
 21 33  1  0  0  0  0
 22 23  1  0  0  0  0
 22 34  1  0  0  0  0
 23 35  1  0  0  0  0
M  END
> <PUBCHEM_COMPOUND_CID>
21362674

> <PUBCHEM_CONFORMER_RMSD>
0.6

> <PUBCHEM_CONFORMER_DIVERSEORDER>
1
4
3
2
5
6

> <PUBCHEM_MMFF94_PARTIAL_CHARGES>
33
1 -0.18
10 0.12
11 -0.15
12 -0.15
13 -0.15
14 0.18
15 0.16
16 0.16
17 0.54
18 0.09
19 -0.15
2 -0.57
20 -0.15
21 -0.15
22 -0.15
23 -0.15
24 0.27
25 0.15
26 0.15
27 0.15
28 0.15
29 0.37
3 0.03
30 0.15
31 0.15
32 0.15
33 0.15
34 0.15
35 0.15
4 -0.55
5 -0.62
6 -0.15
9 -0.15

> <PUBCHEM_EFFECTIVE_ROTOR_COUNT>
3

> <PUBCHEM_PHARMACOPHORE_FEATURES>
9
1 2 acceptor
1 3 cation
1 3 donor
1 4 donor
1 5 acceptor
5 3 6 7 8 9 rings
6 18 19 20 21 22 23 rings
6 5 8 9 13 15 16 rings
6 6 7 10 11 12 14 rings

> <PUBCHEM_HEAVY_ATOM_COUNT>
23

> <PUBCHEM_ATOM_DEF_STEREO_COUNT>
0

> <PUBCHEM_ATOM_UDEF_STEREO_COUNT>
0

> <PUBCHEM_BOND_DEF_STEREO_COUNT>
0

> <PUBCHEM_BOND_UDEF_STEREO_COUNT>
0

> <PUBCHEM_ISOTOPIC_ATOM_COUNT>
0

> <PUBCHEM_COMPONENT_COUNT>
1

> <PUBCHEM_CACTVS_TAUTO_COUNT>
4

> <PUBCHEM_CONFORMER_ID>
0145F7F200000001

> <PUBCHEM_MMFF94_ENERGY>
63.7017

> <PUBCHEM_FEATURE_SELFOVERLAP>
45.858

> <PUBCHEM_SHAPE_FINGERPRINT>
10 15 18114465651332024769
10411042 1 17690561879896181318
10595046 47 18343015567990124381
10693767 8 17916309325513372318
10835480 77 18263358110863792189
11595378 159 16660914492163890525
12293681 160 17846504772296593176
12730499 353 18409457968154514235
12769317 202 18342167856365947953
12788726 201 17203051760224182857
12930653 34 18336833099405936987
13402501 40 18407759244286282085
13631057 29 18057597871347640255
13785724 45 17550393929900058959
138480 1 17978509732987937638
13878862 14 18119225300225651133
13955234 65 18265337213769875243
14466204 15 18410848859191280864
14790565 3 18337393871747337060
15196674 1 18410855490198246597
15475509 35 16516245102724416474
15664445 248 17841727205195878494
15927050 60 18339360868438967974
1601671 61 18335137596704174020
16992752 21 17328025370063671714
17844677 252 18196379126468477521
19784866 9 18412542102649587994
20157964 124 18339358566293253461
20645477 56 18333169453852763685
20739085 24 18187083927896925468
21033648 29 18270111461035593032
21065198 57 18265335002552222607
21279426 13 18342465841998356108
21307412 95 17986703474986587998
21421861 104 17896308122171009746
21756936 100 18198053884329962468
21859007 373 17025139728152179685
23559900 14 18194961846921387067
244849 19 17896908494095704419
245318 6 17606135114741785773
335352 9 18411419519217120726
3411729 13 18333730191761189506
350125 39 18336263458204198268
3545911 37 18410858759043054673
376196 1 18058723753768028242
38695281 34 18343019990984195206
474 4 18411983559153329227
5104073 3 18188496774863986065
5385378 56 18340210695624574923
57724786 102 18128263281537063953
59755656 215 18338521846149328868
633830 44 18343298201885598278
636775 72 17693934507814519920
77188 2 17762619482629292118
7808743 9 18338231699211745249
79837 15 18189898810339091578
8272917 22 18341051822136134214
9981440 41 18336826502056258467

> <PUBCHEM_SHAPE_MULTIPOLES>
454.39
12.99
4.07
0.66
11.98
3.51
0
-11.19
0.78
-3.82
-0.25
0.24
-0.03
0.54

> <PUBCHEM_SHAPE_SELFOVERLAP>
1014.503

> <PUBCHEM_SHAPE_VOLUME>
242.2

> <PUBCHEM_COORDINATE_TYPE>
2
5
10

$$$$
