49831008
  -OEChem-10052115193D

 53 56  0     0  0  0  0  0  0999 V2000
   -3.5651    0.4689   -0.0178 N   0  0  0  0  0  0  0  0  0  0  0  0
   -6.2698    1.3704   -0.1941 N   0  0  0  0  0  0  0  0  0  0  0  0
   -1.2876    1.1115   -0.0146 N   0  0  0  0  0  0  0  0  0  0  0  0
    0.4278   -0.5807    0.0194 N   0  0  0  0  0  0  0  0  0  0  0  0
   -0.1797   -2.8829    0.0479 N   0  0  0  0  0  0  0  0  0  0  0  0
    2.2609   -2.9334    0.0654 N   0  0  0  0  0  0  0  0  0  0  0  0
    3.1191   -3.9674    0.0863 N   0  0  0  0  0  0  0  0  0  0  0  0
   -3.9625    1.7325    0.6155 C   0  0  0  0  0  0  0  0  0  0  0  0
   -4.4203    0.0145   -1.1186 C   0  0  0  0  0  0  0  0  0  0  0  0
   -5.4496    1.7076    0.9761 C   0  0  0  0  0  0  0  0  0  0  0  0
   -5.8931    0.0460   -0.7027 C   0  0  0  0  0  0  0  0  0  0  0  0
   -2.2085    0.1255   -0.0056 C   0  0  0  0  0  0  0  0  0  0  0  0
   -7.6910    1.4032    0.1491 C   0  0  0  0  0  0  0  0  0  0  0  0
   -1.8933   -1.2178    0.0153 C   0  0  0  0  0  0  0  0  0  0  0  0
   -0.5457   -1.5148    0.0271 C   0  0  0  0  0  0  0  0  0  0  0  0
   -0.0075    0.6936   -0.0011 C   0  0  0  0  0  0  0  0  0  0  0  0
    1.0126    1.7272   -0.0101 C   0  0  0  0  0  0  0  0  0  0  0  0
    1.0662   -3.5306    0.0645 C   0  0  0  0  0  0  0  0  0  0  0  0
    1.1608   -4.9351    0.0847 C   0  0  0  0  0  0  0  0  0  0  0  0
    2.3500    1.5072    0.0009 C   0  0  0  0  0  0  0  0  0  0  0  0
    2.5108   -5.1883    0.0984 C   0  0  0  0  0  0  0  0  0  0  0  0
    3.3852    2.5556   -0.0258 C   0  0  0  0  0  0  0  0  0  0  0  0
    3.2756   -6.4453    0.1204 C   0  0  0  0  0  0  0  0  0  0  0  0
    3.0658    3.8607    0.3488 C   0  0  0  0  0  0  0  0  0  0  0  0
    4.6843    2.2429   -0.4257 C   0  0  0  0  0  0  0  0  0  0  0  0
    4.0457    4.8532    0.3235 C   0  0  0  0  0  0  0  0  0  0  0  0
    5.6642    3.2353   -0.4510 C   0  0  0  0  0  0  0  0  0  0  0  0
    5.3449    4.5404   -0.0763 C   0  0  0  0  0  0  0  0  0  0  0  0
   -3.3895    1.8991    1.5364 H   0  0  0  0  0  0  0  0  0  0  0  0
   -3.7519    2.5677   -0.0648 H   0  0  0  0  0  0  0  0  0  0  0  0
   -4.2602    0.6629   -1.9896 H   0  0  0  0  0  0  0  0  0  0  0  0
   -4.1746   -1.0073   -1.4292 H   0  0  0  0  0  0  0  0  0  0  0  0
   -5.7267    2.6985    1.3560 H   0  0  0  0  0  0  0  0  0  0  0  0
   -5.6184    0.9874    1.7882 H   0  0  0  0  0  0  0  0  0  0  0  0
   -6.5018   -0.2056   -1.5797 H   0  0  0  0  0  0  0  0  0  0  0  0
   -6.0767   -0.7276    0.0553 H   0  0  0  0  0  0  0  0  0  0  0  0
   -8.3042    1.1870   -0.7329 H   0  0  0  0  0  0  0  0  0  0  0  0
   -7.9464    0.6802    0.9323 H   0  0  0  0  0  0  0  0  0  0  0  0
   -7.9798    2.4021    0.4945 H   0  0  0  0  0  0  0  0  0  0  0  0
   -2.6512   -1.9924    0.0372 H   0  0  0  0  0  0  0  0  0  0  0  0
   -0.9983   -3.4900    0.0503 H   0  0  0  0  0  0  0  0  0  0  0  0
    0.6185    2.7387   -0.0514 H   0  0  0  0  0  0  0  0  0  0  0  0
    0.3645   -5.6661    0.0889 H   0  0  0  0  0  0  0  0  0  0  0  0
    2.7328    0.4890    0.0155 H   0  0  0  0  0  0  0  0  0  0  0  0
    4.1113   -3.7657    0.0909 H   0  0  0  0  0  0  0  0  0  0  0  0
    2.6083   -7.3132    0.1285 H   0  0  0  0  0  0  0  0  0  0  0  0
    3.9078   -6.4992    1.0126 H   0  0  0  0  0  0  0  0  0  0  0  0
    3.9184   -6.5238   -0.7623 H   0  0  0  0  0  0  0  0  0  0  0  0
    2.0741    4.1458    0.6868 H   0  0  0  0  0  0  0  0  0  0  0  0
    4.9511    1.2314   -0.7222 H   0  0  0  0  0  0  0  0  0  0  0  0
    3.7989    5.8686    0.6197 H   0  0  0  0  0  0  0  0  0  0  0  0
    6.6758    2.9920   -0.7624 H   0  0  0  0  0  0  0  0  0  0  0  0
    6.1081    5.3128   -0.0950 H   0  0  0  0  0  0  0  0  0  0  0  0
  1  8  1  0  0  0  0
  1  9  1  0  0  0  0
  1 12  1  0  0  0  0
  2 10  1  0  0  0  0
  2 11  1  0  0  0  0
  2 13  1  0  0  0  0
  3 12  2  0  0  0  0
  3 16  1  0  0  0  0
  4 15  1  0  0  0  0
  4 16  2  0  0  0  0
  5 15  1  0  0  0  0
  5 18  1  0  0  0  0
  5 41  1  0  0  0  0
  6  7  1  0  0  0  0
  6 18  2  0  0  0  0
  7 21  1  0  0  0  0
  7 45  1  0  0  0  0
  8 10  1  0  0  0  0
  8 29  1  0  0  0  0
  8 30  1  0  0  0  0
  9 11  1  0  0  0  0
  9 31  1  0  0  0  0
  9 32  1  0  0  0  0
 10 33  1  0  0  0  0
 10 34  1  0  0  0  0
 11 35  1  0  0  0  0
 11 36  1  0  0  0  0
 12 14  1  0  0  0  0
 13 37  1  0  0  0  0
 13 38  1  0  0  0  0
 13 39  1  0  0  0  0
 14 15  2  0  0  0  0
 14 40  1  0  0  0  0
 16 17  1  0  0  0  0
 17 20  2  3  0  0  0
 17 42  1  0  0  0  0
 18 19  1  0  0  0  0
 19 21  2  0  0  0  0
 19 43  1  0  0  0  0
 20 22  1  0  0  0  0
 20 44  1  0  0  0  0
 21 23  1  0  0  0  0
 22 24  2  0  0  0  0
 22 25  1  0  0  0  0
 23 46  1  0  0  0  0
 23 47  1  0  0  0  0
 23 48  1  0  0  0  0
 24 26  1  0  0  0  0
 24 49  1  0  0  0  0
 25 27  2  0  0  0  0
 25 50  1  0  0  0  0
 26 28  2  0  0  0  0
 26 51  1  0  0  0  0
 27 28  1  0  0  0  0
 27 52  1  0  0  0  0
 28 53  1  0  0  0  0
M  END
> <PUBCHEM_COMPOUND_CID>
49831008

> <PUBCHEM_CONFORMER_RMSD>
0.8

> <PUBCHEM_CONFORMER_DIVERSEORDER>
1
75
61
80
101
4
14
91
44
5
90
102
50
52
33
70
100
63
40
76
71
103
62
25
77
89
8
49
56
86
55
94
67
37
96
99
12
41
15
32
26
87
65
10
83
92
60
13
82
35
53
48
88
84
78
72
54
79
16
95
21
59
97
81
64
47
31
69
93
23
36
18
22
85
28
58
30
104
42
19
34
3
51
74
66
11
38
24
17
7
68
27
105
43
9
6
98
20
29
45
57
73
46
2
39

> <PUBCHEM_MMFF94_PARTIAL_CHARGES>
39
1 -0.84
10 0.27
11 0.27
12 0.41
13 0.27
14 -0.15
15 0.41
16 0.65
17 -0.18
18 0.37
19 -0.15
2 -0.81
20 -0.18
21 -0.33
22 0.03
23 0.18
24 -0.15
25 -0.15
26 -0.15
27 -0.15
28 -0.15
3 -0.62
4 -0.62
40 0.15
41 0.4
42 0.15
43 0.15
44 0.15
45 0.27
49 0.15
5 -0.58
50 0.15
51 0.15
52 0.15
53 0.15
6 -0.71
7 0.3
8 0.37
9 0.37

> <PUBCHEM_EFFECTIVE_ROTOR_COUNT>
6.2

> <PUBCHEM_PHARMACOPHORE_FEATURES>
10
1 2 cation
1 5 donor
1 7 donor
3 1 3 12 cation
3 3 4 16 cation
3 5 6 18 cation
5 6 7 18 19 21 rings
6 1 2 8 9 10 11 rings
6 22 24 25 26 27 28 rings
6 3 4 12 14 15 16 rings

> <PUBCHEM_HEAVY_ATOM_COUNT>
28

> <PUBCHEM_ATOM_DEF_STEREO_COUNT>
0

> <PUBCHEM_ATOM_UDEF_STEREO_COUNT>
0

> <PUBCHEM_BOND_DEF_STEREO_COUNT>
0

> <PUBCHEM_BOND_UDEF_STEREO_COUNT>
1

> <PUBCHEM_ISOTOPIC_ATOM_COUNT>
0

> <PUBCHEM_COMPONENT_COUNT>
1

> <PUBCHEM_CACTVS_TAUTO_COUNT>
11

> <PUBCHEM_CONFORMER_ID>
02F85C6000000001

> <PUBCHEM_MMFF94_ENERGY>
80.8799

> <PUBCHEM_FEATURE_SELFOVERLAP>
50.887

> <PUBCHEM_SHAPE_FINGERPRINT>
10050765 1 18411138010033879447
10411042 1 17834114147729582282
10675989 125 18413394232973166424
10721379 63 18269565956959142180
10937287 8 18266457792470102898
11056379 131 17545331130178689804
11297750 10 17753891615156819685
11763715 3 17474411079298061022
12107183 9 18263628728268498584
12202916 173 18058747836293281846
12293681 160 17917156116506104625
12977781 61 17969245420243402843
13248334 5 18338516331227054922
13540713 4 18113628859502874139
13540713 5 18130221555101961645
13590594 115 17834401116348811937
13785724 45 17909271278030871694
138480 1 18194401079058921010
13955234 65 18337394846704536667
14790565 3 18338797943605373602
14849402 71 18267873787279043035
15042514 8 17256812720266051522
15230672 131 18264212586380964996
15400415 2 18266457805271433740
15439362 3 18408884001979243637
15664445 248 17984998002648333422
15927050 60 18341332305060269967
15980000 95 17907583528083045374
16087824 20 16897645685323508693
167882 2 18410011005418290315
17913733 40 18265916790010593993
17980427 26 18341323448652264911
19319366 153 18343582971128903421
20238998 120 17761771762951971445
20505436 4 17751070522092684864
20554085 129 18130211761574662496
21033648 144 17969206988701795229
21033648 29 18125717039529141801
21049683 271 18117011982727925326
21796203 349 17691726335855816075
21927370 108 17691139140485097467
22311459 1 18337953390237984642
23559900 14 18265608785284827907
244849 19 17897188887125161131
24771750 20 18335148591751828558
249999 5 18410293584259527571
283562 15 17981041131241537695
3627633 1 17329993491106253614
38695281 34 18337107990270954032
4058900 60 18340216292093971112
4409770 3 17687738763374045911
4516262 110 18410004460558694277
5171179 24 18046903784520772277
5385378 56 18410015425140435849
563151 97 18267578186471537111
57816332 4 18264497182769972427
6058803 2 18201996583125324349
6371380 46 18339933709870156372
6376802 90 17908432703664277420
6697151 62 17757808071543571927
6700243 42 16826197774856889148
6898599 12 17758683639050153964
77188 2 17978228253721151246
9981440 41 18192153904745315273

> <PUBCHEM_SHAPE_MULTIPOLES>
541.36
14.5
9.37
0.74
19.43
16.9
-0.03
-21.08
-0.87
-19.53
0.94
0.46
-0.2
-0.8

> <PUBCHEM_SHAPE_SELFOVERLAP>
1160.741

> <PUBCHEM_SHAPE_VOLUME>
291.5

> <PUBCHEM_COORDINATE_TYPE>
2
5
10

$$$$
