44328766
  -OEChem-10062122053D

 51 53  0     0  0  0  0  0  0999 V2000
    0.1323   -3.7401    0.0031 O   0  0  0  0  0  0  0  0  0  0  0  0
   -4.3646   -2.8699    0.0293 O   0  0  0  0  0  0  0  0  0  0  0  0
   -0.0303   -0.8854    0.0989 N   0  0  0  0  0  0  0  0  0  0  0  0
   -4.3103    0.0114   -0.4662 N   0  0  0  0  0  0  0  0  0  0  0  0
    7.0964    1.1407   -0.0265 N   0  0  0  0  0  0  0  0  0  0  0  0
   -2.1932   -3.6973   -0.0126 N   0  0  0  0  0  0  0  0  0  0  0  0
   10.8099    1.4391   -0.1319 N   0  0  0  0  0  0  0  0  0  0  0  0
    3.7533   -0.6827   -0.0157 C   0  0  0  0  0  0  0  0  0  0  0  0
    2.3035   -0.2008    0.0504 C   0  0  0  0  0  0  0  0  0  0  0  0
    4.7333    0.4918    0.0262 C   0  0  0  0  0  0  0  0  0  0  0  0
    1.3273   -1.3732    0.0476 C   0  0  0  0  0  0  0  0  0  0  0  0
    6.1789    0.0084   -0.0770 C   0  0  0  0  0  0  0  0  0  0  0  0
   -1.1178   -1.6908    0.0821 C   0  0  0  0  0  0  0  0  0  0  0  0
   -2.4355   -1.4329    0.0922 C   0  0  0  0  0  0  0  0  0  0  0  0
   -3.0853   -0.1216    0.1307 C   0  0  0  0  0  0  0  0  0  0  0  0
   -4.7660    1.3036   -0.3323 C   0  0  0  0  0  0  0  0  0  0  0  0
   -3.7921    2.0114    0.3754 C   0  0  0  0  0  0  0  0  0  0  0  0
   -2.7377    1.0995    0.6607 C   0  0  0  0  0  0  0  0  0  0  0  0
   -0.9403   -3.1602    0.0207 C   0  0  0  0  0  0  0  0  0  0  0  0
   -3.1534   -2.7296    0.0288 C   0  0  0  0  0  0  0  0  0  0  0  0
    8.4782    0.6947   -0.1346 C   0  0  0  0  0  0  0  0  0  0  0  0
   -5.9536    1.8938   -0.7787 C   0  0  0  0  0  0  0  0  0  0  0  0
   -4.0123    3.3754    0.6524 C   0  0  0  0  0  0  0  0  0  0  0  0
    9.4248    1.8877   -0.0415 C   0  0  0  0  0  0  0  0  0  0  0  0
   -6.1499    3.2479   -0.4928 C   0  0  0  0  0  0  0  0  0  0  0  0
   -5.1955    3.9792    0.2116 C   0  0  0  0  0  0  0  0  0  0  0  0
    3.9061   -1.2575   -0.9372 H   0  0  0  0  0  0  0  0  0  0  0  0
    3.9562   -1.3581    0.8243 H   0  0  0  0  0  0  0  0  0  0  0  0
    2.0943    0.4582   -0.8019 H   0  0  0  0  0  0  0  0  0  0  0  0
    2.1540    0.4003    0.9564 H   0  0  0  0  0  0  0  0  0  0  0  0
    4.5918    1.0503    0.9601 H   0  0  0  0  0  0  0  0  0  0  0  0
    4.5141    1.1814   -0.7988 H   0  0  0  0  0  0  0  0  0  0  0  0
    1.5423   -2.0008    0.9204 H   0  0  0  0  0  0  0  0  0  0  0  0
    1.4931   -1.9509   -0.8695 H   0  0  0  0  0  0  0  0  0  0  0  0
    6.3084   -0.5368   -1.0198 H   0  0  0  0  0  0  0  0  0  0  0  0
    6.3889   -0.6865    0.7452 H   0  0  0  0  0  0  0  0  0  0  0  0
   -0.1905    0.1158    0.1123 H   0  0  0  0  0  0  0  0  0  0  0  0
   -4.8149   -0.7242   -0.9422 H   0  0  0  0  0  0  0  0  0  0  0  0
   -1.8293    1.3224    1.2039 H   0  0  0  0  0  0  0  0  0  0  0  0
    6.9645    1.6512    0.8463 H   0  0  0  0  0  0  0  0  0  0  0  0
    8.6320    0.1817   -1.0922 H   0  0  0  0  0  0  0  0  0  0  0  0
    8.7078   -0.0177    0.6682 H   0  0  0  0  0  0  0  0  0  0  0  0
   -2.3868   -4.6913   -0.0564 H   0  0  0  0  0  0  0  0  0  0  0  0
   -6.6972    1.3252   -1.3270 H   0  0  0  0  0  0  0  0  0  0  0  0
   -3.2768    3.9572    1.2005 H   0  0  0  0  0  0  0  0  0  0  0  0
    9.2817    2.4194    0.9063 H   0  0  0  0  0  0  0  0  0  0  0  0
    9.2259    2.5957   -0.8538 H   0  0  0  0  0  0  0  0  0  0  0  0
   -7.0619    3.7369   -0.8256 H   0  0  0  0  0  0  0  0  0  0  0  0
   -5.3707    5.0310    0.4221 H   0  0  0  0  0  0  0  0  0  0  0  0
   11.0168    0.8054    0.6391 H   0  0  0  0  0  0  0  0  0  0  0  0
   11.4318    2.2387   -0.0189 H   0  0  0  0  0  0  0  0  0  0  0  0
  1 19  2  0  0  0  0
  2 20  2  0  0  0  0
  3 11  1  0  0  0  0
  3 13  1  0  0  0  0
  3 37  1  0  0  0  0
  4 15  1  0  0  0  0
  4 16  1  0  0  0  0
  4 38  1  0  0  0  0
  5 12  1  0  0  0  0
  5 21  1  0  0  0  0
  5 40  1  0  0  0  0
  6 19  1  0  0  0  0
  6 20  1  0  0  0  0
  6 43  1  0  0  0  0
  7 24  1  0  0  0  0
  7 50  1  0  0  0  0
  7 51  1  0  0  0  0
  8  9  1  0  0  0  0
  8 10  1  0  0  0  0
  8 27  1  0  0  0  0
  8 28  1  0  0  0  0
  9 11  1  0  0  0  0
  9 29  1  0  0  0  0
  9 30  1  0  0  0  0
 10 12  1  0  0  0  0
 10 31  1  0  0  0  0
 10 32  1  0  0  0  0
 11 33  1  0  0  0  0
 11 34  1  0  0  0  0
 12 35  1  0  0  0  0
 12 36  1  0  0  0  0
 13 14  2  0  0  0  0
 13 19  1  0  0  0  0
 14 15  1  0  0  0  0
 14 20  1  0  0  0  0
 15 18  2  0  0  0  0
 16 17  1  0  0  0  0
 16 22  2  0  0  0  0
 17 18  1  0  0  0  0
 17 23  2  0  0  0  0
 18 39  1  0  0  0  0
 21 24  1  0  0  0  0
 21 41  1  0  0  0  0
 21 42  1  0  0  0  0
 22 25  1  0  0  0  0
 22 44  1  0  0  0  0
 23 26  1  0  0  0  0
 23 45  1  0  0  0  0
 24 46  1  0  0  0  0
 24 47  1  0  0  0  0
 25 26  2  0  0  0  0
 25 48  1  0  0  0  0
 26 49  1  0  0  0  0
M  END
> <PUBCHEM_COMPOUND_CID>
44328766

> <PUBCHEM_CONFORMER_RMSD>
1

> <PUBCHEM_CONFORMER_DIVERSEORDER>
1
103
94
51
105
54
93
101
42
79
78
2
111
56
108
92
77
45
127
61
52
7
104
39
114
15
34
124
74
73
18
53
8
40
14
128
60
63
48
120
22
50
88
66
97
28
110
46
67
13
85
106
99
62
27
113
98
84
65
126
115
83
35
44
121
10
87
55
26
123
70
102
75
17
36
81
20
57
119
43
69
118
129
24
131
95
30
100
32
58
38
23
19
3
90
47
21
80
33
5
116
91
37
89
59
107
122
72
41
16
29
76
130
25
64
4
125
6
11
112
12
109
71
117
82
68
9
86
31
49
96

> <PUBCHEM_MMFF94_PARTIAL_CHARGES>
33
1 -0.57
11 0.37
12 0.27
13 0.11
14 0.06
15 -0.2
16 -0.15
18 -0.15
19 0.62
2 -0.57
20 0.62
21 0.27
22 -0.15
23 -0.15
24 0.27
25 -0.15
26 -0.15
3 -0.87
37 0.4
38 0.27
39 0.15
4 0.03
40 0.36
43 0.37
44 0.15
45 0.15
48 0.15
49 0.15
5 -0.9
50 0.36
51 0.36
6 -0.49
7 -0.99

> <PUBCHEM_EFFECTIVE_ROTOR_COUNT>
10.2

> <PUBCHEM_PHARMACOPHORE_FEATURES>
14
1 1 acceptor
1 2 acceptor
1 3 cation
1 3 donor
1 4 cation
1 4 donor
1 5 cation
1 5 donor
1 6 donor
1 7 cation
1 7 donor
5 4 15 16 17 18 rings
5 6 13 14 19 20 rings
6 16 17 22 23 25 26 rings

> <PUBCHEM_HEAVY_ATOM_COUNT>
26

> <PUBCHEM_ATOM_DEF_STEREO_COUNT>
0

> <PUBCHEM_ATOM_UDEF_STEREO_COUNT>
0

> <PUBCHEM_BOND_DEF_STEREO_COUNT>
0

> <PUBCHEM_BOND_UDEF_STEREO_COUNT>
0

> <PUBCHEM_ISOTOPIC_ATOM_COUNT>
0

> <PUBCHEM_COMPONENT_COUNT>
1

> <PUBCHEM_CACTVS_TAUTO_COUNT>
8

> <PUBCHEM_CONFORMER_ID>
02A4673E00000001

> <PUBCHEM_MMFF94_ENERGY>
31.0926

> <PUBCHEM_FEATURE_SELFOVERLAP>
71.14

> <PUBCHEM_SHAPE_FINGERPRINT>
10050765 1 18338516339780839283
100830 39 18411419540286021856
10411042 1 17906453578360581539
10835480 77 18272655637053800766
11135609 187 18192426378231072813
11135609 201 18199478662869737017
11211813 15 18261099739654796237
11315181 36 17968937621232740302
11409948 8 18335715936380083489
11475781 23 18343310245743893124
12107183 9 18118674431962739210
12788726 201 18261664983110847259
12888983 3 17916289719383454576
13248334 5 17833547895268499027
13540713 5 18263343829475469619
13885169 127 18411702132481633142
14919807 6 18341347600582783316
15152005 290 18410292467415445941
15198563 99 17986090015943595631
15328684 2 17895735371661602944
15419008 91 17917422190895733920
15439362 3 18123191195221402439
15685185 35 18410571748334203797
15803439 3 16916776353799716471
16126227 98 18411986823740320577
21362267 2 17273970424759875296
23516275 100 17607796202261087653
23523787 8 16199571495044709229
23569914 2 16013233811192196805
283562 15 18335135436716146915
306946 40 17346585406351078008
4073 2 18334017194709320602
44555599 121 18041566957650022460
44802255 64 17560801065344407950
474 4 17977100159803393299
59567204 34 18412545422401279953
6327066 14 18336543811856815245
6328613 192 18409448073188070256
636775 72 18412543237022880376
636775 8 8935003698977269056
6376802 90 18340778108725139990
7288768 16 18113903702717945595
7808743 9 18410008802273965627
9953998 17 11314300651092540958
9980921 7 17968089812031968797
9981440 41 18335987467932659555

> <PUBCHEM_SHAPE_MULTIPOLES>
498.42
24.92
4.98
0.69
87.18
1.49
0
-29.41
2.59
-9.17
-0.19
-0.42
-0.2
-0.03

> <PUBCHEM_SHAPE_SELFOVERLAP>
1056.833

> <PUBCHEM_SHAPE_VOLUME>
280.8

> <PUBCHEM_COORDINATE_TYPE>
2
5
10

$$$$
