11176299
  -OEChem-10062121543D

 46 49  0     0  0  0  0  0  0999 V2000
   -1.9878   -0.5967    1.9869 F   0  0  0  0  0  0  0  0  0  0  0  0
    2.5979   -0.1993    1.1639 O   0  0  0  0  0  0  0  0  0  0  0  0
   -6.4931    1.5315    0.2640 N   0  0  0  0  0  0  0  0  0  0  0  0
   -5.5657    2.4922    0.1166 N   0  0  0  0  0  0  0  0  0  0  0  0
    1.7187   -0.2544   -1.0072 N   0  0  0  0  0  0  0  0  0  0  0  0
   -3.2115    2.3670   -0.2441 N   0  0  0  0  0  0  0  0  0  0  0  0
    4.0004   -0.0619   -0.7025 N   0  0  0  0  0  0  0  0  0  0  0  0
   -4.6314    0.4073   -0.0165 C   0  0  0  0  0  0  0  0  0  0  0  0
   -3.8240   -0.7362   -0.1350 C   0  0  0  0  0  0  0  0  0  0  0  0
   -5.9976    0.2576    0.1943 C   0  0  0  0  0  0  0  0  0  0  0  0
   -2.4030   -0.6130   -0.3549 C   0  0  0  0  0  0  0  0  0  0  0  0
   -4.4343    1.8045   -0.0537 C   0  0  0  0  0  0  0  0  0  0  0  0
   -4.4288   -1.9954   -0.0357 C   0  0  0  0  0  0  0  0  0  0  0  0
   -6.6203   -0.9883    0.2963 C   0  0  0  0  0  0  0  0  0  0  0  0
   -1.5247   -0.5470    0.7291 C   0  0  0  0  0  0  0  0  0  0  0  0
   -1.9016   -0.5591   -1.6574 C   0  0  0  0  0  0  0  0  0  0  0  0
   -5.8033   -2.1171    0.1762 C   0  0  0  0  0  0  0  0  0  0  0  0
    0.3458   -0.3740   -0.7900 C   0  0  0  0  0  0  0  0  0  0  0  0
   -0.1521   -0.4277    0.5117 C   0  0  0  0  0  0  0  0  0  0  0  0
   -0.5289   -0.4397   -1.8746 C   0  0  0  0  0  0  0  0  0  0  0  0
    5.2845    0.0426   -0.1178 C   0  0  0  0  0  0  0  0  0  0  0  0
    2.7612   -0.1741   -0.0518 C   0  0  0  0  0  0  0  0  0  0  0  0
    7.6624    0.2477   -0.3608 C   0  0  0  0  0  0  0  0  0  0  0  0
    6.3964    0.1451   -0.9375 C   0  0  0  0  0  0  0  0  0  0  0  0
    5.4029    0.0399    1.2622 C   0  0  0  0  0  0  0  0  0  0  0  0
    7.7985    0.2465    1.0274 C   0  0  0  0  0  0  0  0  0  0  0  0
    6.6689    0.1426    1.8389 C   0  0  0  0  0  0  0  0  0  0  0  0
    8.8704    0.3593   -1.2280 C   0  0  0  0  0  0  0  0  0  0  0  0
   -3.8313   -2.9008   -0.1230 H   0  0  0  0  0  0  0  0  0  0  0  0
   -7.6880   -1.0809    0.4610 H   0  0  0  0  0  0  0  0  0  0  0  0
   -2.5691   -0.6082   -2.5146 H   0  0  0  0  0  0  0  0  0  0  0  0
   -6.2477   -3.1066    0.2495 H   0  0  0  0  0  0  0  0  0  0  0  0
   -7.4542    1.8138    0.4103 H   0  0  0  0  0  0  0  0  0  0  0  0
    0.4575   -0.3825    1.4026 H   0  0  0  0  0  0  0  0  0  0  0  0
   -0.1547   -0.3987   -2.8944 H   0  0  0  0  0  0  0  0  0  0  0  0
    2.0054   -0.2212   -1.9824 H   0  0  0  0  0  0  0  0  0  0  0  0
   -2.3504    1.8514   -0.3745 H   0  0  0  0  0  0  0  0  0  0  0  0
   -3.0986    3.3761   -0.2666 H   0  0  0  0  0  0  0  0  0  0  0  0
    3.9817   -0.0541   -1.7192 H   0  0  0  0  0  0  0  0  0  0  0  0
    6.2885    0.1477   -2.0193 H   0  0  0  0  0  0  0  0  0  0  0  0
    4.5818   -0.0365    1.9588 H   0  0  0  0  0  0  0  0  0  0  0  0
    8.7791    0.3280    1.4889 H   0  0  0  0  0  0  0  0  0  0  0  0
    6.7763    0.1423    2.9198 H   0  0  0  0  0  0  0  0  0  0  0  0
    8.7335   -0.1876   -2.1671 H   0  0  0  0  0  0  0  0  0  0  0  0
    9.0710    1.4102   -1.4594 H   0  0  0  0  0  0  0  0  0  0  0  0
    9.7521   -0.0655   -0.7361 H   0  0  0  0  0  0  0  0  0  0  0  0
  1 15  1  0  0  0  0
  2 22  2  0  0  0  0
  3  4  1  0  0  0  0
  3 10  1  0  0  0  0
  3 33  1  0  0  0  0
  4 12  2  0  0  0  0
  5 18  1  0  0  0  0
  5 22  1  0  0  0  0
  5 36  1  0  0  0  0
  6 12  1  0  0  0  0
  6 37  1  0  0  0  0
  6 38  1  0  0  0  0
  7 21  1  0  0  0  0
  7 22  1  0  0  0  0
  7 39  1  0  0  0  0
  8  9  2  0  0  0  0
  8 10  1  0  0  0  0
  8 12  1  0  0  0  0
  9 11  1  0  0  0  0
  9 13  1  0  0  0  0
 10 14  2  0  0  0  0
 11 15  2  0  0  0  0
 11 16  1  0  0  0  0
 13 17  2  0  0  0  0
 13 29  1  0  0  0  0
 14 17  1  0  0  0  0
 14 30  1  0  0  0  0
 15 19  1  0  0  0  0
 16 20  2  0  0  0  0
 16 31  1  0  0  0  0
 17 32  1  0  0  0  0
 18 19  2  0  0  0  0
 18 20  1  0  0  0  0
 19 34  1  0  0  0  0
 20 35  1  0  0  0  0
 21 24  1  0  0  0  0
 21 25  2  0  0  0  0
 23 24  2  0  0  0  0
 23 26  1  0  0  0  0
 23 28  1  0  0  0  0
 24 40  1  0  0  0  0
 25 27  1  0  0  0  0
 25 41  1  0  0  0  0
 26 27  2  0  0  0  0
 26 42  1  0  0  0  0
 27 43  1  0  0  0  0
 28 44  1  0  0  0  0
 28 45  1  0  0  0  0
 28 46  1  0  0  0  0
M  END
> <PUBCHEM_COMPOUND_CID>
11176299

> <PUBCHEM_CONFORMER_RMSD>
0.8

> <PUBCHEM_CONFORMER_DIVERSEORDER>
3
23
32
21
35
15
25
31
20
26
5
22
36
7
33
24
28
17
9
38
6
27
19
37
30
18
13
29
8
34
10
14
1
2
4
11
16
12

> <PUBCHEM_MMFF94_PARTIAL_CHARGES>
40
1 -0.19
10 -0.15
12 0.37
13 -0.15
14 -0.15
15 0.19
16 -0.15
17 -0.15
18 0.12
19 -0.15
2 -0.57
20 -0.15
21 0.12
22 0.69
23 -0.14
24 -0.15
25 -0.15
26 -0.15
27 -0.15
28 0.14
29 0.15
3 0.3
30 0.15
31 0.15
32 0.15
33 0.27
34 0.15
35 0.15
36 0.37
37 0.4
38 0.4
39 0.37
4 -0.71
40 0.15
41 0.15
42 0.15
43 0.15
5 -0.55
6 -0.88
7 -0.55

> <PUBCHEM_EFFECTIVE_ROTOR_COUNT>
5

> <PUBCHEM_PHARMACOPHORE_FEATURES>
10
1 2 acceptor
1 3 donor
1 5 donor
1 6 donor
1 7 donor
3 4 6 12 cation
5 3 4 8 10 12 rings
6 11 15 16 18 19 20 rings
6 21 23 24 25 26 27 rings
6 8 9 10 13 14 17 rings

> <PUBCHEM_HEAVY_ATOM_COUNT>
28

> <PUBCHEM_ATOM_DEF_STEREO_COUNT>
0

> <PUBCHEM_ATOM_UDEF_STEREO_COUNT>
0

> <PUBCHEM_BOND_DEF_STEREO_COUNT>
0

> <PUBCHEM_BOND_UDEF_STEREO_COUNT>
0

> <PUBCHEM_ISOTOPIC_ATOM_COUNT>
0

> <PUBCHEM_COMPONENT_COUNT>
1

> <PUBCHEM_CACTVS_TAUTO_COUNT>
21

> <PUBCHEM_CONFORMER_ID>
00AA896B00000003

> <PUBCHEM_MMFF94_ENERGY>
84.1161

> <PUBCHEM_FEATURE_SELFOVERLAP>
50.887

> <PUBCHEM_SHAPE_FINGERPRINT>
10 15 18059569226670096018
10299344 5 17821445768691870706
10411042 1 18050851315613667647
11315181 36 17822012038612852751
11991303 11 17131547349172503246
12082328 90 18410293618645945078
12104220 1 17167865270647498629
12236239 1 17676488345913455959
13403585 85 18413670210507256557
13533116 47 17313375709367730410
13885169 127 18410295800573480430
13911987 19 16343697695754197701
14028597 1 17604142623968674480
14251764 18 17603866715374456646
14849402 71 17822861999751282956
14856354 85 18335421313643575607
14933364 13 18343021095069773724
15183329 4 16950559995936352114
15328684 2 17968365742100639216
15419008 47 17917989473606318712
15461852 350 18409737283005306990
15716309 27 16805318886125414982
1577012 14 17894629240966522128
15849732 13 17918275372393425708
15927050 60 17775560962053256126
19489759 90 18409450293374886931
21033648 29 17631717335825504273
21130935 74 18259698978778649442
21315759 40 17385443245416502798
21792961 116 17489594424939977958
23522609 53 17386872572226293964
3663271 9 18187078438881138098
4073 2 18186809075633808466
4339292 15 17774431811372705855
5758199 1 17748545948752367394
58260988 114 15647634375316629171
6691757 9 18260554437938447283

> <PUBCHEM_SHAPE_MULTIPOLES>
538.18
24.85
1.6
1.41
37.83
0.68
0.08
3.48
1.97
-4.64
-0.02
1.84
-0.16
0.4

> <PUBCHEM_SHAPE_SELFOVERLAP>
1199.884

> <PUBCHEM_SHAPE_VOLUME>
287.7

> <PUBCHEM_COORDINATE_TYPE>
2
5
10

$$$$
