5181561
  -OEChem-10052115173D

 33 34  0     0  0  0  0  0  0999 V2000
    2.7874   -2.8555   -2.1627 I   0  0  0  0  0  0  0  0  0  0  0  0
   -2.7610    2.8095   -2.2321 I   0  0  0  0  0  0  0  0  0  0  0  0
    4.6949    2.1846    0.2967 Br  0  0  0  0  0  0  0  0  0  0  0  0
   -4.6790   -2.1795    0.3219 Br  0  0  0  0  0  0  0  0  0  0  0  0
    4.6990   -0.3201   -1.5096 O   0  0  0  0  0  0  0  0  0  0  0  0
   -4.6755    0.2878   -1.5354 O   0  0  0  0  0  0  0  0  0  0  0  0
    0.0053    0.0159    1.6117 C   0  0  0  0  0  0  0  0  0  0  0  0
    1.2437   -0.0747    0.7856 C   0  0  0  0  0  0  0  0  0  0  0  0
   -1.2908    0.0932    0.7378 C   0  0  0  0  0  0  0  0  0  0  0  0
   -0.0857    1.2647    2.5676 C   0  0  0  0  0  0  0  0  0  0  0  0
   -0.0273   -1.2051    2.5966 C   0  0  0  0  0  0  0  0  0  0  0  0
    1.4199   -1.1440   -0.0925 C   0  0  0  0  0  0  0  0  0  0  0  0
   -1.4023    1.1407   -0.1217 C   0  0  0  0  0  0  0  0  0  0  0  0
    2.2262    0.9098    0.8920 C   0  0  0  0  0  0  0  0  0  0  0  0
   -2.2127   -0.8925    0.9012 C   0  0  0  0  0  0  0  0  0  0  0  0
    2.5787   -1.2290   -0.8643 C   0  0  0  0  0  0  0  0  0  0  0  0
   -2.5578    1.2098   -0.8999 C   0  0  0  0  0  0  0  0  0  0  0  0
    3.3848    0.8248    0.1200 C   0  0  0  0  0  0  0  0  0  0  0  0
   -3.3682   -0.8234    0.1228 C   0  0  0  0  0  0  0  0  0  0  0  0
    3.5611   -0.2446   -0.7581 C   0  0  0  0  0  0  0  0  0  0  0  0
   -3.5407    0.2277   -0.7777 C   0  0  0  0  0  0  0  0  0  0  0  0
    0.7241    1.2591    3.3076 H   0  0  0  0  0  0  0  0  0  0  0  0
   -0.0364    2.2179    2.0288 H   0  0  0  0  0  0  0  0  0  0  0  0
   -1.0308    1.2641    3.1259 H   0  0  0  0  0  0  0  0  0  0  0  0
    0.8814   -1.2144    3.2134 H   0  0  0  0  0  0  0  0  0  0  0  0
   -0.8736   -1.1580    3.2928 H   0  0  0  0  0  0  0  0  0  0  0  0
   -0.0531   -2.1724    2.0810 H   0  0  0  0  0  0  0  0  0  0  0  0
    0.6525   -1.9097   -0.1786 H   0  0  0  0  0  0  0  0  0  0  0  0
   -0.6289    1.8961   -0.2140 H   0  0  0  0  0  0  0  0  0  0  0  0
    2.1223    1.7540    1.5653 H   0  0  0  0  0  0  0  0  0  0  0  0
   -2.1171   -1.7257    1.5834 H   0  0  0  0  0  0  0  0  0  0  0  0
    4.6522   -1.1220   -2.0582 H   0  0  0  0  0  0  0  0  0  0  0  0
   -4.6263    1.0783   -2.1001 H   0  0  0  0  0  0  0  0  0  0  0  0
  1 16  1  0  0  0  0
  2 17  1  0  0  0  0
  3 18  1  0  0  0  0
  4 19  1  0  0  0  0
  5 20  1  0  0  0  0
  5 32  1  0  0  0  0
  6 21  1  0  0  0  0
  6 33  1  0  0  0  0
  7  8  1  0  0  0  0
  7  9  1  0  0  0  0
  7 10  1  0  0  0  0
  7 11  1  0  0  0  0
  8 12  1  0  0  0  0
  8 14  2  0  0  0  0
  9 13  1  0  0  0  0
  9 15  2  0  0  0  0
 10 22  1  0  0  0  0
 10 23  1  0  0  0  0
 10 24  1  0  0  0  0
 11 25  1  0  0  0  0
 11 26  1  0  0  0  0
 11 27  1  0  0  0  0
 12 16  2  0  0  0  0
 12 28  1  0  0  0  0
 13 17  2  0  0  0  0
 13 29  1  0  0  0  0
 14 18  1  0  0  0  0
 14 30  1  0  0  0  0
 15 19  1  0  0  0  0
 15 31  1  0  0  0  0
 16 20  1  0  0  0  0
 17 21  1  0  0  0  0
 18 20  2  0  0  0  0
 19 21  2  0  0  0  0
M  END
> <PUBCHEM_COMPOUND_CID>
5181561

> <PUBCHEM_CONFORMER_RMSD>
0.6

> <PUBCHEM_CONFORMER_DIVERSEORDER>
1
15
12
8
5
13
14
3
6
11
16
9
2
10
4
7

> <PUBCHEM_MMFF94_PARTIAL_CHARGES>
25
1 -0.08
12 -0.15
13 -0.15
14 -0.15
15 -0.15
16 0.08
17 0.08
18 0.11
19 0.11
2 -0.08
20 0.08
21 0.08
28 0.15
29 0.15
3 -0.11
30 0.15
31 0.15
32 0.45
33 0.45
4 -0.11
5 -0.53
6 -0.53
7 0.29
8 -0.14
9 -0.14

> <PUBCHEM_EFFECTIVE_ROTOR_COUNT>
2

> <PUBCHEM_PHARMACOPHORE_FEATURES>
9
1 1 hydrophobe
1 2 hydrophobe
1 3 hydrophobe
1 4 hydrophobe
1 5 donor
1 6 donor
3 7 10 11 hydrophobe
6 8 12 14 16 18 20 rings
6 9 13 15 17 19 21 rings

> <PUBCHEM_HEAVY_ATOM_COUNT>
21

> <PUBCHEM_ATOM_DEF_STEREO_COUNT>
0

> <PUBCHEM_ATOM_UDEF_STEREO_COUNT>
0

> <PUBCHEM_BOND_DEF_STEREO_COUNT>
0

> <PUBCHEM_BOND_UDEF_STEREO_COUNT>
0

> <PUBCHEM_ISOTOPIC_ATOM_COUNT>
0

> <PUBCHEM_COMPONENT_COUNT>
1

> <PUBCHEM_CACTVS_TAUTO_COUNT>
5

> <PUBCHEM_CONFORMER_ID>
004F107900000001

> <PUBCHEM_MMFF94_ENERGY>
72.7094

> <PUBCHEM_FEATURE_SELFOVERLAP>
45.674

> <PUBCHEM_SHAPE_FINGERPRINT>
10498660 4 17822280280695130397
11582403 64 18121475081483471208
11640471 11 16298376916851540577
11725454 13 18192414467848521808
11759241 127 18263924504605024956
12173636 292 17750500807364461005
12553582 1 15841832243888716710
12670546 177 18410573998036359846
12714826 92 15338843014663980329
13583140 156 18115313418574531112
13911987 19 17914904360164311672
13965767 371 16083876401513396796
14251757 17 18339079259467860612
14251764 38 17967531315775439132
14739800 52 16879636106178433020
15375462 189 16415484847795412755
15537594 2 16128665183716492638
15961568 22 17823419490643106548
17349148 13 15719391741421405474
1813 80 15769783488983622896
18186145 218 18335708212831126200
200 152 17703800210368068210
20361792 2 16200139980910280641
20645477 70 18201167611134400710
21033650 10 17605011220942540932
21285901 2 18409731802732772871
21524375 3 15863789482526639696
21713013 43 18343022189985871119
21731516 1 15769483236346115930
21756936 100 15866354570408725132
21864079 5 16516266040779485932
22393880 68 18262520286728441678
22907989 373 16373017340902054891
23114952 82 18342176622647198756
23402539 116 17749658701099535560
235170 7 18411418422971766798
23526113 38 18201425940331659387
23557571 272 18187652431179659279
23559900 14 18193826051499363922
3472631 163 17603579738265338541
46194498 28 18266457796712459397
474 4 15213296374837085169
7399639 24 18340200911847453268
7970288 3 15626221320843618069
9981440 41 16950274118180852921

> <PUBCHEM_SHAPE_MULTIPOLES>
456.19
9.25
2.88
2.47
0.22
0.01
-0.23
0.02
4.15
0.02
1.84
-0.05
-0.02
3.42

> <PUBCHEM_SHAPE_SELFOVERLAP>
908.651

> <PUBCHEM_SHAPE_VOLUME>
282.3

> <PUBCHEM_COORDINATE_TYPE>
2
5
10

$$$$
