49830695
  -OEChem-10052115193D

 36 38  0     0  0  0  0  0  0999 V2000
    6.6803    1.8283    0.0079 Br  0  0  0  0  0  0  0  0  0  0  0  0
   -6.2524   -1.2651    0.0022 O   0  0  0  0  0  0  0  0  0  0  0  0
    1.8068    1.5053   -0.0029 O   0  0  0  0  0  0  0  0  0  0  0  0
    0.0509   -0.0442   -0.0019 N   0  0  0  0  0  0  0  0  0  0  0  0
   -3.2942    2.4651   -0.0004 N   0  0  0  0  0  0  0  0  0  0  0  0
    2.2308   -0.7944   -0.0029 N   0  0  0  0  0  0  0  0  0  0  0  0
    4.3347    0.3137    0.0002 N   0  0  0  0  0  0  0  0  0  0  0  0
   -2.3828    0.2344   -0.0004 C   0  0  0  0  0  0  0  0  0  0  0  0
   -1.0878    0.7699   -0.0014 C   0  0  0  0  0  0  0  0  0  0  0  0
   -3.4721    1.1306   -0.0001 C   0  0  0  0  0  0  0  0  0  0  0  0
   -2.6054   -1.1531    0.0004 C   0  0  0  0  0  0  0  0  0  0  0  0
   -4.7585    0.5979    0.0006 C   0  0  0  0  0  0  0  0  0  0  0  0
   -4.9799   -0.7815    0.0014 C   0  0  0  0  0  0  0  0  0  0  0  0
   -0.9012    2.1448   -0.0016 C   0  0  0  0  0  0  0  0  0  0  0  0
   -3.9024   -1.6583    0.0015 C   0  0  0  0  0  0  0  0  0  0  0  0
   -2.0280    2.9416   -0.0009 C   0  0  0  0  0  0  0  0  0  0  0  0
    1.4098    0.3445   -0.0026 C   0  0  0  0  0  0  0  0  0  0  0  0
    3.6447   -0.8489   -0.0037 C   0  0  0  0  0  0  0  0  0  0  0  0
    4.2362   -2.1018   -0.0044 C   0  0  0  0  0  0  0  0  0  0  0  0
   -6.4074   -2.6835    0.0031 C   0  0  0  0  0  0  0  0  0  0  0  0
    5.6253   -2.1657   -0.0007 C   0  0  0  0  0  0  0  0  0  0  0  0
    6.3698   -0.9914    0.0034 C   0  0  0  0  0  0  0  0  0  0  0  0
    5.6827    0.2119    0.0034 C   0  0  0  0  0  0  0  0  0  0  0  0
   -1.8017   -1.8821    0.0003 H   0  0  0  0  0  0  0  0  0  0  0  0
   -5.6159    1.2693    0.0008 H   0  0  0  0  0  0  0  0  0  0  0  0
    0.0414    2.6661   -0.0022 H   0  0  0  0  0  0  0  0  0  0  0  0
   -3.9991   -2.7384    0.0021 H   0  0  0  0  0  0  0  0  0  0  0  0
   -0.0960   -1.0464   -0.0018 H   0  0  0  0  0  0  0  0  0  0  0  0
   -1.9456    4.0237   -0.0010 H   0  0  0  0  0  0  0  0  0  0  0  0
    1.7588   -1.6952   -0.0036 H   0  0  0  0  0  0  0  0  0  0  0  0
    3.6507   -3.0154   -0.0069 H   0  0  0  0  0  0  0  0  0  0  0  0
    6.1266   -3.1289   -0.0009 H   0  0  0  0  0  0  0  0  0  0  0  0
   -7.4825   -2.8911    0.0037 H   0  0  0  0  0  0  0  0  0  0  0  0
   -5.9946   -3.1329    0.9127 H   0  0  0  0  0  0  0  0  0  0  0  0
   -5.9954   -3.1340   -0.9063 H   0  0  0  0  0  0  0  0  0  0  0  0
    7.4538   -1.0368    0.0062 H   0  0  0  0  0  0  0  0  0  0  0  0
  1 23  1  0  0  0  0
  2 13  1  0  0  0  0
  2 20  1  0  0  0  0
  3 17  2  0  0  0  0
  4  9  1  0  0  0  0
  4 17  1  0  0  0  0
  4 28  1  0  0  0  0
  5 10  2  0  0  0  0
  5 16  1  0  0  0  0
  6 17  1  0  0  0  0
  6 18  1  0  0  0  0
  6 30  1  0  0  0  0
  7 18  2  0  0  0  0
  7 23  1  0  0  0  0
  8  9  2  0  0  0  0
  8 10  1  0  0  0  0
  8 11  1  0  0  0  0
  9 14  1  0  0  0  0
 10 12  1  0  0  0  0
 11 15  2  0  0  0  0
 11 24  1  0  0  0  0
 12 13  2  0  0  0  0
 12 25  1  0  0  0  0
 13 15  1  0  0  0  0
 14 16  2  0  0  0  0
 14 26  1  0  0  0  0
 15 27  1  0  0  0  0
 16 29  1  0  0  0  0
 18 19  1  0  0  0  0
 19 21  2  0  0  0  0
 19 31  1  0  0  0  0
 20 33  1  0  0  0  0
 20 34  1  0  0  0  0
 20 35  1  0  0  0  0
 21 22  1  0  0  0  0
 21 32  1  0  0  0  0
 22 23  2  0  0  0  0
 22 36  1  0  0  0  0
M  END
> <PUBCHEM_COMPOUND_CID>
49830695

> <PUBCHEM_CONFORMER_RMSD>
0.8

> <PUBCHEM_CONFORMER_DIVERSEORDER>
1
27
28
12
10
11
7
6
9
20
18
19
5
17
26
24
2
14
21
3
13
22
23
8
4
25
15
16

> <PUBCHEM_MMFF94_PARTIAL_CHARGES>
32
1 -0.11
10 0.31
11 -0.15
12 -0.15
13 0.08
14 -0.15
15 -0.15
16 0.16
17 0.69
18 0.43
19 -0.15
2 -0.36
20 0.28
21 -0.15
22 -0.15
23 0.42
24 0.15
25 0.15
26 0.15
27 0.15
28 0.37
29 0.15
3 -0.57
30 0.37
31 0.15
32 0.15
36 0.15
4 -0.55
5 -0.62
6 -0.55
7 -0.62
9 0.12

> <PUBCHEM_EFFECTIVE_ROTOR_COUNT>
5

> <PUBCHEM_PHARMACOPHORE_FEATURES>
9
1 1 hydrophobe
1 2 acceptor
1 3 acceptor
1 4 donor
1 5 acceptor
1 6 donor
6 5 8 9 10 14 16 rings
6 7 18 19 21 22 23 rings
6 8 10 11 12 13 15 rings

> <PUBCHEM_HEAVY_ATOM_COUNT>
23

> <PUBCHEM_ATOM_DEF_STEREO_COUNT>
0

> <PUBCHEM_ATOM_UDEF_STEREO_COUNT>
0

> <PUBCHEM_BOND_DEF_STEREO_COUNT>
0

> <PUBCHEM_BOND_UDEF_STEREO_COUNT>
0

> <PUBCHEM_ISOTOPIC_ATOM_COUNT>
0

> <PUBCHEM_COMPONENT_COUNT>
1

> <PUBCHEM_CACTVS_TAUTO_COUNT>
11

> <PUBCHEM_CONFORMER_ID>
02F85B2700000001

> <PUBCHEM_MMFF94_ENERGY>
81.288

> <PUBCHEM_FEATURE_SELFOVERLAP>
45.752

> <PUBCHEM_SHAPE_FINGERPRINT>
10411042 1 18338517560452371111
10595046 47 18408324367866928528
10835480 77 18409721842503471684
10968037 39 18408041836048746711
11315181 36 18334297543523209092
11524674 6 16487535853738624887
12107183 9 17471852498855035370
12166972 35 17749392598085253413
12236239 1 18186520986195601020
12516196 113 18341895216152425528
12760667 363 18409732881064898203
13073987 5 18412261714626754600
13167823 11 18337951186940847810
13288520 33 18410573990306242071
13631057 29 18410854352079496667
13685833 64 18409169939321622851
13862211 1 18340769334259376159
14251732 16 18411981381974142528
14251764 18 18131073744968818683
14341114 176 18411422787149344300
14347332 77 18408039602417911061
14461889 52 18337949091313234786
14528608 73 18408890620982607500
15196674 1 18410573942729337824
15250474 111 18116704123973343842
15927050 60 17551510381163368684
16087824 20 18265050242596314245
17492 89 18268430123400241830
17844677 252 18339930320855966776
17857418 61 18410293609696924286
18335252 98 18411421747814640642
21130935 74 18271808999509194866
21236236 1 18340769247942954425
21267235 1 18408890663673927915
21315763 129 18337107857517526644
21315763 28 18409448069009238290
22896161 15 18410856598721750158
2297311 6 18342462525603277165
23402539 116 18409445865258245653
23522609 53 18124066552332557113
23559900 14 18411128165151620953
239999 70 18272374114922686014
3004659 81 18040992973096831383
3246875 12 18268424823705822544
329604 57 18413109455245362776
335352 9 18410570700851891109
34797466 226 17775293789812635300
350125 39 18413671322360831128
4073 2 18186527613905398954
4214541 1 18338798897225562084
4325135 7 18409168840173641324
497634 4 18336548218229796308
5104073 3 18271802368379831544
59682541 35 18271798078081977714
67856867 119 18261679280576661132
7495541 125 17989480819324012448
7970288 3 18338795736531215023
999808 66 18041008384073168547

> <PUBCHEM_SHAPE_MULTIPOLES>
447.61
18.34
2.93
0.6
10.98
0.53
0
-8.14
0.03
-1.31
0
0.05
0
0.01

> <PUBCHEM_SHAPE_SELFOVERLAP>
962.579

> <PUBCHEM_SHAPE_VOLUME>
251.3

> <PUBCHEM_COORDINATE_TYPE>
2
5
10

$$$$
