49830455
  -OEChem-10062121543D

 37 39  0     0  0  0  0  0  0999 V2000
    0.2370   -1.5326   -0.2337 O   0  0  0  0  0  0  0  0  0  0  0  0
   -3.1326    1.6504    0.2126 N   0  0  0  0  0  0  0  0  0  0  0  0
   -3.8448   -0.6523    0.1400 N   0  0  0  0  0  0  0  0  0  0  0  0
   -1.9910   -2.2129   -0.0957 N   0  0  0  0  0  0  0  0  0  0  0  0
   -1.5288    0.1133   -0.0019 C   0  0  0  0  0  0  0  0  0  0  0  0
   -0.9291    1.3985    0.0223 C   0  0  0  0  0  0  0  0  0  0  0  0
   -2.8999    0.3040    0.1183 C   0  0  0  0  0  0  0  0  0  0  0  0
    2.0586   -3.0723   -0.4433 C   0  0  0  0  0  0  0  0  0  0  0  0
   -1.0885   -1.2048   -0.1111 C   0  0  0  0  0  0  0  0  0  0  0  0
    0.5485   -2.9151   -0.3364 C   0  0  0  0  0  0  0  0  0  0  0  0
    0.4513    1.7793   -0.0681 C   0  0  0  0  0  0  0  0  0  0  0  0
   -1.9407    2.3258    0.1553 C   0  0  0  0  0  0  0  0  0  0  0  0
    2.7717   -2.5140    0.7850 C   0  0  0  0  0  0  0  0  0  0  0  0
    1.0481    2.4884    0.9743 C   0  0  0  0  0  0  0  0  0  0  0  0
    1.1963    1.4414   -1.1978 C   0  0  0  0  0  0  0  0  0  0  0  0
    4.2763   -2.7119    0.6937 C   0  0  0  0  0  0  0  0  0  0  0  0
   -3.2953   -1.8786    0.0272 C   0  0  0  0  0  0  0  0  0  0  0  0
    2.3900    2.8595    0.8870 C   0  0  0  0  0  0  0  0  0  0  0  0
    2.5379    1.8123   -1.2852 C   0  0  0  0  0  0  0  0  0  0  0  0
    3.1349    2.5215   -0.2427 C   0  0  0  0  0  0  0  0  0  0  0  0
    2.3039   -4.1329   -0.5708 H   0  0  0  0  0  0  0  0  0  0  0  0
    2.4163   -2.5393   -1.3328 H   0  0  0  0  0  0  0  0  0  0  0  0
    0.0829   -3.3375   -1.2352 H   0  0  0  0  0  0  0  0  0  0  0  0
    0.1848   -3.4550    0.5467 H   0  0  0  0  0  0  0  0  0  0  0  0
   -1.9274    3.4061    0.2128 H   0  0  0  0  0  0  0  0  0  0  0  0
    2.4000   -3.0099    1.6893 H   0  0  0  0  0  0  0  0  0  0  0  0
    2.5637   -1.4433    0.8945 H   0  0  0  0  0  0  0  0  0  0  0  0
   -4.0426    2.0793    0.3090 H   0  0  0  0  0  0  0  0  0  0  0  0
    4.6864   -2.1999   -0.1827 H   0  0  0  0  0  0  0  0  0  0  0  0
    4.7666   -2.3062    1.5842 H   0  0  0  0  0  0  0  0  0  0  0  0
    4.5290   -3.7745    0.6213 H   0  0  0  0  0  0  0  0  0  0  0  0
    0.4868    2.7576    1.8661 H   0  0  0  0  0  0  0  0  0  0  0  0
    0.7481    0.8930   -2.0231 H   0  0  0  0  0  0  0  0  0  0  0  0
   -3.9926   -2.7094    0.0362 H   0  0  0  0  0  0  0  0  0  0  0  0
    2.8552    3.4104    1.6992 H   0  0  0  0  0  0  0  0  0  0  0  0
    3.1180    1.5493   -2.1650 H   0  0  0  0  0  0  0  0  0  0  0  0
    4.1798    2.8099   -0.3107 H   0  0  0  0  0  0  0  0  0  0  0  0
  1  9  1  0  0  0  0
  1 10  1  0  0  0  0
  2  7  1  0  0  0  0
  2 12  1  0  0  0  0
  2 28  1  0  0  0  0
  3  7  1  0  0  0  0
  3 17  2  0  0  0  0
  4  9  2  0  0  0  0
  4 17  1  0  0  0  0
  5  6  1  0  0  0  0
  5  7  2  0  0  0  0
  5  9  1  0  0  0  0
  6 11  1  0  0  0  0
  6 12  2  0  0  0  0
  8 10  1  0  0  0  0
  8 13  1  0  0  0  0
  8 21  1  0  0  0  0
  8 22  1  0  0  0  0
 10 23  1  0  0  0  0
 10 24  1  0  0  0  0
 11 14  2  0  0  0  0
 11 15  1  0  0  0  0
 12 25  1  0  0  0  0
 13 16  1  0  0  0  0
 13 26  1  0  0  0  0
 13 27  1  0  0  0  0
 14 18  1  0  0  0  0
 14 32  1  0  0  0  0
 15 19  2  0  0  0  0
 15 33  1  0  0  0  0
 16 29  1  0  0  0  0
 16 30  1  0  0  0  0
 16 31  1  0  0  0  0
 17 34  1  0  0  0  0
 18 20  2  0  0  0  0
 18 35  1  0  0  0  0
 19 20  1  0  0  0  0
 19 36  1  0  0  0  0
 20 37  1  0  0  0  0
M  END
> <PUBCHEM_COMPOUND_CID>
49830455

> <PUBCHEM_CONFORMER_RMSD>
0.8

> <PUBCHEM_CONFORMER_DIVERSEORDER>
1
6
5
13
9
12
2
14
8
3
7
10
11
4

> <PUBCHEM_MMFF94_PARTIAL_CHARGES>
24
1 -0.36
10 0.28
11 0.05
12 -0.3
14 -0.15
15 -0.15
17 0.47
18 -0.15
19 -0.15
2 0.03
20 -0.15
25 0.15
28 0.27
3 -0.57
32 0.15
33 0.15
34 0.15
35 0.15
36 0.15
37 0.15
4 -0.62
6 -0.05
7 0.11
9 0.39

> <PUBCHEM_EFFECTIVE_ROTOR_COUNT>
5

> <PUBCHEM_PHARMACOPHORE_FEATURES>
7
1 16 hydrophobe
1 2 cation
1 2 donor
3 3 4 17 cation
5 2 5 6 7 12 rings
6 11 14 15 18 19 20 rings
6 3 4 5 7 9 17 rings

> <PUBCHEM_HEAVY_ATOM_COUNT>
20

> <PUBCHEM_ATOM_DEF_STEREO_COUNT>
0

> <PUBCHEM_ATOM_UDEF_STEREO_COUNT>
0

> <PUBCHEM_BOND_DEF_STEREO_COUNT>
0

> <PUBCHEM_BOND_UDEF_STEREO_COUNT>
0

> <PUBCHEM_ISOTOPIC_ATOM_COUNT>
0

> <PUBCHEM_COMPONENT_COUNT>
1

> <PUBCHEM_CACTVS_TAUTO_COUNT>
3

> <PUBCHEM_CONFORMER_ID>
02F85A3700000001

> <PUBCHEM_MMFF94_ENERGY>
41.4017

> <PUBCHEM_FEATURE_SELFOVERLAP>
35.637

> <PUBCHEM_SHAPE_FINGERPRINT>
10967382 1 18267588094586535647
1100329 8 18194969539407715681
11578080 2 17386554778531101694
12553582 1 17980213993053092718
12592029 89 18193284224094760891
13027679 85 17980191989872734276
13140716 1 18338244773783024523
138480 1 18338797815088806994
13941206 138 17753911698824387116
14022349 108 18339090370912557443
14790565 3 17187853017530378896
14844126 61 16968560375746634904
14955137 171 17692557523759473201
15006816 218 18340204197618591570
15420108 30 17695098825802703859
16945 1 18121784091321656869
18336668 15 18114467739266197518
19591789 44 17906739459118565490
20028762 73 16830391350417274487
20510252 161 17912654789111527609
20600515 1 17979920402179283924
20642791 178 18189912932491695220
20905425 154 18341343261299581502
23366157 5 18113905956857922278
23419403 2 18042943454942643983
23557571 272 17837776629999986534
23559900 14 18340474586968258793
2748010 2 18123200253565483415
350125 39 18265059029328820077
43471831 8 18265614479635872179
57091435 65 18338232786271189306
58807428 26 18124601039721310979
59755656 215 18120653802058763599
7364860 26 18412263934533924858
81228 2 17402066495275959858
8809292 202 17694794312393901036
90316 7 17684638836357656026
9709674 26 17408814666492869500
9925002 15 17771315803302712774

> <PUBCHEM_SHAPE_MULTIPOLES>
390.78
6.08
4.87
0.94
0.19
1.33
-0.08
2.23
0.81
-4.3
0.4
-0.67
-0.34
-0.67

> <PUBCHEM_SHAPE_SELFOVERLAP>
848.675

> <PUBCHEM_SHAPE_VOLUME>
212.2

> <PUBCHEM_COORDINATE_TYPE>
2
5
10

$$$$
