44410960
  -OEChem-10052120443D

 56 59  0     1  0  0  0  0  0999 V2000
   -6.6731    2.9622   -1.6766 Cl  0  0  0  0  0  0  0  0  0  0  0  0
   -4.2581    1.3459   -2.2106 F   0  0  0  0  0  0  0  0  0  0  0  0
    5.5468   -0.4850   -0.2526 O   0  0  0  0  0  0  0  0  0  0  0  0
    3.1594   -2.3839   -0.2080 O   0  0  0  0  0  0  0  0  0  0  0  0
    2.9806    0.8552   -0.1167 N   0  0  1  0  0  0  0  0  0  0  0  0
    4.0307    3.3016    1.0500 N   0  0  1  0  0  0  0  0  0  0  0  0
    5.5398    0.4556   -2.3524 N   0  0  0  0  0  0  0  0  0  0  0  0
   -1.2448   -3.7974    0.9144 N   0  0  0  0  0  0  0  0  0  0  0  0
   -2.8544   -0.2230   -0.4128 N   0  0  0  0  0  0  0  0  0  0  0  0
   -3.1401   -2.3601    0.5286 N   0  0  0  0  0  0  0  0  0  0  0  0
    4.2226    1.4726   -0.6114 C   0  0  1  0  0  0  0  0  0  0  0  0
    4.9276    2.2873    0.4859 C   0  0  0  0  0  0  0  0  0  0  0  0
    2.1056    1.8774    0.4806 C   0  0  0  0  0  0  0  0  0  0  0  0
    2.8225    2.6629    1.5814 C   0  0  0  0  0  0  0  0  0  0  0  0
    2.2507    0.1524   -1.1777 C   0  0  0  0  0  0  0  0  0  0  0  0
    5.1575    0.3794   -1.0340 C   0  0  0  0  0  0  0  0  0  0  0  0
    1.3280   -0.8993   -0.6215 C   0  0  0  0  0  0  0  0  0  0  0  0
    4.7086    4.0745    2.0891 C   0  0  0  0  0  0  0  0  0  0  0  0
    1.8241   -2.1150   -0.1639 C   0  0  0  0  0  0  0  0  0  0  0  0
   -0.0398   -0.6512   -0.5647 C   0  0  0  0  0  0  0  0  0  0  0  0
   -0.9104   -1.6262   -0.0474 C   0  0  0  0  0  0  0  0  0  0  0  0
    0.9520   -3.0796    0.3492 C   0  0  0  0  0  0  0  0  0  0  0  0
   -0.4213   -2.8578    0.4178 C   0  0  0  0  0  0  0  0  0  0  0  0
   -2.2875   -1.4413    0.0373 C   0  0  0  0  0  0  0  0  0  0  0  0
    3.5802   -3.6553    0.2822 C   0  0  0  0  0  0  0  0  0  0  0  0
   -2.5593   -3.4976    0.9430 C   0  0  0  0  0  0  0  0  0  0  0  0
   -3.9935    0.4952   -0.0162 C   0  0  0  0  0  0  0  0  0  0  0  0
   -4.6844    1.2796   -0.9399 C   0  0  0  0  0  0  0  0  0  0  0  0
   -4.4337    0.4233    1.3054 C   0  0  0  0  0  0  0  0  0  0  0  0
   -5.8156    1.9920   -0.5418 C   0  0  0  0  0  0  0  0  0  0  0  0
   -5.5650    1.1357    1.7033 C   0  0  0  0  0  0  0  0  0  0  0  0
   -6.2559    1.9202    0.7798 C   0  0  0  0  0  0  0  0  0  0  0  0
    3.9967    2.1386   -1.4558 H   0  0  0  0  0  0  0  0  0  0  0  0
    5.3026    1.6257    1.2801 H   0  0  0  0  0  0  0  0  0  0  0  0
    5.8064    2.7774    0.0463 H   0  0  0  0  0  0  0  0  0  0  0  0
    1.2266    1.4099    0.9383 H   0  0  0  0  0  0  0  0  0  0  0  0
    1.7419    2.5782   -0.2836 H   0  0  0  0  0  0  0  0  0  0  0  0
    2.1349    3.4280    1.9622 H   0  0  0  0  0  0  0  0  0  0  0  0
    3.0641    1.9944    2.4189 H   0  0  0  0  0  0  0  0  0  0  0  0
    2.9239   -0.3716   -1.8672 H   0  0  0  0  0  0  0  0  0  0  0  0
    1.7038    0.8544   -1.8227 H   0  0  0  0  0  0  0  0  0  0  0  0
    5.5891    4.5808    1.6785 H   0  0  0  0  0  0  0  0  0  0  0  0
    5.0312    3.4484    2.9290 H   0  0  0  0  0  0  0  0  0  0  0  0
    4.0482    4.8579    2.4772 H   0  0  0  0  0  0  0  0  0  0  0  0
   -0.4096    0.3074   -0.9192 H   0  0  0  0  0  0  0  0  0  0  0  0
    5.2085    1.1814   -2.9796 H   0  0  0  0  0  0  0  0  0  0  0  0
    6.1753   -0.2288   -2.7490 H   0  0  0  0  0  0  0  0  0  0  0  0
    1.2897   -4.0438    0.7187 H   0  0  0  0  0  0  0  0  0  0  0  0
   -2.4892    0.0745   -1.3135 H   0  0  0  0  0  0  0  0  0  0  0  0
    4.6689   -3.6970    0.1710 H   0  0  0  0  0  0  0  0  0  0  0  0
    3.1702   -4.4760   -0.3163 H   0  0  0  0  0  0  0  0  0  0  0  0
    3.3680   -3.7674    1.3509 H   0  0  0  0  0  0  0  0  0  0  0  0
   -3.2173   -4.2585    1.3444 H   0  0  0  0  0  0  0  0  0  0  0  0
   -3.9052   -0.1688    2.0477 H   0  0  0  0  0  0  0  0  0  0  0  0
   -5.9060    1.0824    2.7331 H   0  0  0  0  0  0  0  0  0  0  0  0
   -7.1352    2.4704    1.1047 H   0  0  0  0  0  0  0  0  0  0  0  0
  1 30  1  0  0  0  0
  2 28  1  0  0  0  0
  3 16  2  0  0  0  0
  4 19  1  0  0  0  0
  4 25  1  0  0  0  0
  5 11  1  0  0  0  0
  5 13  1  0  0  0  0
  5 15  1  0  0  0  0
  6 12  1  0  0  0  0
  6 14  1  0  0  0  0
  6 18  1  0  0  0  0
  7 16  1  0  0  0  0
  7 46  1  0  0  0  0
  7 47  1  0  0  0  0
  8 23  1  0  0  0  0
  8 26  2  0  0  0  0
  9 24  1  0  0  0  0
  9 27  1  0  0  0  0
  9 49  1  0  0  0  0
 10 24  2  0  0  0  0
 10 26  1  0  0  0  0
 11 12  1  0  0  0  0
 11 16  1  0  0  0  0
 11 33  1  0  0  0  0
 12 34  1  0  0  0  0
 12 35  1  0  0  0  0
 13 14  1  0  0  0  0
 13 36  1  0  0  0  0
 13 37  1  0  0  0  0
 14 38  1  0  0  0  0
 14 39  1  0  0  0  0
 15 17  1  0  0  0  0
 15 40  1  0  0  0  0
 15 41  1  0  0  0  0
 17 19  1  0  0  0  0
 17 20  2  0  0  0  0
 18 42  1  0  0  0  0
 18 43  1  0  0  0  0
 18 44  1  0  0  0  0
 19 22  2  0  0  0  0
 20 21  1  0  0  0  0
 20 45  1  0  0  0  0
 21 23  2  0  0  0  0
 21 24  1  0  0  0  0
 22 23  1  0  0  0  0
 22 48  1  0  0  0  0
 25 50  1  0  0  0  0
 25 51  1  0  0  0  0
 25 52  1  0  0  0  0
 26 53  1  0  0  0  0
 27 28  2  0  0  0  0
 27 29  1  0  0  0  0
 28 30  1  0  0  0  0
 29 31  2  0  0  0  0
 29 54  1  0  0  0  0
 30 32  2  0  0  0  0
 31 32  1  0  0  0  0
 31 55  1  0  0  0  0
 32 56  1  0  0  0  0
M  END
> <PUBCHEM_COMPOUND_CID>
44410960

> <PUBCHEM_CONFORMER_RMSD>
1.2

> <PUBCHEM_CONFORMER_DIVERSEORDER>
1
57
77
82
139
60
43
39
35
117
69
131
53
118
104
92
110
91
102
130
121
80
13
109
120
113
65
8
58
84
9
144
59
127
38
99
112
12
68
70
134
52
137
31
29
11
136
28
143
48
133
64
129
26
14
103
123
16
128
93
138
98
79
76
74
119
101
51
114
86
40
105
107
95
111
83
32
72
90
3
46
87
67
132
124
89
49
63
44
97
126
108
36
33
56
61
5
41
125
34
62
42
10
17
73
21
15
96
135
18
115
50
88
100
37
6
4
22
23
7
25
116
142
54
75
141
122
2
106
55
81
24
140
85
27
45
71
94
20
78
66
47
19
30

> <PUBCHEM_MMFF94_PARTIAL_CHARGES>
40
1 -0.18
10 -0.62
11 0.33
12 0.27
13 0.27
14 0.27
15 0.41
16 0.57
17 -0.14
18 0.27
19 0.08
2 -0.19
20 -0.15
22 -0.15
23 0.31
24 0.41
25 0.28
26 0.47
27 0.1
28 0.19
29 -0.15
3 -0.57
30 0.18
31 -0.15
32 -0.15
4 -0.36
45 0.15
46 0.37
47 0.37
48 0.15
49 0.4
5 -0.81
53 0.15
54 0.15
55 0.15
56 0.15
6 -0.81
7 -0.8
8 -0.62
9 -0.6

> <PUBCHEM_EFFECTIVE_ROTOR_COUNT>
7.2

> <PUBCHEM_PHARMACOPHORE_FEATURES>
12
1 3 acceptor
1 4 acceptor
1 5 cation
1 6 cation
1 7 donor
1 9 donor
3 8 10 26 cation
3 9 10 24 cation
6 17 19 20 21 22 23 rings
6 27 28 29 30 31 32 rings
6 5 6 11 12 13 14 rings
6 8 10 21 23 24 26 rings

> <PUBCHEM_HEAVY_ATOM_COUNT>
32

> <PUBCHEM_ATOM_DEF_STEREO_COUNT>
0

> <PUBCHEM_ATOM_UDEF_STEREO_COUNT>
1

> <PUBCHEM_BOND_DEF_STEREO_COUNT>
0

> <PUBCHEM_BOND_UDEF_STEREO_COUNT>
0

> <PUBCHEM_ISOTOPIC_ATOM_COUNT>
0

> <PUBCHEM_COMPONENT_COUNT>
1

> <PUBCHEM_CACTVS_TAUTO_COUNT>
6

> <PUBCHEM_CONFORMER_ID>
02A5A85000000001

> <PUBCHEM_MMFF94_ENERGY>
112.4498

> <PUBCHEM_FEATURE_SELFOVERLAP>
61.072

> <PUBCHEM_SHAPE_FINGERPRINT>
10074138 170 17751364100218339331
12403259 415 18269565003708491306
12422481 6 17676199165401458884
12769317 202 18341047424305699521
12925494 130 18410011069716232083
13140716 1 18334581213629674035
13878862 14 18191287317768449645
13944108 23 17686901618587333605
14223995 32 18409722972190399880
14848178 96 18342453751154143585
14932701 244 17913761993426280975
14950920 106 15574714759245324117
15082195 135 18201142296360184623
15297060 5 18190201129493502236
16112460 7 18196945378565921761
19053607 189 17895472519315506141
19301679 30 9367052394838217447
21033648 144 18341609339151066173
21033648 29 18187641397504147837
21049683 118 17749379344148792979
21279426 13 18342188769257836662
22122407 14 17982182128401694041
23559900 14 18341331089895878210
283562 15 18050557741054662283
2838139 119 18202001019188562557
3459 39 18186800305162240821
376196 1 18411981381600310690
508706 21 18265052620857221715
5104073 3 18261953046144883586
5252454 2 18333734623808535031
552612 73 18339370768010895067
6086070 43 18202289104346814466
6371380 46 18411417315651042596

> <PUBCHEM_SHAPE_MULTIPOLES>
611.52
15.66
5.25
1.63
11.11
1.57
-0.2
-16.38
-2.24
-2.87
2.42
0.15
-1.38
3.45

> <PUBCHEM_SHAPE_SELFOVERLAP>
1317.38

> <PUBCHEM_SHAPE_VOLUME>
338

> <PUBCHEM_COORDINATE_TYPE>
2
5
10

$$$$
