49830499
  -OEChem-10052120443D

 24 26  0     0  0  0  0  0  0999 V2000
   -2.8606   -0.6335   -1.1603 S   0  0  0  0  0  0  0  0  0  0  0  0
    4.0842    0.7601   -0.1214 O   0  0  0  0  0  0  0  0  0  0  0  0
    2.0897    2.0074   -0.1797 N   0  0  0  0  0  0  0  0  0  0  0  0
    0.6398    0.2464   -0.0055 C   0  0  0  0  0  0  0  0  0  0  0  0
    0.6666    1.7309   -0.1263 C   0  0  0  0  0  0  0  0  0  0  0  0
    1.9390   -0.2635    0.0078 C   0  0  0  0  0  0  0  0  0  0  0  0
   -0.4443   -0.6055    0.0869 C   0  0  0  0  0  0  0  0  0  0  0  0
    2.8719    0.8618   -0.1035 C   0  0  0  0  0  0  0  0  0  0  0  0
    2.2114   -1.6134    0.1115 C   0  0  0  0  0  0  0  0  0  0  0  0
   -1.7980   -0.1112    0.0766 C   0  0  0  0  0  0  0  0  0  0  0  0
   -0.1968   -1.9783    0.1929 C   0  0  0  0  0  0  0  0  0  0  0  0
    1.1193   -2.4774    0.2051 C   0  0  0  0  0  0  0  0  0  0  0  0
   -2.4096    0.7621    0.9490 C   0  0  0  0  0  0  0  0  0  0  0  0
   -3.7687    1.0053    0.5973 C   0  0  0  0  0  0  0  0  0  0  0  0
   -4.1439    0.3089   -0.5304 C   0  0  0  0  0  0  0  0  0  0  0  0
    0.2067    2.0871   -1.0516 H   0  0  0  0  0  0  0  0  0  0  0  0
    0.2530    2.2367    0.7494 H   0  0  0  0  0  0  0  0  0  0  0  0
    2.4759    2.9425   -0.2640 H   0  0  0  0  0  0  0  0  0  0  0  0
    3.2257   -1.9947    0.1212 H   0  0  0  0  0  0  0  0  0  0  0  0
   -1.0152   -2.6905    0.2790 H   0  0  0  0  0  0  0  0  0  0  0  0
    1.2848   -3.5481    0.2908 H   0  0  0  0  0  0  0  0  0  0  0  0
   -1.9163    1.2070    1.8044 H   0  0  0  0  0  0  0  0  0  0  0  0
   -4.4375    1.6570    1.1443 H   0  0  0  0  0  0  0  0  0  0  0  0
   -5.1104    0.3083   -1.0143 H   0  0  0  0  0  0  0  0  0  0  0  0
  1 10  1  0  0  0  0
  1 15  1  0  0  0  0
  2  8  2  0  0  0  0
  3  5  1  0  0  0  0
  3  8  1  0  0  0  0
  3 18  1  0  0  0  0
  4  5  1  0  0  0  0
  4  6  1  0  0  0  0
  4  7  2  0  0  0  0
  5 16  1  0  0  0  0
  5 17  1  0  0  0  0
  6  8  1  0  0  0  0
  6  9  2  0  0  0  0
  7 10  1  0  0  0  0
  7 11  1  0  0  0  0
  9 12  1  0  0  0  0
  9 19  1  0  0  0  0
 10 13  2  0  0  0  0
 11 12  2  0  0  0  0
 11 20  1  0  0  0  0
 12 21  1  0  0  0  0
 13 14  1  0  0  0  0
 13 22  1  0  0  0  0
 14 15  2  0  0  0  0
 14 23  1  0  0  0  0
 15 24  1  0  0  0  0
M  END
> <PUBCHEM_COMPOUND_CID>
49830499

> <PUBCHEM_CONFORMER_RMSD>
0.6

> <PUBCHEM_CONFORMER_DIVERSEORDER>
2
3
1

> <PUBCHEM_MMFF94_PARTIAL_CHARGES>
22
1 -0.08
10 -0.01
11 -0.15
12 -0.15
13 -0.15
14 -0.15
15 -0.11
18 0.37
19 0.15
2 -0.57
20 0.15
21 0.15
22 0.15
23 0.15
24 0.15
3 -0.73
4 -0.14
5 0.44
6 0.09
7 0.05
8 0.54
9 -0.15

> <PUBCHEM_EFFECTIVE_ROTOR_COUNT>
1.4

> <PUBCHEM_PHARMACOPHORE_FEATURES>
5
1 2 acceptor
1 3 donor
5 1 10 13 14 15 rings
5 3 4 5 6 8 rings
6 4 6 7 9 11 12 rings

> <PUBCHEM_HEAVY_ATOM_COUNT>
15

> <PUBCHEM_ATOM_DEF_STEREO_COUNT>
0

> <PUBCHEM_ATOM_UDEF_STEREO_COUNT>
0

> <PUBCHEM_BOND_DEF_STEREO_COUNT>
0

> <PUBCHEM_BOND_UDEF_STEREO_COUNT>
0

> <PUBCHEM_ISOTOPIC_ATOM_COUNT>
0

> <PUBCHEM_COMPONENT_COUNT>
1

> <PUBCHEM_CACTVS_TAUTO_COUNT>
2

> <PUBCHEM_CONFORMER_ID>
02F85A6300000002

> <PUBCHEM_MMFF94_ENERGY>
37.0828

> <PUBCHEM_FEATURE_SELFOVERLAP>
25.46

> <PUBCHEM_SHAPE_FINGERPRINT>
10465860 228 18340495443540516209
10608611 8 18188489073734662885
10967382 1 18410012113240102384
10980938 120 18409730621099366299
11471102 20 18336543832941040605
11543360 7 16128091264664763724
12236239 1 18060699473046957741
12346645 6 18410575050440601094
12654215 9 18188202087829432956
13140716 1 18191866936521653352
13380535 76 18408885169825375786
14144814 61 18412545379815097185
14251717 144 18410288082237733063
14897335 6 18411979182492093987
15219456 202 17968653809640424325
15279307 12 18272367581570378031
15309172 13 18334015020753566401
15442244 35 18052821347257911105
15536298 74 18201439138623780622
15775835 57 18343023289639923397
16945 1 18335422352560852674
18186145 218 18411984645790494159
19049666 15 17387406827460491837
193761 8 17832987144427042536
200 152 18271800263914427655
20279233 1 17095243601353495371
20510252 161 17764029459819135834
20645477 70 18338792300398505831
21499 59 18409165549521797679
21524375 3 18335980977498258518
21639500 275 18336815451231583637
2255824 54 18338235955567001066
22854114 111 18410014308332368065
231179 274 17822002108036515404
2334 1 17904768034985981076
23402539 116 18272927245973823732
23402655 69 18341608184010552757
23557571 272 15840968083963979787
23559900 14 18269569398389080596
23598291 2 18058163938961502079
25 1 18407477764750197502
2748010 2 18049450536849457708
3060560 45 18411698781478792886
3071541 37 18261398819206476486
350125 39 17974581495526133777
474 4 18408605881108221097
528886 8 18410008862166124354
53812653 166 18411699915471302616
57096353 35 18201428208190306759
63268167 104 18411417285069248481
7364860 26 18270684156000516678
77492 1 17988637455071421571
7832392 63 18199189490641549233
81228 2 17397822865739821515
81539 233 18113337505193975354
8272917 22 18339647716181291239
84936 182 18202277039187744009
9981440 41 17265794583656400816

> <PUBCHEM_SHAPE_MULTIPOLES>
301.69
6.36
2.14
0.84
2.74
0.63
-0.05
-2.08
-0.48
-1.45
0.1
0.61
0.02
-0.6

> <PUBCHEM_SHAPE_SELFOVERLAP>
662.981

> <PUBCHEM_SHAPE_VOLUME>
165.4

> <PUBCHEM_COORDINATE_TYPE>
2
5
10

$$$$
