11729539
  -OEChem-10052120443D

 55 58  0     0  0  0  0  0  0999 V2000
   -3.2584    1.7890   -2.7847 S   0  0  0  0  0  0  0  0  0  0  0  0
    3.9104   -2.8602   -0.6788 O   0  0  0  0  0  0  0  0  0  0  0  0
    6.4206   -2.0537    0.1986 O   0  0  0  0  0  0  0  0  0  0  0  0
    0.9080    1.2063   -0.1139 N   0  0  0  0  0  0  0  0  0  0  0  0
   -1.6788    0.6068   -1.0271 N   0  0  0  0  0  0  0  0  0  0  0  0
   -3.9680    0.2662   -0.7264 N   0  0  0  0  0  0  0  0  0  0  0  0
    2.4063    2.8241    0.7755 N   0  0  0  0  0  0  0  0  0  0  0  0
    4.7213    2.2870    1.1741 N   0  0  0  0  0  0  0  0  0  0  0  0
   -0.2182    1.2853    0.8279 C   0  0  0  0  0  0  0  0  0  0  0  0
    0.5781    1.4269   -1.5321 C   0  0  0  0  0  0  0  0  0  0  0  0
   -1.3569    0.3747    0.3721 C   0  0  0  0  0  0  0  0  0  0  0  0
   -0.5663    0.5111   -1.9594 C   0  0  0  0  0  0  0  0  0  0  0  0
    2.1939    1.5537    0.3149 C   0  0  0  0  0  0  0  0  0  0  0  0
   -2.9471    0.8392   -1.4433 C   0  0  0  0  0  0  0  0  0  0  0  0
    3.2539    0.6163    0.2750 C   0  0  0  0  0  0  0  0  0  0  0  0
    4.5173    1.0371    0.7220 C   0  0  0  0  0  0  0  0  0  0  0  0
    3.0523   -0.6929   -0.1955 C   0  0  0  0  0  0  0  0  0  0  0  0
   -5.3838    0.3947   -1.0077 C   0  0  0  0  0  0  0  0  0  0  0  0
    5.5606    0.1153    0.6831 C   0  0  0  0  0  0  0  0  0  0  0  0
    4.1129   -1.5933   -0.2232 C   0  0  0  0  0  0  0  0  0  0  0  0
    3.6551    3.1125    1.1759 C   0  0  0  0  0  0  0  0  0  0  0  0
    5.3682   -1.1885    0.2167 C   0  0  0  0  0  0  0  0  0  0  0  0
   -6.2256   -0.3239    0.0068 C   0  0  0  0  0  0  0  0  0  0  0  0
   -6.5678   -1.6548   -0.2024 C   0  0  0  0  0  0  0  0  0  0  0  0
   -6.6542    0.3486    1.1453 C   0  0  0  0  0  0  0  0  0  0  0  0
   -7.3496   -2.3227    0.7401 C   0  0  0  0  0  0  0  0  0  0  0  0
   -7.4360   -0.3195    2.0878 C   0  0  0  0  0  0  0  0  0  0  0  0
    4.1050   -3.0871   -2.0738 C   0  0  0  0  0  0  0  0  0  0  0  0
   -7.7837   -1.6550    1.8851 C   0  0  0  0  0  0  0  0  0  0  0  0
    6.6304   -2.8432    1.3675 C   0  0  0  0  0  0  0  0  0  0  0  0
   -0.5659    2.3244    0.8842 H   0  0  0  0  0  0  0  0  0  0  0  0
    0.0994    0.9838    1.8332 H   0  0  0  0  0  0  0  0  0  0  0  0
    1.4473    1.2287   -2.1709 H   0  0  0  0  0  0  0  0  0  0  0  0
    0.2955    2.4774   -1.6740 H   0  0  0  0  0  0  0  0  0  0  0  0
   -2.2180    0.5507    1.0240 H   0  0  0  0  0  0  0  0  0  0  0  0
   -1.0669   -0.6784    0.4690 H   0  0  0  0  0  0  0  0  0  0  0  0
   -0.8349    0.6986   -3.0012 H   0  0  0  0  0  0  0  0  0  0  0  0
   -0.2264   -0.5325   -1.9209 H   0  0  0  0  0  0  0  0  0  0  0  0
   -3.7134   -0.3892    0.0052 H   0  0  0  0  0  0  0  0  0  0  0  0
    2.0775   -1.0306   -0.5386 H   0  0  0  0  0  0  0  0  0  0  0  0
   -5.6503    1.4584   -1.0282 H   0  0  0  0  0  0  0  0  0  0  0  0
   -5.5819   -0.0047   -2.0100 H   0  0  0  0  0  0  0  0  0  0  0  0
    6.5509    0.4148    1.0228 H   0  0  0  0  0  0  0  0  0  0  0  0
    3.8259    4.1178    1.5412 H   0  0  0  0  0  0  0  0  0  0  0  0
   -6.2333   -2.1852   -1.0898 H   0  0  0  0  0  0  0  0  0  0  0  0
   -6.3875    1.3882    1.3143 H   0  0  0  0  0  0  0  0  0  0  0  0
   -7.6199   -3.3627    0.5828 H   0  0  0  0  0  0  0  0  0  0  0  0
   -7.7734    0.2000    2.9799 H   0  0  0  0  0  0  0  0  0  0  0  0
    5.1357   -2.8571   -2.3615 H   0  0  0  0  0  0  0  0  0  0  0  0
    3.9119   -4.1435   -2.2791 H   0  0  0  0  0  0  0  0  0  0  0  0
    3.4065   -2.4826   -2.6612 H   0  0  0  0  0  0  0  0  0  0  0  0
   -8.3921   -2.1751    2.6191 H   0  0  0  0  0  0  0  0  0  0  0  0
    5.7609   -3.4779    1.5653 H   0  0  0  0  0  0  0  0  0  0  0  0
    7.4994   -3.4844    1.1964 H   0  0  0  0  0  0  0  0  0  0  0  0
    6.8327   -2.2026    2.2317 H   0  0  0  0  0  0  0  0  0  0  0  0
  1 14  2  0  0  0  0
  2 20  1  0  0  0  0
  2 28  1  0  0  0  0
  3 22  1  0  0  0  0
  3 30  1  0  0  0  0
  4  9  1  0  0  0  0
  4 10  1  0  0  0  0
  4 13  1  0  0  0  0
  5 11  1  0  0  0  0
  5 12  1  0  0  0  0
  5 14  1  0  0  0  0
  6 14  1  0  0  0  0
  6 18  1  0  0  0  0
  6 39  1  0  0  0  0
  7 13  2  0  0  0  0
  7 21  1  0  0  0  0
  8 16  1  0  0  0  0
  8 21  2  0  0  0  0
  9 11  1  0  0  0  0
  9 31  1  0  0  0  0
  9 32  1  0  0  0  0
 10 12  1  0  0  0  0
 10 33  1  0  0  0  0
 10 34  1  0  0  0  0
 11 35  1  0  0  0  0
 11 36  1  0  0  0  0
 12 37  1  0  0  0  0
 12 38  1  0  0  0  0
 13 15  1  0  0  0  0
 15 16  1  0  0  0  0
 15 17  2  0  0  0  0
 16 19  2  0  0  0  0
 17 20  1  0  0  0  0
 17 40  1  0  0  0  0
 18 23  1  0  0  0  0
 18 41  1  0  0  0  0
 18 42  1  0  0  0  0
 19 22  1  0  0  0  0
 19 43  1  0  0  0  0
 20 22  2  0  0  0  0
 21 44  1  0  0  0  0
 23 24  2  0  0  0  0
 23 25  1  0  0  0  0
 24 26  1  0  0  0  0
 24 45  1  0  0  0  0
 25 27  2  0  0  0  0
 25 46  1  0  0  0  0
 26 29  2  0  0  0  0
 26 47  1  0  0  0  0
 27 29  1  0  0  0  0
 27 48  1  0  0  0  0
 28 49  1  0  0  0  0
 28 50  1  0  0  0  0
 28 51  1  0  0  0  0
 29 52  1  0  0  0  0
 30 53  1  0  0  0  0
 30 54  1  0  0  0  0
 30 55  1  0  0  0  0
M  END
> <PUBCHEM_COMPOUND_CID>
11729539

> <PUBCHEM_CONFORMER_RMSD>
1

> <PUBCHEM_CONFORMER_DIVERSEORDER>
2
93
25
88
86
13
90
27
7
9
85
84
79
92
37
11
71
26
73
69
17
5
30
45
39
89
35
59
95
38
81
10
96
100
24
12
80
75
72
52
68
101
43
87
102
15
44
78
60
65
64
14
62
50
33
58
21
57
74
76
63
99
55
54
41
49
104
32
29
1
61
31
22
23
53
34
36
8
19
70
56
42
16
6
48
4
94
97
51
103
98
82
47
3
83
28
67
77
46
40
66
18
20
91

> <PUBCHEM_MMFF94_PARTIAL_CHARGES>
38
1 -0.38
10 0.37
11 0.3
12 0.3
13 0.41
14 0.5
16 0.31
17 -0.15
18 0.44
19 -0.15
2 -0.36
20 0.08
21 0.47
22 0.08
23 -0.14
24 -0.15
25 -0.15
26 -0.15
27 -0.15
28 0.28
29 -0.15
3 -0.36
30 0.28
39 0.37
4 -0.84
40 0.15
43 0.15
44 0.15
45 0.15
46 0.15
47 0.15
48 0.15
5 -0.66
52 0.15
6 -0.73
7 -0.62
8 -0.62
9 0.37

> <PUBCHEM_EFFECTIVE_ROTOR_COUNT>
8.2

> <PUBCHEM_PHARMACOPHORE_FEATURES>
10
1 1 acceptor
1 2 acceptor
1 3 acceptor
1 6 donor
3 4 7 13 cation
3 7 8 21 cation
6 15 16 17 19 20 22 rings
6 23 24 25 26 27 29 rings
6 4 5 9 10 11 12 rings
6 7 8 13 15 16 21 rings

> <PUBCHEM_HEAVY_ATOM_COUNT>
30

> <PUBCHEM_ATOM_DEF_STEREO_COUNT>
0

> <PUBCHEM_ATOM_UDEF_STEREO_COUNT>
0

> <PUBCHEM_BOND_DEF_STEREO_COUNT>
0

> <PUBCHEM_BOND_UDEF_STEREO_COUNT>
0

> <PUBCHEM_ISOTOPIC_ATOM_COUNT>
0

> <PUBCHEM_COMPONENT_COUNT>
1

> <PUBCHEM_CACTVS_TAUTO_COUNT>
2

> <PUBCHEM_CONFORMER_ID>
00B2FA8300000002

> <PUBCHEM_MMFF94_ENERGY>
131.7625

> <PUBCHEM_FEATURE_SELFOVERLAP>
50.909

> <PUBCHEM_SHAPE_FINGERPRINT>
10669705 251 18115315600133957715
10883706 89 17702118975896192195
11991303 11 13840273632492878873
12342043 65 18260824886721226533
12616971 3 17418083338929852429
12717326 69 18200039585166493687
12778500 126 13973966472613675382
13008946 62 17686917420168525380
13533116 47 18343305880965304793
13673619 4 18260831475185032997
13782708 43 18113892745717854891
13785724 45 17559410049843299414
14294032 229 15793401948727179213
14556957 393 14056997192586330687
14767858 380 14201116808514569593
14931854 50 11891620062264738726
15183329 4 16271928242509000265
15352257 5 18335423486954913171
15950262 2 13181580392479380738
16992779 147 17843958384676637552
20554085 129 13470408851289479181
21049683 271 18408323281715729796
21315759 148 18334288760816463237
21424621 283 12607417581086118631
21585482 310 18340209596561911822
21623969 137 18413387631260078223
21814621 53 18410284805679359929
22033318 11 17273441438130112825
2303208 19 18187078456182456197
23081809 10 16988556953192479669
23522609 53 17345479378308724209
249057 25 16558170718759676621
2748736 6 13039184793396720395
312425 54 18410864283030166347
3178227 256 18272645758597319354
3459 39 14333407822949487989
3663271 9 17988647454119296859
3862424 121 13985529053198253073
397830 11 18334852866258485901
3991529 202 18057340383657717995
404807 78 16805615780109059650
4169191 19 9367342678255301359
4461854 278 17632570531897520118
46194498 28 18040992956144374956
5470011 282 10953738946290636785
58083652 198 18059563707748501265
6712543 237 18341058501881307331
86090 222 18260559891439507443
8863177 126 18333726927058406630
9831232 110 18187086131204800255
999808 66 18261109656444196775

> <PUBCHEM_SHAPE_MULTIPOLES>
584.59
22.45
3.28
2.04
28.89
1.04
-0.84
17.11
10.69
-4.85
0.07
1.79
-0.31
3.89

> <PUBCHEM_SHAPE_SELFOVERLAP>
1245.941

> <PUBCHEM_SHAPE_VOLUME>
327.1

> <PUBCHEM_COORDINATE_TYPE>
2
5
10

$$$$
