45270357
  -OEChem-10062122033D

 42 45  0     0  0  0  0  0  0999 V2000
    2.8381   -3.2212   -0.4634 O   0  0  0  0  0  0  0  0  0  0  0  0
    2.7560    3.4803    0.4495 O   0  0  0  0  0  0  0  0  0  0  0  0
   -4.9695   -2.2745    0.6216 O   0  0  0  0  0  0  0  0  0  0  0  0
   -6.8370   -0.4967   -0.4158 O   0  0  0  0  0  0  0  0  0  0  0  0
    1.8115   -0.7191   -0.1539 N   0  0  0  0  0  0  0  0  0  0  0  0
    3.8097    1.5274    0.2202 N   0  0  0  0  0  0  0  0  0  0  0  0
    0.9333    0.3614   -0.0356 C   0  0  0  0  0  0  0  0  0  0  0  0
    1.2799    1.6991    0.1584 C   0  0  0  0  0  0  0  0  0  0  0  0
   -1.4541    0.9902   -0.0296 C   0  0  0  0  0  0  0  0  0  0  0  0
    3.1987   -0.8587   -0.1267 C   0  0  0  0  0  0  0  0  0  0  0  0
   -0.4465    0.0348   -0.1262 C   0  0  0  0  0  0  0  0  0  0  0  0
    4.1139    0.1718    0.0451 C   0  0  0  0  0  0  0  0  0  0  0  0
    0.2397    2.6593    0.2547 C   0  0  0  0  0  0  0  0  0  0  0  0
   -2.8436    0.6030   -0.1290 C   0  0  0  0  0  0  0  0  0  0  0  0
    2.6495    2.2588    0.2802 C   0  0  0  0  0  0  0  0  0  0  0  0
   -1.1075    2.3122    0.1622 C   0  0  0  0  0  0  0  0  0  0  0  0
    3.7034   -2.1729   -0.2904 C   0  0  0  0  0  0  0  0  0  0  0  0
    5.4963   -0.1243    0.0503 C   0  0  0  0  0  0  0  0  0  0  0  0
   -3.2468   -0.6630    0.2958 C   0  0  0  0  0  0  0  0  0  0  0  0
   -3.7810    1.4955   -0.6488 C   0  0  0  0  0  0  0  0  0  0  0  0
    5.0681   -2.4559   -0.2845 C   0  0  0  0  0  0  0  0  0  0  0  0
    5.9711   -1.4232   -0.1129 C   0  0  0  0  0  0  0  0  0  0  0  0
   -4.5874   -1.0364    0.2010 C   0  0  0  0  0  0  0  0  0  0  0  0
   -5.1217    1.1221   -0.7437 C   0  0  0  0  0  0  0  0  0  0  0  0
   -5.5249   -0.1438   -0.3187 C   0  0  0  0  0  0  0  0  0  0  0  0
   -3.9494   -3.1261    1.1400 C   0  0  0  0  0  0  0  0  0  0  0  0
   -0.6961   -1.0089   -0.3178 H   0  0  0  0  0  0  0  0  0  0  0  0
    1.3368   -1.6086   -0.2895 H   0  0  0  0  0  0  0  0  0  0  0  0
    0.4570    3.7145    0.4125 H   0  0  0  0  0  0  0  0  0  0  0  0
   -1.8409    3.1053    0.2754 H   0  0  0  0  0  0  0  0  0  0  0  0
    4.6332    2.1170    0.3284 H   0  0  0  0  0  0  0  0  0  0  0  0
    6.2284    0.6713    0.1837 H   0  0  0  0  0  0  0  0  0  0  0  0
   -2.5076   -1.3203    0.7370 H   0  0  0  0  0  0  0  0  0  0  0  0
   -3.5085    2.4802   -1.0186 H   0  0  0  0  0  0  0  0  0  0  0  0
    5.4324   -3.4711   -0.4121 H   0  0  0  0  0  0  0  0  0  0  0  0
    7.0384   -1.6206   -0.1050 H   0  0  0  0  0  0  0  0  0  0  0  0
   -5.8409    1.8246   -1.1563 H   0  0  0  0  0  0  0  0  0  0  0  0
    3.3466   -4.0446   -0.5597 H   0  0  0  0  0  0  0  0  0  0  0  0
   -7.3371    0.2452   -0.7971 H   0  0  0  0  0  0  0  0  0  0  0  0
   -3.1946   -3.3631    0.3822 H   0  0  0  0  0  0  0  0  0  0  0  0
   -3.5107   -2.7191    2.0575 H   0  0  0  0  0  0  0  0  0  0  0  0
   -4.4294   -4.0718    1.4130 H   0  0  0  0  0  0  0  0  0  0  0  0
  1 17  1  0  0  0  0
  1 38  1  0  0  0  0
  2 15  2  0  0  0  0
  3 23  1  0  0  0  0
  3 26  1  0  0  0  0
  4 25  1  0  0  0  0
  4 39  1  0  0  0  0
  5  7  1  0  0  0  0
  5 10  1  0  0  0  0
  5 28  1  0  0  0  0
  6 12  1  0  0  0  0
  6 15  1  0  0  0  0
  6 31  1  0  0  0  0
  7  8  2  0  0  0  0
  7 11  1  0  0  0  0
  8 13  1  0  0  0  0
  8 15  1  0  0  0  0
  9 11  2  0  0  0  0
  9 14  1  0  0  0  0
  9 16  1  0  0  0  0
 10 12  2  0  0  0  0
 10 17  1  0  0  0  0
 11 27  1  0  0  0  0
 12 18  1  0  0  0  0
 13 16  2  0  0  0  0
 13 29  1  0  0  0  0
 14 19  2  0  0  0  0
 14 20  1  0  0  0  0
 16 30  1  0  0  0  0
 17 21  2  0  0  0  0
 18 22  2  0  0  0  0
 18 32  1  0  0  0  0
 19 23  1  0  0  0  0
 19 33  1  0  0  0  0
 20 24  2  0  0  0  0
 20 34  1  0  0  0  0
 21 22  1  0  0  0  0
 21 35  1  0  0  0  0
 22 36  1  0  0  0  0
 23 25  2  0  0  0  0
 24 25  1  0  0  0  0
 24 37  1  0  0  0  0
 26 40  1  0  0  0  0
 26 41  1  0  0  0  0
 26 42  1  0  0  0  0
M  END
> <PUBCHEM_COMPOUND_CID>
45270357

> <PUBCHEM_CONFORMER_RMSD>
0.6

> <PUBCHEM_CONFORMER_DIVERSEORDER>
2
1
4
3

> <PUBCHEM_MMFF94_PARTIAL_CHARGES>
37
1 -0.53
10 0.1
11 -0.15
12 0.12
13 -0.15
15 0.54
16 -0.15
17 0.08
18 -0.15
19 -0.15
2 -0.57
20 -0.15
21 -0.15
22 -0.15
23 0.08
24 -0.15
25 0.08
26 0.28
27 0.15
28 0.4
29 0.15
3 -0.36
30 0.15
31 0.37
32 0.15
33 0.15
34 0.15
35 0.15
36 0.15
37 0.15
38 0.45
39 0.45
4 -0.53
5 -0.6
6 -0.55
7 0.1
8 0.09

> <PUBCHEM_EFFECTIVE_ROTOR_COUNT>
2.4

> <PUBCHEM_PHARMACOPHORE_FEATURES>
11
1 1 donor
1 2 acceptor
1 3 acceptor
1 4 donor
1 5 cation
1 5 donor
1 6 donor
6 10 12 17 18 21 22 rings
6 14 19 20 23 24 25 rings
6 7 8 9 11 13 16 rings
7 5 6 7 8 10 12 15 rings

> <PUBCHEM_HEAVY_ATOM_COUNT>
26

> <PUBCHEM_ATOM_DEF_STEREO_COUNT>
0

> <PUBCHEM_ATOM_UDEF_STEREO_COUNT>
0

> <PUBCHEM_BOND_DEF_STEREO_COUNT>
0

> <PUBCHEM_BOND_UDEF_STEREO_COUNT>
0

> <PUBCHEM_ISOTOPIC_ATOM_COUNT>
0

> <PUBCHEM_COMPONENT_COUNT>
1

> <PUBCHEM_CACTVS_TAUTO_COUNT>
529

> <PUBCHEM_CONFORMER_ID>
02B2C55500000002

> <PUBCHEM_MMFF94_ENERGY>
120.662

> <PUBCHEM_FEATURE_SELFOVERLAP>
55.84

> <PUBCHEM_SHAPE_FINGERPRINT>
10411042 1 18268991995305770068
10622 236 17343473869104767719
10835480 77 18410002234974395885
10838868 158 17318748132654227939
11135609 12 17896616140251136529
11135609 99 18190174595507910762
11719270 70 18339635763556981608
11796584 16 18113612374394771643
11963148 33 17903352946299700570
12107183 9 18128266580162086289
12166972 35 17968383347371311148
12236239 1 17560798836050541313
12516196 113 18343579616405484656
12596602 18 15913034469741966051
12760667 363 18342458115162416073
13402501 40 18409168800712372491
13533116 47 18201717383595492721
13685833 64 18410294701220036659
13955234 65 18128812126501998168
14251751 18 18259990387592234887
14341114 176 18336267933470547297
14866123 147 17981328889555033641
14910302 57 18113610201500263037
15196674 1 18410574002352796105
15320467 1 18410856572673644759
15352361 1 18411419479575945070
15361156 5 18114472261708322471
15927050 60 17839176656647728692
17492 89 18265615562405714595
17844677 252 18341617001383433713
17857418 61 18411419492418622951
1979834 28 17847057758152922286
20028762 73 18131346401798241014
20567600 70 18409164394613672482
20645477 70 18408317804830287888
21033650 10 16805600309848037189
21065198 57 18410292532193259741
21130935 74 18271526511515924563
21267235 1 18341616992561072380
21279426 13 18336540517759531965
21682296 61 18201443536448791495
221490 88 18409732897469151400
22393880 68 18041270015804371323
23522609 53 18124628377094366824
23559900 14 18408879650913791177
239999 70 18260824930034649512
3004659 81 18187081732978505388
314194 84 18202557384635021559
329604 57 18409452458006651694
335352 9 18410009902323930061
338550 245 18335985380093120358
3421961 26 18413669127938485072
3882209 13 17036941769516150583
4015057 19 18341600560696907149
4073 2 18187930628911668075
4214541 1 18409446969154914069
46194498 28 17894348895572128948
465052 167 18201720639538899212
484989 97 18263939868357325818
5104073 3 18272933799698513048
5283173 99 18188767228469837677
54583773 228 18260558857754745758
59682541 35 18200860826542948666
59755656 215 18333447616898382391
6695519 79 17405445767118277001
6823239 73 18409722976199991970
7495541 125 18408887347663691860
7970288 3 18266175020630274298
8863177 126 18336551624265351907
9709674 26 18189899888950161491

> <PUBCHEM_SHAPE_MULTIPOLES>
501.63
14.86
3.56
0.75
5.61
0.36
0.03
8.54
-1.24
-1.5
0.62
0.4
0.14
1.78

> <PUBCHEM_SHAPE_SELFOVERLAP>
1122.965

> <PUBCHEM_SHAPE_VOLUME>
263.1

> <PUBCHEM_COORDINATE_TYPE>
2
5
10

$$$$
