49830971
  -OEChem-10062121543D

 25 26  0     0  0  0  0  0  0999 V2000
    1.1449   -2.6222    0.0281 O   0  0  0  0  0  0  0  0  0  0  0  0
   -1.0897    3.3797    0.0314 O   0  0  0  0  0  0  0  0  0  0  0  0
    0.8011    2.0500   -0.0051 N   0  0  0  0  0  0  0  0  0  0  0  0
    2.6717    0.4356   -0.0316 N   0  0  0  0  0  0  0  0  0  0  0  0
    2.7642   -0.9212    0.0266 N   0  0  0  0  0  0  0  0  0  0  0  0
   -1.6924   -1.4458   -0.0105 C   0  0  0  0  0  0  0  0  0  0  0  0
   -0.8756   -0.1927   -0.0087 C   0  0  0  0  0  0  0  0  0  0  0  0
    0.5557   -0.2805   -0.0242 C   0  0  0  0  0  0  0  0  0  0  0  0
    1.3556    0.7977   -0.0299 C   0  0  0  0  0  0  0  0  0  0  0  0
   -1.4300    1.0343    0.0059 C   0  0  0  0  0  0  0  0  0  0  0  0
   -2.5689   -1.5229   -1.2590 C   0  0  0  0  0  0  0  0  0  0  0  0
   -2.5427   -1.5282    1.2545 C   0  0  0  0  0  0  0  0  0  0  0  0
    1.4768   -1.4499    0.0109 C   0  0  0  0  0  0  0  0  0  0  0  0
   -0.5707    2.2661    0.0115 C   0  0  0  0  0  0  0  0  0  0  0  0
   -1.0737   -2.3429   -0.0211 H   0  0  0  0  0  0  0  0  0  0  0  0
   -2.5027    1.1922    0.0172 H   0  0  0  0  0  0  0  0  0  0  0  0
   -3.3192   -0.7252   -1.2916 H   0  0  0  0  0  0  0  0  0  0  0  0
   -3.1074   -2.4769   -1.2890 H   0  0  0  0  0  0  0  0  0  0  0  0
   -1.9637   -1.4576   -2.1703 H   0  0  0  0  0  0  0  0  0  0  0  0
   -3.2942   -0.7325    1.3059 H   0  0  0  0  0  0  0  0  0  0  0  0
   -1.9201   -1.4666    2.1543 H   0  0  0  0  0  0  0  0  0  0  0  0
   -3.0792   -2.4831    1.2914 H   0  0  0  0  0  0  0  0  0  0  0  0
    1.4310    2.8463    0.0005 H   0  0  0  0  0  0  0  0  0  0  0  0
    3.4158    1.0462    0.2739 H   0  0  0  0  0  0  0  0  0  0  0  0
    3.6617   -1.3866    0.0450 H   0  0  0  0  0  0  0  0  0  0  0  0
  1 13  2  0  0  0  0
  2 14  2  0  0  0  0
  3  9  1  0  0  0  0
  3 14  1  0  0  0  0
  3 23  1  0  0  0  0
  4  5  1  0  0  0  0
  4  9  1  0  0  0  0
  4 24  1  0  0  0  0
  5 13  1  0  0  0  0
  5 25  1  0  0  0  0
  6  7  1  0  0  0  0
  6 11  1  0  0  0  0
  6 12  1  0  0  0  0
  6 15  1  0  0  0  0
  7  8  1  0  0  0  0
  7 10  2  0  0  0  0
  8  9  2  0  0  0  0
  8 13  1  0  0  0  0
 10 14  1  0  0  0  0
 10 16  1  0  0  0  0
 11 17  1  0  0  0  0
 11 18  1  0  0  0  0
 11 19  1  0  0  0  0
 12 20  1  0  0  0  0
 12 21  1  0  0  0  0
 12 22  1  0  0  0  0
M  END
> <PUBCHEM_COMPOUND_CID>
49830971

> <PUBCHEM_CONFORMER_RMSD>
0.4

> <PUBCHEM_CONFORMER_DIVERSEORDER>
1
2

> <PUBCHEM_MMFF94_PARTIAL_CHARGES>
16
1 -0.57
10 -0.14
13 0.62
14 0.62
16 0.15
2 -0.57
23 0.37
24 0.4
25 0.37
3 -0.54
4 -0.52
5 -0.41
6 0.14
7 -0.14
8 0.01
9 0.21

> <PUBCHEM_EFFECTIVE_ROTOR_COUNT>
1

> <PUBCHEM_PHARMACOPHORE_FEATURES>
8
1 1 acceptor
1 2 acceptor
1 3 donor
1 4 donor
1 5 donor
3 6 11 12 hydrophobe
5 4 5 8 9 13 rings
6 3 7 8 9 10 14 rings

> <PUBCHEM_HEAVY_ATOM_COUNT>
14

> <PUBCHEM_ATOM_DEF_STEREO_COUNT>
0

> <PUBCHEM_ATOM_UDEF_STEREO_COUNT>
0

> <PUBCHEM_BOND_DEF_STEREO_COUNT>
0

> <PUBCHEM_BOND_UDEF_STEREO_COUNT>
0

> <PUBCHEM_ISOTOPIC_ATOM_COUNT>
0

> <PUBCHEM_COMPONENT_COUNT>
1

> <PUBCHEM_CACTVS_TAUTO_COUNT>
49

> <PUBCHEM_CONFORMER_ID>
02F85C3B00000001

> <PUBCHEM_MMFF94_ENERGY>
44.2395

> <PUBCHEM_FEATURE_SELFOVERLAP>
42.3

> <PUBCHEM_SHAPE_FINGERPRINT>
1 1 17400919095031618645
10967382 1 18050287273487481956
12423570 1 15819127225959742909
13140716 1 18410857689290529136
13380535 76 17835231256143740470
14817 1 9319628194209188739
16945 1 18338517409205564068
193761 8 18266459798071994092
20511035 2 17759539767311583284
20645476 183 17105412795051417894
20871998 184 18198628739468550015
21061003 4 18191879026727880427
21524375 3 17545036001010165573
2334 1 18266742574213195112
23419403 2 16675766695231284344
23559900 14 17695069895525301774
241688 4 18411699915144346104
2748010 2 18338792441636586652
63268167 104 17909265028974599951
81228 2 18336540508747487129

> <PUBCHEM_SHAPE_MULTIPOLES>
261.43
3.53
3.11
0.83
1.51
1.7
0
-1.43
0.03
-1.24
-0.05
0.74
-0.12
0

> <PUBCHEM_SHAPE_SELFOVERLAP>
563.389

> <PUBCHEM_SHAPE_VOLUME>
145

> <PUBCHEM_COORDINATE_TYPE>
2
5
10

$$$$
