44340904
  -OEChem-10062121583D

 72 78  0     1  0  0  0  0  0999 V2000
   -4.0619   -0.8502    0.8002 O   0  0  0  0  0  0  0  0  0  0  0  0
   -3.0173    1.3595   -1.9579 O   0  0  0  0  0  0  0  0  0  0  0  0
   -5.1271    2.2454   -0.4034 O   0  0  0  0  0  0  0  0  0  0  0  0
   -7.3508    0.5960    0.0299 O   0  0  0  0  0  0  0  0  0  0  0  0
   -5.3974   -1.5970    3.0802 O   0  0  0  0  0  0  0  0  0  0  0  0
    3.1842   -2.7319   -0.7132 O   0  0  0  0  0  0  0  0  0  0  0  0
    4.2252    1.7764   -0.3564 O   0  0  0  0  0  0  0  0  0  0  0  0
   -0.6381   -6.0056   -0.7232 O   0  0  0  0  0  0  0  0  0  0  0  0
    2.2180    6.3495    0.2546 O   0  0  0  0  0  0  0  0  0  0  0  0
    7.7745    0.4883    0.0119 O   0  0  0  0  0  0  0  0  0  0  0  0
    6.2804   -2.6775    2.3769 O   0  0  0  0  0  0  0  0  0  0  0  0
   -1.8677   -0.6559   -0.1051 N   0  0  0  0  0  0  0  0  0  0  0  0
   -1.2430    2.0467    0.1092 N   0  0  0  0  0  0  0  0  0  0  0  0
    4.0806   -0.5622   -0.5730 N   0  0  0  0  0  0  0  0  0  0  0  0
    5.4162   -0.8512   -0.7085 N   0  0  0  0  0  0  0  0  0  0  0  0
   -3.2049    0.0373    0.0691 C   0  0  1  0  0  0  0  0  0  0  0  0
   -3.8379    0.4100   -1.2843 C   0  0  1  0  0  0  0  0  0  0  0  0
   -0.5837   -0.2363   -0.1671 C   0  0  0  0  0  0  0  0  0  0  0  0
   -5.2401    0.9920   -1.0836 C   0  0  1  0  0  0  0  0  0  0  0  0
   -6.0765    0.0262   -0.2416 C   0  0  1  0  0  0  0  0  0  0  0  0
    0.5190   -1.1378   -0.3433 C   0  0  0  0  0  0  0  0  0  0  0  0
   -5.3558   -0.3030    1.0725 C   0  0  1  0  0  0  0  0  0  0  0  0
   -1.7026   -2.0249   -0.2515 C   0  0  0  0  0  0  0  0  0  0  0  0
   -0.2694    1.1236   -0.0594 C   0  0  0  0  0  0  0  0  0  0  0  0
   -0.3116   -2.3500   -0.3945 C   0  0  0  0  0  0  0  0  0  0  0  0
    1.8621   -0.7780   -0.4160 C   0  0  0  0  0  0  0  0  0  0  0  0
    1.1214    1.4689   -0.1370 C   0  0  0  0  0  0  0  0  0  0  0  0
    2.1745    0.5747   -0.3090 C   0  0  0  0  0  0  0  0  0  0  0  0
    0.9051    2.9144    0.0222 C   0  0  0  0  0  0  0  0  0  0  0  0
   -6.1231   -1.3352    1.8928 C   0  0  0  0  0  0  0  0  0  0  0  0
   -0.4923    3.2114    0.1634 C   0  0  0  0  0  0  0  0  0  0  0  0
    3.0993   -1.5264   -0.5884 C   0  0  0  0  0  0  0  0  0  0  0  0
   -2.6979   -3.0139   -0.2671 C   0  0  0  0  0  0  0  0  0  0  0  0
    3.6192    0.7248   -0.4104 C   0  0  0  0  0  0  0  0  0  0  0  0
    0.0184   -3.7177   -0.5537 C   0  0  0  0  0  0  0  0  0  0  0  0
   -2.3187   -4.3472   -0.4270 C   0  0  0  0  0  0  0  0  0  0  0  0
   -0.9820   -4.6957   -0.5683 C   0  0  0  0  0  0  0  0  0  0  0  0
    1.8040    4.0078    0.0576 C   0  0  0  0  0  0  0  0  0  0  0  0
   -0.9552    4.5258    0.3296 C   0  0  0  0  0  0  0  0  0  0  0  0
    6.0205   -1.0614    0.6004 C   0  0  0  0  0  0  0  0  0  0  0  0
    1.3319    5.3142    0.2239 C   0  0  0  0  0  0  0  0  0  0  0  0
   -0.0269    5.5672    0.3577 C   0  0  0  0  0  0  0  0  0  0  0  0
    7.5274   -0.8255    0.4975 C   0  0  0  0  0  0  0  0  0  0  0  0
    5.6999   -2.4759    1.0933 C   0  0  0  0  0  0  0  0  0  0  0  0
   -3.0517    0.8265    0.7962 H   0  0  0  0  0  0  0  0  0  0  0  0
   -3.9097   -0.4840   -1.9162 H   0  0  0  0  0  0  0  0  0  0  0  0
   -5.7234    1.2061   -2.0424 H   0  0  0  0  0  0  0  0  0  0  0  0
   -6.2315   -0.8974   -0.8138 H   0  0  0  0  0  0  0  0  0  0  0  0
   -5.2343    0.5864    1.7034 H   0  0  0  0  0  0  0  0  0  0  0  0
   -6.2156   -2.2785    1.3441 H   0  0  0  0  0  0  0  0  0  0  0  0
   -7.1199   -0.9741    2.1630 H   0  0  0  0  0  0  0  0  0  0  0  0
   -2.2355    2.0441   -0.0035 H   0  0  0  0  0  0  0  0  0  0  0  0
   -3.7577   -2.7990   -0.2154 H   0  0  0  0  0  0  0  0  0  0  0  0
    1.0563   -4.0147   -0.6657 H   0  0  0  0  0  0  0  0  0  0  0  0
   -3.4502    1.5741   -2.8016 H   0  0  0  0  0  0  0  0  0  0  0  0
   -4.6401    2.1307    0.4267 H   0  0  0  0  0  0  0  0  0  0  0  0
   -7.7709    0.7947   -0.8242 H   0  0  0  0  0  0  0  0  0  0  0  0
   -3.0867   -5.1170   -0.4518 H   0  0  0  0  0  0  0  0  0  0  0  0
    2.8707    3.8353   -0.0449 H   0  0  0  0  0  0  0  0  0  0  0  0
   -2.0160    4.7333    0.4347 H   0  0  0  0  0  0  0  0  0  0  0  0
    5.8537   -0.0548   -1.1717 H   0  0  0  0  0  0  0  0  0  0  0  0
    5.6442   -0.3251    1.3250 H   0  0  0  0  0  0  0  0  0  0  0  0
   -5.9000   -2.2600    3.5835 H   0  0  0  0  0  0  0  0  0  0  0  0
   -0.3805    6.5874    0.4864 H   0  0  0  0  0  0  0  0  0  0  0  0
    7.9970   -1.5407   -0.1874 H   0  0  0  0  0  0  0  0  0  0  0  0
    8.0066   -0.9187    1.4775 H   0  0  0  0  0  0  0  0  0  0  0  0
    4.6289   -2.6303    1.2285 H   0  0  0  0  0  0  0  0  0  0  0  0
    6.0905   -3.2391    0.4113 H   0  0  0  0  0  0  0  0  0  0  0  0
    0.3286   -6.0714   -0.8072 H   0  0  0  0  0  0  0  0  0  0  0  0
    3.1188    5.9986    0.1479 H   0  0  0  0  0  0  0  0  0  0  0  0
    8.7394    0.5973   -0.0375 H   0  0  0  0  0  0  0  0  0  0  0  0
    6.0631   -3.5853    2.6496 H   0  0  0  0  0  0  0  0  0  0  0  0
  1 16  1  0  0  0  0
  1 22  1  0  0  0  0
  2 17  1  0  0  0  0
  2 55  1  0  0  0  0
  3 19  1  0  0  0  0
  3 56  1  0  0  0  0
  4 20  1  0  0  0  0
  4 57  1  0  0  0  0
  5 30  1  0  0  0  0
  5 63  1  0  0  0  0
  6 32  2  0  0  0  0
  7 34  2  0  0  0  0
  8 37  1  0  0  0  0
  8 69  1  0  0  0  0
  9 41  1  0  0  0  0
  9 70  1  0  0  0  0
 10 43  1  0  0  0  0
 10 71  1  0  0  0  0
 11 44  1  0  0  0  0
 11 72  1  0  0  0  0
 12 16  1  0  0  0  0
 12 18  1  0  0  0  0
 12 23  1  0  0  0  0
 13 24  1  0  0  0  0
 13 31  1  0  0  0  0
 13 52  1  0  0  0  0
 14 15  1  0  0  0  0
 14 32  1  0  0  0  0
 14 34  1  0  0  0  0
 15 40  1  0  0  0  0
 15 61  1  0  0  0  0
 16 17  1  0  0  0  0
 16 45  1  0  0  0  0
 17 19  1  0  0  0  0
 17 46  1  0  0  0  0
 18 21  1  0  0  0  0
 18 24  2  0  0  0  0
 19 20  1  0  0  0  0
 19 47  1  0  0  0  0
 20 22  1  0  0  0  0
 20 48  1  0  0  0  0
 21 25  1  0  0  0  0
 21 26  2  0  0  0  0
 22 30  1  0  0  0  0
 22 49  1  0  0  0  0
 23 25  2  0  0  0  0
 23 33  1  0  0  0  0
 24 27  1  0  0  0  0
 25 35  1  0  0  0  0
 26 28  1  0  0  0  0
 26 32  1  0  0  0  0
 27 28  2  0  0  0  0
 27 29  1  0  0  0  0
 28 34  1  0  0  0  0
 29 31  2  0  0  0  0
 29 38  1  0  0  0  0
 30 50  1  0  0  0  0
 30 51  1  0  0  0  0
 31 39  1  0  0  0  0
 33 36  2  0  0  0  0
 33 53  1  0  0  0  0
 35 37  2  0  0  0  0
 35 54  1  0  0  0  0
 36 37  1  0  0  0  0
 36 58  1  0  0  0  0
 38 41  2  0  0  0  0
 38 59  1  0  0  0  0
 39 42  2  0  0  0  0
 39 60  1  0  0  0  0
 40 43  1  0  0  0  0
 40 44  1  0  0  0  0
 40 62  1  0  0  0  0
 41 42  1  0  0  0  0
 42 64  1  0  0  0  0
 43 65  1  0  0  0  0
 43 66  1  0  0  0  0
 44 67  1  0  0  0  0
 44 68  1  0  0  0  0
M  END
> <PUBCHEM_COMPOUND_CID>
44340904

> <PUBCHEM_CONFORMER_RMSD>
1

> <PUBCHEM_CONFORMER_DIVERSEORDER>
2
25
19
14
9
21
7
16
20
8
17
10
18
11
13
15
23
24
4
12
22
6
1
3
5

> <PUBCHEM_MMFF94_PARTIAL_CHARGES>
58
1 -0.56
10 -0.68
11 -0.68
12 -0.04
13 -0.05
14 -0.11
15 -0.64
16 0.54
17 0.28
18 -0.05
19 0.28
2 -0.68
20 0.28
21 -0.01
22 0.28
23 -0.15
24 -0.05
26 0.09
27 -0.01
28 0.09
3 -0.68
30 0.28
31 -0.15
32 0.54
33 -0.15
34 0.54
35 -0.15
36 -0.15
37 0.08
38 -0.15
39 -0.15
4 -0.68
40 0.27
41 0.08
42 -0.15
43 0.28
44 0.28
5 -0.68
52 0.27
53 0.15
54 0.15
55 0.4
56 0.4
57 0.4
58 0.15
59 0.15
6 -0.57
60 0.15
61 0.36
63 0.4
64 0.15
69 0.45
7 -0.57
70 0.45
71 0.4
72 0.4
8 -0.53
9 -0.53

> <PUBCHEM_EFFECTIVE_ROTOR_COUNT>
7.4

> <PUBCHEM_PHARMACOPHORE_FEATURES>
28
1 1 acceptor
1 10 acceptor
1 10 donor
1 11 acceptor
1 11 donor
1 12 cation
1 13 cation
1 13 donor
1 15 donor
1 2 acceptor
1 2 donor
1 3 acceptor
1 3 donor
1 4 acceptor
1 4 donor
1 5 acceptor
1 5 donor
1 6 acceptor
1 7 acceptor
1 8 donor
1 9 donor
5 12 18 21 23 25 rings
5 13 24 27 29 31 rings
5 14 26 28 32 34 rings
6 1 16 17 19 20 22 rings
6 18 21 24 26 27 28 rings
6 23 25 33 35 36 37 rings
6 29 31 38 39 41 42 rings

> <PUBCHEM_HEAVY_ATOM_COUNT>
44

> <PUBCHEM_ATOM_DEF_STEREO_COUNT>
0

> <PUBCHEM_ATOM_UDEF_STEREO_COUNT>
5

> <PUBCHEM_BOND_DEF_STEREO_COUNT>
0

> <PUBCHEM_BOND_UDEF_STEREO_COUNT>
0

> <PUBCHEM_ISOTOPIC_ATOM_COUNT>
0

> <PUBCHEM_COMPONENT_COUNT>
1

> <PUBCHEM_CACTVS_TAUTO_COUNT>
114

> <PUBCHEM_CONFORMER_ID>
02A496A800000002

> <PUBCHEM_MMFF94_ENERGY>
164.4719

> <PUBCHEM_FEATURE_SELFOVERLAP>
142.619

> <PUBCHEM_SHAPE_FINGERPRINT>
10050765 1 18051976119174364455
102385 1 17908136934091796335
10930396 42 18125970877181619554
1100329 8 18339924921364423743
11456790 92 18261685788084922777
12058002 1 17272047304219353431
12788726 201 18335423401208087050
13140716 1 18053383489800120340
13782708 43 17749391485673132923
13911987 19 18337099073760560159
14028597 1 17823409401864258450
140371 6 18343029890983811868
14068700 686 17983011155198361822
14117953 113 18341898467759414062
14394314 77 18411133645682390826
14790565 3 18340213998871565973
14937079 2 18411982489944498693
14955137 171 18408889537896500881
15131766 46 14834401499142810762
15320467 1 18411983554895493021
15324884 4 17896302788275711629
15439362 3 18268423719456739109
15815584 197 18197797513548419327
15927050 60 17908428296130799213
16087824 20 18339645525812014349
16728300 4 17607788531422518226
19319366 153 17894911819703212922
19841028 212 17241320254377224850
20775438 99 17262671923583802591
21796203 349 18193023545180691409
22223350 30 18128807732460115650
22311459 1 18412261715048747870
23559900 14 18269265923682453012
24771293 8 18131635564617873387
24771750 20 18048330121637692540
283562 15 18198622125108521016
3178227 256 18338248111036235379
3383291 50 18412261722821673858
42626532 9 16662357189111564489
469060 322 18198075693678344793
6004065 56 18341603824634389879
6086070 43 18264469811281511735
9896288 288 17905038154575927842
9961470 85 18128527361274331649

> <PUBCHEM_SHAPE_MULTIPOLES>
821.01
14.82
7.77
1.27
7.32
6.03
0.79
-6.25
5.2
1.99
-0.05
-1.19
-0.77
-0.01

> <PUBCHEM_SHAPE_SELFOVERLAP>
1851.281

> <PUBCHEM_SHAPE_VOLUME>
429

> <PUBCHEM_COORDINATE_TYPE>
2
5
10

$$$$
