44352791
  -OEChem-10052115163D

 82 90  0     1  0  0  0  0  0999 V2000
    1.1836   -0.2868   -2.6723 O   0  0  0  0  0  0  0  0  0  0  0  0
    1.8158    0.5861    0.4792 O   0  0  0  0  0  0  0  0  0  0  0  0
   -5.3165   -2.0698    0.2353 O   0  0  0  0  0  0  0  0  0  0  0  0
    5.4173    1.4427   -0.5226 O   0  0  0  0  0  0  0  0  0  0  0  0
   -5.9847    0.3886    2.8321 O   0  0  0  0  0  0  0  0  0  0  0  0
   -8.2732    0.5704    2.6793 O   0  0  0  0  0  0  0  0  0  0  0  0
    0.1113    1.3467   -1.4121 N   0  0  0  0  0  0  0  0  0  0  0  0
   -0.0775   -1.6444   -1.2657 N   0  0  0  0  0  0  0  0  0  0  0  0
    4.3944   -0.6158   -0.0926 N   0  0  0  0  0  0  0  0  0  0  0  0
   -5.5994    0.2638    0.2626 N   0  0  0  0  0  0  0  0  0  0  0  0
    1.4038    0.9082   -1.9170 C   0  0  1  0  0  0  0  0  0  0  0  0
    2.4645    0.7553   -0.7885 C   0  0  2  0  0  0  0  0  0  0  0  0
    1.1882   -1.4914   -1.9459 C   0  0  2  0  0  0  0  0  0  0  0  0
    3.3323   -0.4714   -1.0567 C   0  0  2  0  0  0  0  0  0  0  0  0
    2.4382   -1.7068   -1.0798 C   0  0  0  0  0  0  0  0  0  0  0  0
   -1.0222    0.6364   -1.0909 C   0  0  0  0  0  0  0  0  0  0  0  0
   -1.1100   -0.7846   -1.0109 C   0  0  0  0  0  0  0  0  0  0  0  0
   -2.2339    1.3336   -0.7258 C   0  0  0  0  0  0  0  0  0  0  0  0
   -2.4008   -1.3008   -0.5836 C   0  0  0  0  0  0  0  0  0  0  0  0
   -0.2854    2.6534   -1.0925 C   0  0  0  0  0  0  0  0  0  0  0  0
    1.9629    1.8214   -3.0334 C   0  0  0  0  0  0  0  0  0  0  0  0
   -3.4810    0.8192   -0.3862 C   0  0  0  0  0  0  0  0  0  0  0  0
   -0.6476   -2.8804   -0.9446 C   0  0  0  0  0  0  0  0  0  0  0  0
   -1.6793    2.6814   -0.7836 C   0  0  0  0  0  0  0  0  0  0  0  0
   -3.5526   -0.5635   -0.3143 C   0  0  0  0  0  0  0  0  0  0  0  0
   -2.0085   -2.7157   -0.5500 C   0  0  0  0  0  0  0  0  0  0  0  0
   -4.7846    1.4388   -0.0055 C   0  0  0  0  0  0  0  0  0  0  0  0
   -4.9082   -0.9334    0.0924 C   0  0  0  0  0  0  0  0  0  0  0  0
    0.4655    3.8458   -1.0290 C   0  0  0  0  0  0  0  0  0  0  0  0
   -2.2845    3.9347   -0.5108 C   0  0  0  0  0  0  0  0  0  0  0  0
   -0.0548   -4.1599   -0.9949 C   0  0  0  0  0  0  0  0  0  0  0  0
   -2.7250   -3.8886   -0.1984 C   0  0  0  0  0  0  0  0  0  0  0  0
    4.3990   -1.8620    0.6816 C   0  0  0  0  0  0  0  0  0  0  0  0
    5.3688    0.3794    0.0947 C   0  0  0  0  0  0  0  0  0  0  0  0
    2.6855    0.9015    1.5592 C   0  0  0  0  0  0  0  0  0  0  0  0
   -0.1682    5.0585   -0.7460 C   0  0  0  0  0  0  0  0  0  0  0  0
   -1.5304    5.1076   -0.5060 C   0  0  0  0  0  0  0  0  0  0  0  0
   -6.9848    0.3840    0.6631 C   0  0  0  0  0  0  0  0  0  0  0  0
   -0.8034   -5.2817   -0.6423 C   0  0  0  0  0  0  0  0  0  0  0  0
   -2.1231   -5.1492   -0.2470 C   0  0  0  0  0  0  0  0  0  0  0  0
    6.4328    0.1527    1.0857 C   0  0  0  0  0  0  0  0  0  0  0  0
   -7.1670    0.4588    2.1609 C   0  0  0  0  0  0  0  0  0  0  0  0
    7.6231   -0.4654    0.7026 C   0  0  0  0  0  0  0  0  0  0  0  0
    6.2515    0.5577    2.4081 C   0  0  0  0  0  0  0  0  0  0  0  0
    8.6320   -0.6788    1.6419 C   0  0  0  0  0  0  0  0  0  0  0  0
    7.2604    0.3445    3.3473 C   0  0  0  0  0  0  0  0  0  0  0  0
    8.4507   -0.2738    2.9643 C   0  0  0  0  0  0  0  0  0  0  0  0
   -6.0749    0.4531    4.2593 C   0  0  0  0  0  0  0  0  0  0  0  0
    3.0387    1.6868   -0.7504 H   0  0  0  0  0  0  0  0  0  0  0  0
    1.1878   -2.2743   -2.7153 H   0  0  0  0  0  0  0  0  0  0  0  0
    3.8203   -0.3528   -2.0330 H   0  0  0  0  0  0  0  0  0  0  0  0
    2.9920   -2.5573   -1.4986 H   0  0  0  0  0  0  0  0  0  0  0  0
    2.0895   -2.0178   -0.0904 H   0  0  0  0  0  0  0  0  0  0  0  0
    1.1852    2.0644   -3.7681 H   0  0  0  0  0  0  0  0  0  0  0  0
    2.7598    1.3100   -3.5888 H   0  0  0  0  0  0  0  0  0  0  0  0
    2.3913    2.7559   -2.6698 H   0  0  0  0  0  0  0  0  0  0  0  0
   -4.7022    2.0434    0.9015 H   0  0  0  0  0  0  0  0  0  0  0  0
   -5.2215    2.0062   -0.8317 H   0  0  0  0  0  0  0  0  0  0  0  0
    1.5390    3.8498   -1.1756 H   0  0  0  0  0  0  0  0  0  0  0  0
   -3.3446    3.9910   -0.2768 H   0  0  0  0  0  0  0  0  0  0  0  0
    0.9795   -4.2855   -1.3020 H   0  0  0  0  0  0  0  0  0  0  0  0
   -3.7595   -3.8351    0.1208 H   0  0  0  0  0  0  0  0  0  0  0  0
    3.5002   -1.9650    1.2928 H   0  0  0  0  0  0  0  0  0  0  0  0
    5.2349   -1.9171    1.3804 H   0  0  0  0  0  0  0  0  0  0  0  0
    4.5222   -2.7153    0.0085 H   0  0  0  0  0  0  0  0  0  0  0  0
    2.0448    1.2794    2.3642 H   0  0  0  0  0  0  0  0  0  0  0  0
    3.3872    1.7085    1.3347 H   0  0  0  0  0  0  0  0  0  0  0  0
    3.1646    0.0204    1.9767 H   0  0  0  0  0  0  0  0  0  0  0  0
    0.4191    5.9723   -0.7093 H   0  0  0  0  0  0  0  0  0  0  0  0
   -2.0103    6.0570   -0.2864 H   0  0  0  0  0  0  0  0  0  0  0  0
   -7.4104    1.2781    0.1986 H   0  0  0  0  0  0  0  0  0  0  0  0
   -7.5166   -0.5080    0.3163 H   0  0  0  0  0  0  0  0  0  0  0  0
   -0.3453   -6.2662   -0.6783 H   0  0  0  0  0  0  0  0  0  0  0  0
   -2.6976   -6.0295    0.0281 H   0  0  0  0  0  0  0  0  0  0  0  0
    7.7744   -0.7849   -0.3252 H   0  0  0  0  0  0  0  0  0  0  0  0
    5.3353    1.0474    2.7228 H   0  0  0  0  0  0  0  0  0  0  0  0
    9.5588   -1.1602    1.3436 H   0  0  0  0  0  0  0  0  0  0  0  0
    7.1200    0.6613    4.3766 H   0  0  0  0  0  0  0  0  0  0  0  0
    9.2363   -0.4395    3.6956 H   0  0  0  0  0  0  0  0  0  0  0  0
   -5.0626    0.3864    4.6666 H   0  0  0  0  0  0  0  0  0  0  0  0
   -6.6628   -0.3876    4.6397 H   0  0  0  0  0  0  0  0  0  0  0  0
   -6.5158    1.4057    4.5680 H   0  0  0  0  0  0  0  0  0  0  0  0
  1 11  1  0  0  0  0
  1 13  1  0  0  0  0
  2 12  1  0  0  0  0
  2 35  1  0  0  0  0
  3 28  2  0  0  0  0
  4 34  2  0  0  0  0
  5 42  1  0  0  0  0
  5 48  1  0  0  0  0
  6 42  2  0  0  0  0
  7 11  1  0  0  0  0
  7 16  1  0  0  0  0
  7 20  1  0  0  0  0
  8 13  1  0  0  0  0
  8 17  1  0  0  0  0
  8 23  1  0  0  0  0
  9 14  1  0  0  0  0
  9 33  1  0  0  0  0
  9 34  1  0  0  0  0
 10 27  1  0  0  0  0
 10 28  1  0  0  0  0
 10 38  1  0  0  0  0
 11 12  1  0  0  0  0
 11 21  1  0  0  0  0
 12 14  1  0  0  0  0
 12 49  1  0  0  0  0
 13 15  1  0  0  0  0
 13 50  1  0  0  0  0
 14 15  1  0  0  0  0
 14 51  1  0  0  0  0
 15 52  1  0  0  0  0
 15 53  1  0  0  0  0
 16 17  2  0  0  0  0
 16 18  1  0  0  0  0
 17 19  1  0  0  0  0
 18 22  2  0  0  0  0
 18 24  1  0  0  0  0
 19 25  2  0  0  0  0
 19 26  1  0  0  0  0
 20 24  1  0  0  0  0
 20 29  2  0  0  0  0
 21 54  1  0  0  0  0
 21 55  1  0  0  0  0
 21 56  1  0  0  0  0
 22 25  1  0  0  0  0
 22 27  1  0  0  0  0
 23 26  1  0  0  0  0
 23 31  2  0  0  0  0
 24 30  2  0  0  0  0
 25 28  1  0  0  0  0
 26 32  2  0  0  0  0
 27 57  1  0  0  0  0
 27 58  1  0  0  0  0
 29 36  1  0  0  0  0
 29 59  1  0  0  0  0
 30 37  1  0  0  0  0
 30 60  1  0  0  0  0
 31 39  1  0  0  0  0
 31 61  1  0  0  0  0
 32 40  1  0  0  0  0
 32 62  1  0  0  0  0
 33 63  1  0  0  0  0
 33 64  1  0  0  0  0
 33 65  1  0  0  0  0
 34 41  1  0  0  0  0
 35 66  1  0  0  0  0
 35 67  1  0  0  0  0
 35 68  1  0  0  0  0
 36 37  2  0  0  0  0
 36 69  1  0  0  0  0
 37 70  1  0  0  0  0
 38 42  1  0  0  0  0
 38 71  1  0  0  0  0
 38 72  1  0  0  0  0
 39 40  2  0  0  0  0
 39 73  1  0  0  0  0
 40 74  1  0  0  0  0
 41 43  2  0  0  0  0
 41 44  1  0  0  0  0
 43 45  1  0  0  0  0
 43 75  1  0  0  0  0
 44 46  2  0  0  0  0
 44 76  1  0  0  0  0
 45 47  2  0  0  0  0
 45 77  1  0  0  0  0
 46 47  1  0  0  0  0
 46 78  1  0  0  0  0
 47 79  1  0  0  0  0
 48 80  1  0  0  0  0
 48 81  1  0  0  0  0
 48 82  1  0  0  0  0
M  END
> <PUBCHEM_COMPOUND_CID>
44352791

> <PUBCHEM_CONFORMER_RMSD>
1.2

> <PUBCHEM_CONFORMER_DIVERSEORDER>
2
8
6
5
3
7
1
4

> <PUBCHEM_MMFF94_PARTIAL_CHARGES>
57
1 -0.56
10 -0.66
11 0.54
12 0.28
13 0.54
14 0.3
16 -0.05
17 -0.05
18 -0.01
19 -0.01
2 -0.56
20 -0.15
22 -0.14
23 -0.15
25 0.09
27 0.44
28 0.54
29 -0.15
3 -0.57
30 -0.15
31 -0.15
32 -0.15
33 0.3
34 0.54
35 0.28
36 -0.15
37 -0.15
38 0.36
39 -0.15
4 -0.57
40 -0.15
41 0.09
42 0.66
43 -0.15
44 -0.15
45 -0.15
46 -0.15
47 -0.15
48 0.28
5 -0.43
59 0.15
6 -0.57
60 0.15
61 0.15
62 0.15
69 0.15
7 -0.04
70 0.15
73 0.15
74 0.15
75 0.15
76 0.15
77 0.15
78 0.15
79 0.15
8 -0.04
9 -0.66

> <PUBCHEM_EFFECTIVE_ROTOR_COUNT>
8.2

> <PUBCHEM_PHARMACOPHORE_FEATURES>
16
1 1 acceptor
1 2 acceptor
1 3 acceptor
1 4 acceptor
1 6 acceptor
1 7 cation
1 8 cation
5 10 22 25 27 28 rings
5 7 16 18 20 24 rings
5 8 17 19 23 26 rings
6 1 11 12 13 14 15 rings
6 16 17 18 19 22 25 rings
6 20 24 29 30 36 37 rings
6 23 26 31 32 39 40 rings
6 41 43 44 45 46 47 rings
7 1 7 8 11 13 16 17 rings

> <PUBCHEM_HEAVY_ATOM_COUNT>
48

> <PUBCHEM_ATOM_DEF_STEREO_COUNT>
4

> <PUBCHEM_ATOM_UDEF_STEREO_COUNT>
0

> <PUBCHEM_BOND_DEF_STEREO_COUNT>
0

> <PUBCHEM_BOND_UDEF_STEREO_COUNT>
0

> <PUBCHEM_ISOTOPIC_ATOM_COUNT>
0

> <PUBCHEM_COMPONENT_COUNT>
1

> <PUBCHEM_CACTVS_TAUTO_COUNT>
1

> <PUBCHEM_CONFORMER_ID>
02A4C51700000002

> <PUBCHEM_MMFF94_ENERGY>
213.8549

> <PUBCHEM_FEATURE_SELFOVERLAP>
82.159

> <PUBCHEM_SHAPE_FINGERPRINT>
10290309 65 18196361534114018158
10439779 11 18054797444816112389
10930396 42 18196909206599515088
1100329 8 18265902539245717687
12608794 3 18340488962814914949
13947930 73 17458920330614936411
14068700 675 17822004320340824900
14400156 162 18263918844165352186
14705955 166 17917990538251649904
14856354 85 18337939195777435582
15131766 46 15338821076551300192
15320294 125 18113332020378684374
16114785 44 18197190599982442252
16728300 4 17677317312818563434
16994733 274 15841547453392783507
18393751 57 18413389830140876314
21033648 29 17632300107122003422
21133410 171 17049048972948572566
24771293 8 18202004313902940037
3882209 13 17766814492745263711
3886686 26 18125990796770361337
5171179 24 17765721221678581855
563151 248 18260261971512743650
57527358 35 15647064793474448597
6058803 2 17757277354639530958
6691757 9 18340757221623556511
9896288 288 18264479590742618536

> <PUBCHEM_SHAPE_MULTIPOLES>
932.68
18.91
5.72
2.91
18.72
1.11
-2.98
0.12
-25.11
-5.28
3.1
-0.04
-0.76
-0.82

> <PUBCHEM_SHAPE_SELFOVERLAP>
2120.264

> <PUBCHEM_SHAPE_VOLUME>
484.2

> <PUBCHEM_COORDINATE_TYPE>
2
5
10

$$$$
