44340782
  -OEChem-10062121583D

 71 77  0     1  0  0  0  0  0999 V2000
   -4.0307   -1.2031    0.4904 O   0  0  0  0  0  0  0  0  0  0  0  0
   -2.6133    0.9487   -2.1441 O   0  0  0  0  0  0  0  0  0  0  0  0
   -5.0235    1.7614   -1.0562 O   0  0  0  0  0  0  0  0  0  0  0  0
   -7.1929   -0.0094   -0.9510 O   0  0  0  0  0  0  0  0  0  0  0  0
   -5.7258   -1.9364    2.5222 O   0  0  0  0  0  0  0  0  0  0  0  0
    3.4628   -2.6728    0.4429 O   0  0  0  0  0  0  0  0  0  0  0  0
    4.1674    1.9048    0.7371 O   0  0  0  0  0  0  0  0  0  0  0  0
   -2.5446    4.5366    0.1753 O   0  0  0  0  0  0  0  0  0  0  0  0
    7.2347   -2.7948    0.0475 O   0  0  0  0  0  0  0  0  0  0  0  0
    6.9992    0.6690   -2.3598 O   0  0  0  0  0  0  0  0  0  0  0  0
   -1.7201   -0.9053   -0.0040 N   0  0  0  0  0  0  0  0  0  0  0  0
   -1.2987    1.8388    0.1723 N   0  0  0  0  0  0  0  0  0  0  0  0
    4.1960   -0.4451    0.6262 N   0  0  0  0  0  0  0  0  0  0  0  0
    5.5448   -0.6688    0.7541 N   0  0  0  0  0  0  0  0  0  0  0  0
   -3.1031   -0.2941   -0.1176 C   0  0  1  0  0  0  0  0  0  0  0  0
   -3.4910   -0.0222   -1.5828 C   0  0  1  0  0  0  0  0  0  0  0  0
   -0.4727   -0.4061    0.1483 C   0  0  0  0  0  0  0  0  0  0  0  0
   -4.9363    0.4750   -1.6761 C   0  0  1  0  0  0  0  0  0  0  0  0
   -5.8603   -0.5060   -0.9513 C   0  0  1  0  0  0  0  0  0  0  0  0
    0.6922   -1.2407    0.2277 C   0  0  0  0  0  0  0  0  0  0  0  0
   -5.3813   -0.7304    0.4891 C   0  0  1  0  0  0  0  0  0  0  0  0
   -1.4542   -2.2658   -0.0424 C   0  0  0  0  0  0  0  0  0  0  0  0
   -0.2607    0.9747    0.2370 C   0  0  0  0  0  0  0  0  0  0  0  0
   -0.0450   -2.5054    0.0907 C   0  0  0  0  0  0  0  0  0  0  0  0
    2.0028   -0.7977    0.3839 C   0  0  0  0  0  0  0  0  0  0  0  0
    1.0987    1.4062    0.3974 C   0  0  0  0  0  0  0  0  0  0  0  0
    2.2136    0.5758    0.4719 C   0  0  0  0  0  0  0  0  0  0  0  0
    0.7760    2.8402    0.4337 C   0  0  0  0  0  0  0  0  0  0  0  0
   -6.2296   -1.7741    1.2090 C   0  0  0  0  0  0  0  0  0  0  0  0
   -0.6377    3.0514    0.2990 C   0  0  0  0  0  0  0  0  0  0  0  0
    3.2902   -1.4709    0.4838 C   0  0  0  0  0  0  0  0  0  0  0  0
   -2.3720   -3.3174   -0.1873 C   0  0  0  0  0  0  0  0  0  0  0  0
    3.6411    0.8150    0.6300 C   0  0  0  0  0  0  0  0  0  0  0  0
    0.3851   -3.8543    0.0696 C   0  0  0  0  0  0  0  0  0  0  0  0
   -1.8955   -4.6287   -0.2019 C   0  0  0  0  0  0  0  0  0  0  0  0
   -0.5385   -4.8951   -0.0756 C   0  0  0  0  0  0  0  0  0  0  0  0
    1.5899    3.9904    0.5730 C   0  0  0  0  0  0  0  0  0  0  0  0
   -1.1963    4.3387    0.3042 C   0  0  0  0  0  0  0  0  0  0  0  0
    6.1737   -0.7138   -0.5591 C   0  0  0  0  0  0  0  0  0  0  0  0
    1.0227    5.2692    0.5771 C   0  0  0  0  0  0  0  0  0  0  0  0
   -0.3493    5.4387    0.4445 C   0  0  0  0  0  0  0  0  0  0  0  0
    7.4873   -1.4890   -0.4567 C   0  0  0  0  0  0  0  0  0  0  0  0
    6.3953    0.7126   -1.0720 C   0  0  0  0  0  0  0  0  0  0  0  0
   -3.1332    0.5343    0.5811 H   0  0  0  0  0  0  0  0  0  0  0  0
   -3.3929   -0.9455   -2.1673 H   0  0  0  0  0  0  0  0  0  0  0  0
   -5.2428    0.6155   -2.7178 H   0  0  0  0  0  0  0  0  0  0  0  0
   -5.8533   -1.4617   -1.4909 H   0  0  0  0  0  0  0  0  0  0  0  0
   -5.4303    0.1915    1.0822 H   0  0  0  0  0  0  0  0  0  0  0  0
   -6.1646   -2.7441    0.7049 H   0  0  0  0  0  0  0  0  0  0  0  0
   -7.2781   -1.4674    1.2706 H   0  0  0  0  0  0  0  0  0  0  0  0
   -2.2512    1.7668   -0.1200 H   0  0  0  0  0  0  0  0  0  0  0  0
   -3.4332   -3.1701   -0.3434 H   0  0  0  0  0  0  0  0  0  0  0  0
    1.4371   -4.1025    0.1649 H   0  0  0  0  0  0  0  0  0  0  0  0
   -2.8917    1.0981   -3.0637 H   0  0  0  0  0  0  0  0  0  0  0  0
   -4.6950    1.7146   -0.1455 H   0  0  0  0  0  0  0  0  0  0  0  0
   -7.4559    0.1243   -1.8775 H   0  0  0  0  0  0  0  0  0  0  0  0
   -2.5952   -5.4512   -0.3260 H   0  0  0  0  0  0  0  0  0  0  0  0
   -0.1873   -5.9235   -0.0924 H   0  0  0  0  0  0  0  0  0  0  0  0
    2.6661    3.8987    0.6789 H   0  0  0  0  0  0  0  0  0  0  0  0
    5.6604   -1.5647    1.2279 H   0  0  0  0  0  0  0  0  0  0  0  0
    5.5461   -1.2677   -1.2720 H   0  0  0  0  0  0  0  0  0  0  0  0
   -6.2757   -2.6084    2.9597 H   0  0  0  0  0  0  0  0  0  0  0  0
    1.6654    6.1389    0.6852 H   0  0  0  0  0  0  0  0  0  0  0  0
   -0.7571    6.4468    0.4516 H   0  0  0  0  0  0  0  0  0  0  0  0
    8.1934   -0.9897    0.2165 H   0  0  0  0  0  0  0  0  0  0  0  0
    7.9593   -1.5922   -1.4392 H   0  0  0  0  0  0  0  0  0  0  0  0
    5.4563    1.2507   -1.2068 H   0  0  0  0  0  0  0  0  0  0  0  0
    7.0457    1.2858   -0.4022 H   0  0  0  0  0  0  0  0  0  0  0  0
   -2.7255    5.4919    0.2030 H   0  0  0  0  0  0  0  0  0  0  0  0
    8.0914   -3.2523    0.0961 H   0  0  0  0  0  0  0  0  0  0  0  0
    7.1310    1.5892   -2.6453 H   0  0  0  0  0  0  0  0  0  0  0  0
  1 15  1  0  0  0  0
  1 21  1  0  0  0  0
  2 16  1  0  0  0  0
  2 54  1  0  0  0  0
  3 18  1  0  0  0  0
  3 55  1  0  0  0  0
  4 19  1  0  0  0  0
  4 56  1  0  0  0  0
  5 29  1  0  0  0  0
  5 62  1  0  0  0  0
  6 31  2  0  0  0  0
  7 33  2  0  0  0  0
  8 38  1  0  0  0  0
  8 69  1  0  0  0  0
  9 42  1  0  0  0  0
  9 70  1  0  0  0  0
 10 43  1  0  0  0  0
 10 71  1  0  0  0  0
 11 15  1  0  0  0  0
 11 17  1  0  0  0  0
 11 22  1  0  0  0  0
 12 23  1  0  0  0  0
 12 30  1  0  0  0  0
 12 51  1  0  0  0  0
 13 14  1  0  0  0  0
 13 31  1  0  0  0  0
 13 33  1  0  0  0  0
 14 39  1  0  0  0  0
 14 60  1  0  0  0  0
 15 16  1  0  0  0  0
 15 44  1  0  0  0  0
 16 18  1  0  0  0  0
 16 45  1  0  0  0  0
 17 20  1  0  0  0  0
 17 23  2  0  0  0  0
 18 19  1  0  0  0  0
 18 46  1  0  0  0  0
 19 21  1  0  0  0  0
 19 47  1  0  0  0  0
 20 24  1  0  0  0  0
 20 25  2  0  0  0  0
 21 29  1  0  0  0  0
 21 48  1  0  0  0  0
 22 24  1  0  0  0  0
 22 32  2  0  0  0  0
 23 26  1  0  0  0  0
 24 34  2  0  0  0  0
 25 27  1  0  0  0  0
 25 31  1  0  0  0  0
 26 27  2  0  0  0  0
 26 28  1  0  0  0  0
 27 33  1  0  0  0  0
 28 30  2  0  0  0  0
 28 37  1  0  0  0  0
 29 49  1  0  0  0  0
 29 50  1  0  0  0  0
 30 38  1  0  0  0  0
 32 35  1  0  0  0  0
 32 52  1  0  0  0  0
 34 36  1  0  0  0  0
 34 53  1  0  0  0  0
 35 36  2  0  0  0  0
 35 57  1  0  0  0  0
 36 58  1  0  0  0  0
 37 40  2  0  0  0  0
 37 59  1  0  0  0  0
 38 41  2  0  0  0  0
 39 42  1  0  0  0  0
 39 43  1  0  0  0  0
 39 61  1  0  0  0  0
 40 41  1  0  0  0  0
 40 63  1  0  0  0  0
 41 64  1  0  0  0  0
 42 65  1  0  0  0  0
 42 66  1  0  0  0  0
 43 67  1  0  0  0  0
 43 68  1  0  0  0  0
M  END
> <PUBCHEM_COMPOUND_CID>
44340782

> <PUBCHEM_CONFORMER_RMSD>
1

> <PUBCHEM_CONFORMER_DIVERSEORDER>
2
19
4
21
25
27
26
16
22
13
17
14
7
23
18
10
20
11
15
9
8
24
12
5
1
3
6

> <PUBCHEM_MMFF94_PARTIAL_CHARGES>
57
1 -0.56
10 -0.68
11 -0.04
12 -0.05
13 -0.11
14 -0.64
15 0.54
16 0.28
17 -0.05
18 0.28
19 0.28
2 -0.68
20 -0.01
21 0.28
22 -0.15
23 -0.05
25 0.09
26 -0.01
27 0.09
29 0.28
3 -0.68
30 -0.15
31 0.54
32 -0.15
33 0.54
34 -0.15
35 -0.15
36 -0.15
37 -0.15
38 0.08
39 0.27
4 -0.68
40 -0.15
41 -0.15
42 0.28
43 0.28
5 -0.68
51 0.27
52 0.15
53 0.15
54 0.4
55 0.4
56 0.4
57 0.15
58 0.15
59 0.15
6 -0.57
60 0.36
62 0.4
63 0.15
64 0.15
69 0.45
7 -0.57
70 0.4
71 0.4
8 -0.53
9 -0.68

> <PUBCHEM_EFFECTIVE_ROTOR_COUNT>
7.4

> <PUBCHEM_PHARMACOPHORE_FEATURES>
27
1 1 acceptor
1 10 acceptor
1 10 donor
1 11 cation
1 12 cation
1 12 donor
1 14 donor
1 2 acceptor
1 2 donor
1 3 acceptor
1 3 donor
1 4 acceptor
1 4 donor
1 5 acceptor
1 5 donor
1 6 acceptor
1 7 acceptor
1 8 donor
1 9 acceptor
1 9 donor
5 11 17 20 22 24 rings
5 12 23 26 28 30 rings
5 13 25 27 31 33 rings
6 1 15 16 18 19 21 rings
6 17 20 23 25 26 27 rings
6 22 24 32 34 35 36 rings
6 28 30 37 38 40 41 rings

> <PUBCHEM_HEAVY_ATOM_COUNT>
43

> <PUBCHEM_ATOM_DEF_STEREO_COUNT>
0

> <PUBCHEM_ATOM_UDEF_STEREO_COUNT>
5

> <PUBCHEM_BOND_DEF_STEREO_COUNT>
0

> <PUBCHEM_BOND_UDEF_STEREO_COUNT>
0

> <PUBCHEM_ISOTOPIC_ATOM_COUNT>
0

> <PUBCHEM_COMPONENT_COUNT>
1

> <PUBCHEM_CACTVS_TAUTO_COUNT>
38

> <PUBCHEM_CONFORMER_ID>
02A4962E00000002

> <PUBCHEM_MMFF94_ENERGY>
162.4121

> <PUBCHEM_FEATURE_SELFOVERLAP>
137.542

> <PUBCHEM_SHAPE_FINGERPRINT>
10190108 129 18341056203535779777
10190206 1 18337684018821668060
102385 1 17763457722357767531
10675989 125 17182196043612340173
10864689 126 18338223895667800477
1100329 8 18267298914391023395
12058002 1 17415033323776037315
12440605 4 17910115707656593179
12788726 201 18335414617878745186
13140716 1 17979623860304844448
13911987 19 18336255769843532319
140371 6 18341615944779086080
14040222 275 18271817847347085692
14790565 3 18411416168283195721
14955137 171 18336836401976721051
15198563 99 18340488842355923356
15320467 1 18411410701195918825
15324884 4 17679839760903982221
15351339 4 18045764720839568545
15439362 3 18123737910636885857
15927050 60 17763462111877498293
15950262 2 15720227263048130612
16087824 20 18339361860533650233
16628084 112 18195522602341764134
19311894 1 18341323495971543279
19319366 153 17894905227018188554
19611394 137 18115884043039165227
20775438 99 17551470720991687862
21133410 127 17466208044604543957
21792961 116 18260265214139107626
21792965 169 18263381239415246678
21796203 349 18048068352149634515
22311459 1 18411696561677396538
22440779 20 16664330876517814642
23559900 14 18270391832263217368
23576562 1 18117555343831291111
24771750 20 17902805394141308124
283562 15 18269271257641087560
3178227 256 18409174337658200251
3383291 50 18411973668050102602
5265222 85 18188777265913903598
57527358 35 15194705965447466635
6700243 42 17842315620800870550
9896288 288 18057328275670189201

> <PUBCHEM_SHAPE_MULTIPOLES>
806.3
15.12
6.88
1.27
10.32
5.37
-0.34
-8.05
-3.66
-0.65
1.35
-0.88
0.02
1.17

> <PUBCHEM_SHAPE_SELFOVERLAP>
1817.901

> <PUBCHEM_SHAPE_VOLUME>
420.9

> <PUBCHEM_COORDINATE_TYPE>
2
5
10

$$$$
