5330420
  -OEChem-10062121593D

 60 64  0     0  0  0  0  0  0999 V2000
   -3.8983    2.2118   -3.2226 Cl  0  0  0  0  0  0  0  0  0  0  0  0
   -5.2458    4.9355    1.2035 Cl  0  0  0  0  0  0  0  0  0  0  0  0
   -0.4567   -0.7552   -0.3843 S   0  0  0  0  0  0  0  0  0  0  0  0
   -4.6755    2.3387    2.6044 O   0  0  0  0  0  0  0  0  0  0  0  0
    6.3236    0.4100    0.5532 N   0  0  0  0  0  0  0  0  0  0  0  0
    7.9649    1.8776   -1.3204 N   0  0  0  0  0  0  0  0  0  0  0  0
    2.2072   -0.4741    0.8046 N   0  0  0  0  0  0  0  0  0  0  0  0
   -3.4691   -0.1247   -1.3215 N   0  0  0  0  0  0  0  0  0  0  0  0
   -2.5792   -3.9431    0.2996 N   0  0  0  0  0  0  0  0  0  0  0  0
   -6.6059   -1.9358   -1.3852 N   0  0  0  0  0  0  0  0  0  0  0  0
    6.1738    0.2290   -0.8958 C   0  0  0  0  0  0  0  0  0  0  0  0
    7.7034    0.7879    0.8821 C   0  0  0  0  0  0  0  0  0  0  0  0
    6.5852    1.4987   -1.6491 C   0  0  0  0  0  0  0  0  0  0  0  0
    8.1160    2.0570    0.1286 C   0  0  0  0  0  0  0  0  0  0  0  0
    5.9319   -0.8015    1.2709 C   0  0  0  0  0  0  0  0  0  0  0  0
    8.3550    3.0901   -2.0371 C   0  0  0  0  0  0  0  0  0  0  0  0
    4.4968   -1.1714    1.0057 C   0  0  0  0  0  0  0  0  0  0  0  0
    4.1525   -2.4803    0.7305 C   0  0  0  0  0  0  0  0  0  0  0  0
    3.5131   -0.2096    1.0339 C   0  0  0  0  0  0  0  0  0  0  0  0
    2.8190   -2.7917    0.4890 C   0  0  0  0  0  0  0  0  0  0  0  0
    1.8934   -1.7617    0.5373 C   0  0  0  0  0  0  0  0  0  0  0  0
    0.4945   -2.0016    0.2989 C   0  0  0  0  0  0  0  0  0  0  0  0
   -1.8772   -1.7231   -0.3579 C   0  0  0  0  0  0  0  0  0  0  0  0
   -0.2474   -3.1372    0.5457 C   0  0  0  0  0  0  0  0  0  0  0  0
   -1.6168   -2.9882    0.1709 C   0  0  0  0  0  0  0  0  0  0  0  0
   -3.1718   -1.3929   -0.7825 C   0  0  0  0  0  0  0  0  0  0  0  0
   -4.1573   -2.3628   -0.6536 C   0  0  0  0  0  0  0  0  0  0  0  0
   -3.8110   -3.5894   -0.1188 C   0  0  0  0  0  0  0  0  0  0  0  0
   -3.8913    1.0857   -0.7371 C   0  0  0  0  0  0  0  0  0  0  0  0
   -4.0813    1.1365    0.6459 C   0  0  0  0  0  0  0  0  0  0  0  0
   -4.1219    2.2268   -1.5097 C   0  0  0  0  0  0  0  0  0  0  0  0
   -4.4993    2.3209    1.2528 C   0  0  0  0  0  0  0  0  0  0  0  0
   -4.5396    3.4112   -0.9027 C   0  0  0  0  0  0  0  0  0  0  0  0
   -5.5091   -2.1271   -1.0575 C   0  0  0  0  0  0  0  0  0  0  0  0
   -4.7284    3.4582    0.4784 C   0  0  0  0  0  0  0  0  0  0  0  0
   -3.5474    2.6958    3.3997 C   0  0  0  0  0  0  0  0  0  0  0  0
    5.1379    0.0191   -1.1821 H   0  0  0  0  0  0  0  0  0  0  0  0
    6.7817   -0.6164   -1.2472 H   0  0  0  0  0  0  0  0  0  0  0  0
    8.4012   -0.0260    0.6426 H   0  0  0  0  0  0  0  0  0  0  0  0
    7.7877    0.9838    1.9581 H   0  0  0  0  0  0  0  0  0  0  0  0
    5.8870    2.3126   -1.4099 H   0  0  0  0  0  0  0  0  0  0  0  0
    6.5025    1.3034   -2.7253 H   0  0  0  0  0  0  0  0  0  0  0  0
    9.1640    2.2746    0.3678 H   0  0  0  0  0  0  0  0  0  0  0  0
    7.5168    2.9071    0.4826 H   0  0  0  0  0  0  0  0  0  0  0  0
    6.0327   -0.6458    2.3530 H   0  0  0  0  0  0  0  0  0  0  0  0
    6.5944   -1.6366    1.0057 H   0  0  0  0  0  0  0  0  0  0  0  0
    9.3994    3.3434   -1.8239 H   0  0  0  0  0  0  0  0  0  0  0  0
    7.7301    3.9498   -1.7693 H   0  0  0  0  0  0  0  0  0  0  0  0
    8.2839    2.9364   -3.1196 H   0  0  0  0  0  0  0  0  0  0  0  0
    4.9005   -3.2668    0.6982 H   0  0  0  0  0  0  0  0  0  0  0  0
    3.7237    0.8312    1.2572 H   0  0  0  0  0  0  0  0  0  0  0  0
    2.5407   -3.8162    0.2648 H   0  0  0  0  0  0  0  0  0  0  0  0
    0.1599   -4.0417    0.9815 H   0  0  0  0  0  0  0  0  0  0  0  0
   -3.6943   -0.1718   -2.3127 H   0  0  0  0  0  0  0  0  0  0  0  0
   -4.5539   -4.3754   -0.0014 H   0  0  0  0  0  0  0  0  0  0  0  0
   -3.9097    0.2626    1.2699 H   0  0  0  0  0  0  0  0  0  0  0  0
   -4.7182    4.2988   -1.5061 H   0  0  0  0  0  0  0  0  0  0  0  0
   -2.7607    1.9408    3.3021 H   0  0  0  0  0  0  0  0  0  0  0  0
   -3.8645    2.7356    4.4453 H   0  0  0  0  0  0  0  0  0  0  0  0
   -3.1585    3.6784    3.1150 H   0  0  0  0  0  0  0  0  0  0  0  0
  1 31  1  0  0  0  0
  2 35  1  0  0  0  0
  3 22  1  0  0  0  0
  3 23  1  0  0  0  0
  4 32  1  0  0  0  0
  4 36  1  0  0  0  0
  5 11  1  0  0  0  0
  5 12  1  0  0  0  0
  5 15  1  0  0  0  0
  6 13  1  0  0  0  0
  6 14  1  0  0  0  0
  6 16  1  0  0  0  0
  7 19  1  0  0  0  0
  7 21  2  0  0  0  0
  8 26  1  0  0  0  0
  8 29  1  0  0  0  0
  8 54  1  0  0  0  0
  9 25  2  0  0  0  0
  9 28  1  0  0  0  0
 10 34  3  0  0  0  0
 11 13  1  0  0  0  0
 11 37  1  0  0  0  0
 11 38  1  0  0  0  0
 12 14  1  0  0  0  0
 12 39  1  0  0  0  0
 12 40  1  0  0  0  0
 13 41  1  0  0  0  0
 13 42  1  0  0  0  0
 14 43  1  0  0  0  0
 14 44  1  0  0  0  0
 15 17  1  0  0  0  0
 15 45  1  0  0  0  0
 15 46  1  0  0  0  0
 16 47  1  0  0  0  0
 16 48  1  0  0  0  0
 16 49  1  0  0  0  0
 17 18  1  0  0  0  0
 17 19  2  0  0  0  0
 18 20  2  0  0  0  0
 18 50  1  0  0  0  0
 19 51  1  0  0  0  0
 20 21  1  0  0  0  0
 20 52  1  0  0  0  0
 21 22  1  0  0  0  0
 22 24  2  0  0  0  0
 23 25  1  0  0  0  0
 23 26  2  0  0  0  0
 24 25  1  0  0  0  0
 24 53  1  0  0  0  0
 26 27  1  0  0  0  0
 27 28  2  0  0  0  0
 27 34  1  0  0  0  0
 28 55  1  0  0  0  0
 29 30  2  0  0  0  0
 29 31  1  0  0  0  0
 30 32  1  0  0  0  0
 30 56  1  0  0  0  0
 31 33  2  0  0  0  0
 32 35  2  0  0  0  0
 33 35  1  0  0  0  0
 33 57  1  0  0  0  0
 36 58  1  0  0  0  0
 36 59  1  0  0  0  0
 36 60  1  0  0  0  0
M  END
> <PUBCHEM_COMPOUND_CID>
5330420

> <PUBCHEM_CONFORMER_RMSD>
1

> <PUBCHEM_CONFORMER_DIVERSEORDER>
1
150
129
139
132
28
93
11
128
109
63
82
52
12
87
79
70
166
192
102
152
40
68
195
83
19
15
177
184
133
117
185
67
140
147
30
85
141
167
37
143
2
32
90
111
62
175
42
64
188
95
151
127
77
161
135
126
164
3
198
107
149
61
145
80
39
7
84
45
112
22
194
136
187
31
113
16
74
181
60
43
98
41
8
103
108
153
196
20
100
59
203
36
120
89
92
46
18
58
193
182
200
115
69
173
86
99
174
4
48
171
6
176
49
81
56
38
160
186
5
191
97
122
156
137
101
91
169
158
202
57
14
26
157
199
201
96
154
155
159
66
123
116
50
163
105
10
118
21
178
78
179
33
34
94
130
72
168
138
53
9
114
125
76
144
124
165
71
23
106
44
27
55
73
183
51
146
189
148
17
13
131
35
197
65
104
75
162
110
24
121
25
190
29
180
142
54
134
119
172
170
88
47

> <PUBCHEM_MMFF94_PARTIAL_CHARGES>
44
1 -0.18
10 -0.56
11 0.27
12 0.27
13 0.27
14 0.27
15 0.41
16 0.27
17 -0.14
18 -0.15
19 0.16
2 -0.18
20 -0.15
21 0.36
22 -0.01
23 0.04
24 -0.15
25 0.26
26 0.1
27 0.07
28 0.16
29 0.1
3 -0.08
30 -0.15
31 0.18
32 0.08
33 -0.15
34 0.48
35 0.18
36 0.28
4 -0.36
5 -0.81
50 0.15
51 0.15
52 0.15
53 0.15
54 0.4
55 0.15
56 0.15
57 0.15
6 -0.81
7 -0.62
8 -0.6
9 -0.57

> <PUBCHEM_EFFECTIVE_ROTOR_COUNT>
7.2

> <PUBCHEM_PHARMACOPHORE_FEATURES>
13
1 10 acceptor
1 4 acceptor
1 5 cation
1 6 cation
1 7 acceptor
1 8 cation
1 8 donor
1 9 acceptor
5 3 22 23 24 25 rings
6 29 30 31 32 33 35 rings
6 5 6 11 12 13 14 rings
6 7 17 18 19 20 21 rings
6 9 23 25 26 27 28 rings

> <PUBCHEM_HEAVY_ATOM_COUNT>
36

> <PUBCHEM_ATOM_DEF_STEREO_COUNT>
0

> <PUBCHEM_ATOM_UDEF_STEREO_COUNT>
0

> <PUBCHEM_BOND_DEF_STEREO_COUNT>
0

> <PUBCHEM_BOND_UDEF_STEREO_COUNT>
0

> <PUBCHEM_ISOTOPIC_ATOM_COUNT>
0

> <PUBCHEM_COMPONENT_COUNT>
1

> <PUBCHEM_CACTVS_TAUTO_COUNT>
3

> <PUBCHEM_CONFORMER_ID>
005155F400000001

> <PUBCHEM_MMFF94_ENERGY>
118.9757

> <PUBCHEM_FEATURE_SELFOVERLAP>
66.05

> <PUBCHEM_SHAPE_FINGERPRINT>
100830 2 18260557723134819564
10454371 7 18272371987826638549
10794284 68 17632283538541695013
11007060 377 18186237329281026371
11227688 84 10662942283523679397
11408170 253 18339647840498700096
12013929 29 18411422774818635916
12390115 104 18341331102585152947
12975358 362 18121794832481970393
13782708 43 12391507564945241776
14118638 360 18409722967621216814
14150022 121 18335428997603559379
14294032 229 18260261950560042420
14512766 119 18409164411529583446
14664723 55 18198347247212269480
15183329 4 18261110837834120164
15338160 23 18410858755006504923
15513586 35 17750535033484816749
16067689 134 18337964389787224556
16126227 98 18339925922725066345
18393751 57 18044943372990237737
19304152 47 17313104103350425493
19309040 13 17844805889345045063
20691028 202 18267863878463021648
21599406 157 14907884012504710308
21772528 278 17558573338964562297
23569914 152 16912579364189059910
283562 15 18338220593656205447
3418910 222 17823990128339508734
3610482 184 17631729357718670041
4197921 191 18261383460150556306
4258327 124 18335136458680304581
44555599 121 18113894988466301692
48014 12 18409445899201681269
50677037 204 18187082854118451372
5937810 71 18340216284406304884
6034566 193 18267303136813380241
6036956 94 18054233120357918057
6057620 51 18188761872778085643
6058803 2 18263622014254296946
6201320 77 13181019710321135237
6673363 416 18050292763110022350

> <PUBCHEM_SHAPE_MULTIPOLES>
712.7
22.79
5.92
2.23
48.86
1.67
0.16
20.76
-4.88
-8.43
0.61
-2.09
2.71
-5.65

> <PUBCHEM_SHAPE_SELFOVERLAP>
1525.228

> <PUBCHEM_SHAPE_VOLUME>
400.6

> <PUBCHEM_COORDINATE_TYPE>
2
5
10

$$$$
