9844320
  -OEChem-10052115143D

 51 55  0     1  0  0  0  0  0999 V2000
   -4.1664    0.5337   -2.7326 Cl  0  0  0  0  0  0  0  0  0  0  0  0
    4.1557    0.4618    0.2585 N   0  0  0  0  0  0  0  0  0  0  0  0
    7.0063    0.3861    0.1937 N   0  0  0  0  0  0  0  0  0  0  0  0
    2.1609   -0.7921    0.0432 N   0  0  0  0  0  0  0  0  0  0  0  0
    0.1140   -1.9764   -0.1649 N   0  0  0  0  0  0  0  0  0  0  0  0
   -1.4052    0.3445    0.0788 N   0  0  0  0  0  0  0  0  0  0  0  0
   -3.4153   -0.8186   -0.1261 N   0  0  0  0  0  0  0  0  0  0  0  0
   -0.4258   -4.1043   -0.4459 N   0  0  0  0  0  0  0  0  0  0  0  0
    6.2936    1.6033   -0.2094 C   0  0  2  0  0  0  0  0  0  0  0  0
    4.8877    1.2651   -0.7281 C   0  0  0  0  0  0  0  0  0  0  0  0
    4.8727   -0.7053    0.7880 C   0  0  0  0  0  0  0  0  0  0  0  0
    6.2726   -0.3064    1.2512 C   0  0  0  0  0  0  0  0  0  0  0  0
    2.7581    0.4078    0.2105 C   0  0  0  0  0  0  0  0  0  0  0  0
    7.1032    2.3260   -1.2844 C   0  0  0  0  0  0  0  0  0  0  0  0
    2.0727    1.6065    0.3396 C   0  0  0  0  0  0  0  0  0  0  0  0
    0.8105   -0.7757    0.0053 C   0  0  0  0  0  0  0  0  0  0  0  0
    0.0111    0.3682    0.1241 C   0  0  0  0  0  0  0  0  0  0  0  0
    0.6804    1.5787    0.2949 C   0  0  0  0  0  0  0  0  0  0  0  0
   -1.2551   -2.0057   -0.2096 C   0  0  0  0  0  0  0  0  0  0  0  0
   -2.0405   -0.7946   -0.0822 C   0  0  0  0  0  0  0  0  0  0  0  0
    0.5705   -3.2540   -0.3102 C   0  0  0  0  0  0  0  0  0  0  0  0
   -1.5653   -3.3358   -0.3844 C   0  0  0  0  0  0  0  0  0  0  0  0
   -4.2959    0.2554   -0.0193 C   0  0  0  0  0  0  0  0  0  0  0  0
   -4.7801    0.6515    1.2397 C   0  0  0  0  0  0  0  0  0  0  0  0
   -4.7220    0.9671   -1.1550 C   0  0  0  0  0  0  0  0  0  0  0  0
   -5.6624    1.7253    1.3597 C   0  0  0  0  0  0  0  0  0  0  0  0
   -4.3574   -0.0724    2.4769 C   0  0  0  0  0  0  0  0  0  0  0  0
   -5.6044    2.0407   -1.0347 C   0  0  0  0  0  0  0  0  0  0  0  0
   -6.0744    2.4198    0.2227 C   0  0  0  0  0  0  0  0  0  0  0  0
    6.2067    2.2717    0.6579 H   0  0  0  0  0  0  0  0  0  0  0  0
    4.3646    2.2025   -0.9507 H   0  0  0  0  0  0  0  0  0  0  0  0
    4.9475    0.7020   -1.6692 H   0  0  0  0  0  0  0  0  0  0  0  0
    4.9361   -1.4804    0.0135 H   0  0  0  0  0  0  0  0  0  0  0  0
    4.3363   -1.1320    1.6448 H   0  0  0  0  0  0  0  0  0  0  0  0
    6.2099    0.3314    2.1418 H   0  0  0  0  0  0  0  0  0  0  0  0
    6.8257   -1.2067    1.5404 H   0  0  0  0  0  0  0  0  0  0  0  0
    7.9360    0.6312    0.5335 H   0  0  0  0  0  0  0  0  0  0  0  0
    6.5988    3.2482   -1.5926 H   0  0  0  0  0  0  0  0  0  0  0  0
    8.0962    2.6002   -0.9111 H   0  0  0  0  0  0  0  0  0  0  0  0
    7.2371    1.7019   -2.1753 H   0  0  0  0  0  0  0  0  0  0  0  0
    2.5820    2.5531    0.4897 H   0  0  0  0  0  0  0  0  0  0  0  0
    0.1230    2.5061    0.3976 H   0  0  0  0  0  0  0  0  0  0  0  0
    1.6209   -3.5125   -0.3107 H   0  0  0  0  0  0  0  0  0  0  0  0
   -2.5446   -3.7842   -0.4694 H   0  0  0  0  0  0  0  0  0  0  0  0
   -3.8825   -1.7121   -0.2533 H   0  0  0  0  0  0  0  0  0  0  0  0
   -6.0378    2.0348    2.3315 H   0  0  0  0  0  0  0  0  0  0  0  0
   -4.5661   -1.1439    2.3886 H   0  0  0  0  0  0  0  0  0  0  0  0
   -3.2879    0.0748    2.6594 H   0  0  0  0  0  0  0  0  0  0  0  0
   -4.8943    0.2864    3.3620 H   0  0  0  0  0  0  0  0  0  0  0  0
   -5.9354    2.5927   -1.9108 H   0  0  0  0  0  0  0  0  0  0  0  0
   -6.7612    3.2560    0.3161 H   0  0  0  0  0  0  0  0  0  0  0  0
  1 25  1  0  0  0  0
  2 10  1  0  0  0  0
  2 11  1  0  0  0  0
  2 13  1  0  0  0  0
  3  9  1  0  0  0  0
  3 12  1  0  0  0  0
  3 37  1  0  0  0  0
  4 13  2  0  0  0  0
  4 16  1  0  0  0  0
  5 16  1  0  0  0  0
  5 19  1  0  0  0  0
  5 21  1  0  0  0  0
  6 17  1  0  0  0  0
  6 20  2  0  0  0  0
  7 20  1  0  0  0  0
  7 23  1  0  0  0  0
  7 45  1  0  0  0  0
  8 21  2  0  0  0  0
  8 22  1  0  0  0  0
  9 10  1  0  0  0  0
  9 14  1  0  0  0  0
  9 30  1  0  0  0  0
 10 31  1  0  0  0  0
 10 32  1  0  0  0  0
 11 12  1  0  0  0  0
 11 33  1  0  0  0  0
 11 34  1  0  0  0  0
 12 35  1  0  0  0  0
 12 36  1  0  0  0  0
 13 15  1  0  0  0  0
 14 38  1  0  0  0  0
 14 39  1  0  0  0  0
 14 40  1  0  0  0  0
 15 18  2  0  0  0  0
 15 41  1  0  0  0  0
 16 17  2  0  0  0  0
 17 18  1  0  0  0  0
 18 42  1  0  0  0  0
 19 20  1  0  0  0  0
 19 22  2  0  0  0  0
 21 43  1  0  0  0  0
 22 44  1  0  0  0  0
 23 24  2  0  0  0  0
 23 25  1  0  0  0  0
 24 26  1  0  0  0  0
 24 27  1  0  0  0  0
 25 28  2  0  0  0  0
 26 29  2  0  0  0  0
 26 46  1  0  0  0  0
 27 47  1  0  0  0  0
 27 48  1  0  0  0  0
 27 49  1  0  0  0  0
 28 29  1  0  0  0  0
 28 50  1  0  0  0  0
 29 51  1  0  0  0  0
M  END
> <PUBCHEM_COMPOUND_CID>
9844320

> <PUBCHEM_CONFORMER_RMSD>
0.8

> <PUBCHEM_CONFORMER_DIVERSEORDER>
3
43
23
30
48
38
17
25
22
36
15
11
35
49
33
9
28
45
34
20
40
24
37
10
12
41
18
32
13
44
8
26
47
27
5
42
14
21
19
46
29
31
6
16
7
39
4
2
1

> <PUBCHEM_MMFF94_PARTIAL_CHARGES>
37
1 -0.18
10 0.37
11 0.37
12 0.27
13 0.41
15 -0.15
16 0.29
17 0.18
18 -0.15
19 -0.24
2 -0.84
20 0.58
21 0.04
22 0.08
23 0.1
24 -0.14
25 0.18
26 -0.15
27 0.14
28 -0.15
29 -0.15
3 -0.9
37 0.36
4 -0.62
41 0.15
42 0.15
43 0.15
44 0.15
45 0.4
46 0.15
5 0.33
50 0.15
51 0.15
6 -0.63
7 -0.55
8 -0.57
9 0.27

> <PUBCHEM_EFFECTIVE_ROTOR_COUNT>
4.2

> <PUBCHEM_PHARMACOPHORE_FEATURES>
11
1 3 cation
1 3 donor
1 7 donor
3 2 4 13 cation
3 5 8 21 cation
3 6 7 20 cation
5 5 8 19 21 22 rings
6 2 3 9 10 11 12 rings
6 23 24 25 26 28 29 rings
6 4 13 15 16 17 18 rings
6 5 6 16 17 19 20 rings

> <PUBCHEM_HEAVY_ATOM_COUNT>
29

> <PUBCHEM_ATOM_DEF_STEREO_COUNT>
1

> <PUBCHEM_ATOM_UDEF_STEREO_COUNT>
0

> <PUBCHEM_BOND_DEF_STEREO_COUNT>
0

> <PUBCHEM_BOND_UDEF_STEREO_COUNT>
0

> <PUBCHEM_ISOTOPIC_ATOM_COUNT>
0

> <PUBCHEM_COMPONENT_COUNT>
1

> <PUBCHEM_CACTVS_TAUTO_COUNT>
2

> <PUBCHEM_CONFORMER_ID>
0096366000000003

> <PUBCHEM_MMFF94_ENERGY>
93.2272

> <PUBCHEM_FEATURE_SELFOVERLAP>
55.959

> <PUBCHEM_SHAPE_FINGERPRINT>
10 15 18186810179656096641
10165383 225 18412268342040971057
10369192 42 18409175419857953589
105312 117 18410296934207626047
10554248 39 18411129213481844190
10906281 52 18272944825264176316
11007060 377 18267300018007604259
12236239 1 18113615720886354032
12422481 6 17603865581044135870
12788726 201 17917154914231473960
13583140 156 17022891351126371203
13631057 29 18130775812126342711
13782708 43 12035714424065210568
13911987 19 18410848854996403933
13947920 75 16415476026459899697
14790565 3 18411702067076260200
15021287 119 17386001827525302180
15183329 4 18411416224381488764
15927050 60 18412826893236777286
21033648 29 18340758329767343089
21279426 13 18272662216353309534
21756936 100 17418105308541815131
21814621 53 16154259499835507200
23528521 120 17969485028945023053
23559900 14 18058446681402198392
335352 9 18412259537210068054
3411729 13 18263363599109043731
350125 39 18339924943572970347
397830 11 16660655084628718488
4015057 19 16414910984488010784
4058900 60 18336552607591083035
4938544 92 13840251556213322727
50009960 94 11094514818585267932
504843 32 18408602595617203279
5104073 3 18263637536992747626
5385378 56 18269280062883246131
59755656 520 17917439747967548347
6328613 192 18411138078184001360
7226269 152 17989492926230437952

> <PUBCHEM_SHAPE_MULTIPOLES>
563.81
17.56
3.31
1.52
17.12
3.45
0.16
-15.35
-0.54
-0.8
0.84
-2.29
-0.45
-1.06

> <PUBCHEM_SHAPE_SELFOVERLAP>
1232.777

> <PUBCHEM_SHAPE_VOLUME>
304.8

> <PUBCHEM_COORDINATE_TYPE>
2
5
10

$$$$
