11775063
  -OEChem-10052115173D

 55 58  0     0  0  0  0  0  0999 V2000
   -4.4712    1.4487    0.9055 S   0  0  0  0  0  0  0  0  0  0  0  0
    4.1560    0.7595   -1.0227 O   0  0  0  0  0  0  0  0  0  0  0  0
   -3.9622   -2.6066   -0.9264 N   0  0  0  0  0  0  0  0  0  0  0  0
    3.4069   -0.1517    1.0017 N   0  0  0  0  0  0  0  0  0  0  0  0
   -1.6300   -2.4173   -0.5910 N   0  0  0  0  0  0  0  0  0  0  0  0
    5.6714   -0.0696    0.5538 N   0  0  0  0  0  0  0  0  0  0  0  0
   -9.5317    1.7354   -0.8300 N   0  0  0  0  0  0  0  0  0  0  0  0
   -2.1805    0.3392    0.6334 C   0  0  0  0  0  0  0  0  0  0  0  0
   -3.1210   -0.6018    0.0957 C   0  0  0  0  0  0  0  0  0  0  0  0
   -0.7468    0.2134    0.7277 C   0  0  0  0  0  0  0  0  0  0  0  0
   -4.4284   -0.1154    0.1827 C   0  0  0  0  0  0  0  0  0  0  0  0
   -2.7782    1.4848    1.1024 C   0  0  0  0  0  0  0  0  0  0  0  0
   -2.9233   -1.8700   -0.4730 C   0  0  0  0  0  0  0  0  0  0  0  0
   -0.1762   -0.3539    1.8631 C   0  0  0  0  0  0  0  0  0  0  0  0
    0.0566    0.6601   -0.3173 C   0  0  0  0  0  0  0  0  0  0  0  0
   -5.5156   -0.8652   -0.2818 C   0  0  0  0  0  0  0  0  0  0  0  0
    2.0200   -0.0294    0.9099 C   0  0  0  0  0  0  0  0  0  0  0  0
    1.2104   -0.4756    1.9544 C   0  0  0  0  0  0  0  0  0  0  0  0
    1.4431    0.5383   -0.2260 C   0  0  0  0  0  0  0  0  0  0  0  0
   -5.2065   -2.1004   -0.8234 C   0  0  0  0  0  0  0  0  0  0  0  0
    6.9213    0.1535   -0.0707 C   0  0  0  0  0  0  0  0  0  0  0  0
    4.3924    0.2354    0.0610 C   0  0  0  0  0  0  0  0  0  0  0  0
   -6.8515   -0.3809   -0.1953 C   0  0  0  0  0  0  0  0  0  0  0  0
    9.3149   -0.0013   -0.0320 C   0  0  0  0  0  0  0  0  0  0  0  0
    8.0828   -0.2216    0.5838 C   0  0  0  0  0  0  0  0  0  0  0  0
    6.9569    0.7428   -1.3236 C   0  0  0  0  0  0  0  0  0  0  0  0
    9.3679    0.5911   -1.2937 C   0  0  0  0  0  0  0  0  0  0  0  0
    8.1890    0.9632   -1.9396 C   0  0  0  0  0  0  0  0  0  0  0  0
   10.5756   -0.3994    0.6580 C   0  0  0  0  0  0  0  0  0  0  0  0
   -7.9850    0.0314   -0.1230 C   0  0  0  0  0  0  0  0  0  0  0  0
   -9.3610    0.5280   -0.0319 C   0  0  0  0  0  0  0  0  0  0  0  0
  -10.8962    2.2350   -0.7318 C   0  0  0  0  0  0  0  0  0  0  0  0
   -2.3094    2.3491    1.5542 H   0  0  0  0  0  0  0  0  0  0  0  0
   -0.7936   -0.7076    2.6852 H   0  0  0  0  0  0  0  0  0  0  0  0
   -0.3794    1.1036   -1.2093 H   0  0  0  0  0  0  0  0  0  0  0  0
    1.6464   -0.9206    2.8453 H   0  0  0  0  0  0  0  0  0  0  0  0
    1.9996    0.9064   -1.0760 H   0  0  0  0  0  0  0  0  0  0  0  0
   -5.9858   -2.7527   -1.2089 H   0  0  0  0  0  0  0  0  0  0  0  0
    3.7522   -0.5754    1.8592 H   0  0  0  0  0  0  0  0  0  0  0  0
   -1.5427   -3.3349   -1.0084 H   0  0  0  0  0  0  0  0  0  0  0  0
   -0.7985   -1.9439   -0.2821 H   0  0  0  0  0  0  0  0  0  0  0  0
    5.7137   -0.5049    1.4718 H   0  0  0  0  0  0  0  0  0  0  0  0
    8.0398   -0.6850    1.5664 H   0  0  0  0  0  0  0  0  0  0  0  0
    6.0936    1.0591   -1.8893 H   0  0  0  0  0  0  0  0  0  0  0  0
   10.3214    0.7663   -1.7848 H   0  0  0  0  0  0  0  0  0  0  0  0
    8.2317    1.4241   -2.9223 H   0  0  0  0  0  0  0  0  0  0  0  0
   10.4749   -0.3116    1.7452 H   0  0  0  0  0  0  0  0  0  0  0  0
   10.8279   -1.4353    0.4110 H   0  0  0  0  0  0  0  0  0  0  0  0
   11.4101    0.2449    0.3611 H   0  0  0  0  0  0  0  0  0  0  0  0
   -9.5923    0.7372    1.0192 H   0  0  0  0  0  0  0  0  0  0  0  0
  -10.0493   -0.2545   -0.3730 H   0  0  0  0  0  0  0  0  0  0  0  0
   -9.3251    1.5304   -1.8078 H   0  0  0  0  0  0  0  0  0  0  0  0
  -11.6206    1.5033   -1.1043 H   0  0  0  0  0  0  0  0  0  0  0  0
  -10.9957    3.1431   -1.3346 H   0  0  0  0  0  0  0  0  0  0  0  0
  -11.1495    2.4969    0.3007 H   0  0  0  0  0  0  0  0  0  0  0  0
  1 11  1  0  0  0  0
  1 12  1  0  0  0  0
  2 22  2  0  0  0  0
  3 13  2  0  0  0  0
  3 20  1  0  0  0  0
  4 17  1  0  0  0  0
  4 22  1  0  0  0  0
  4 39  1  0  0  0  0
  5 13  1  0  0  0  0
  5 40  1  0  0  0  0
  5 41  1  0  0  0  0
  6 21  1  0  0  0  0
  6 22  1  0  0  0  0
  6 42  1  0  0  0  0
  7 31  1  0  0  0  0
  7 32  1  0  0  0  0
  7 52  1  0  0  0  0
  8  9  1  0  0  0  0
  8 10  1  0  0  0  0
  8 12  2  0  0  0  0
  9 11  2  0  0  0  0
  9 13  1  0  0  0  0
 10 14  2  0  0  0  0
 10 15  1  0  0  0  0
 11 16  1  0  0  0  0
 12 33  1  0  0  0  0
 14 18  1  0  0  0  0
 14 34  1  0  0  0  0
 15 19  2  0  0  0  0
 15 35  1  0  0  0  0
 16 20  2  0  0  0  0
 16 23  1  0  0  0  0
 17 18  2  0  0  0  0
 17 19  1  0  0  0  0
 18 36  1  0  0  0  0
 19 37  1  0  0  0  0
 20 38  1  0  0  0  0
 21 25  1  0  0  0  0
 21 26  2  0  0  0  0
 23 30  3  0  0  0  0
 24 25  2  0  0  0  0
 24 27  1  0  0  0  0
 24 29  1  0  0  0  0
 25 43  1  0  0  0  0
 26 28  1  0  0  0  0
 26 44  1  0  0  0  0
 27 28  2  0  0  0  0
 27 45  1  0  0  0  0
 28 46  1  0  0  0  0
 29 47  1  0  0  0  0
 29 48  1  0  0  0  0
 29 49  1  0  0  0  0
 30 31  1  0  0  0  0
 31 50  1  0  0  0  0
 31 51  1  0  0  0  0
 32 53  1  0  0  0  0
 32 54  1  0  0  0  0
 32 55  1  0  0  0  0
M  END
> <PUBCHEM_COMPOUND_CID>
11775063

> <PUBCHEM_CONFORMER_RMSD>
0.8

> <PUBCHEM_CONFORMER_DIVERSEORDER>
1
12
13
20
7
14
6
16
4
3
19
5
8
11
9
17
15
2
10
18

> <PUBCHEM_MMFF94_PARTIAL_CHARGES>
46
1 -0.08
10 0.05
11 0.04
12 -0.11
13 0.41
14 -0.15
15 -0.15
16 0.07
17 0.12
18 -0.15
19 -0.15
2 -0.57
20 0.16
21 0.12
22 0.69
23 -0.07
24 -0.14
25 -0.15
26 -0.15
27 -0.15
28 -0.15
29 0.14
3 -0.62
30 -0.2
31 0.47
32 0.27
33 0.15
34 0.15
35 0.15
36 0.15
37 0.15
38 0.15
39 0.37
4 -0.55
40 0.4
41 0.4
42 0.37
43 0.15
44 0.15
45 0.15
46 0.15
5 -0.9
52 0.36
6 -0.55
7 -0.9
8 -0.05

> <PUBCHEM_EFFECTIVE_ROTOR_COUNT>
6

> <PUBCHEM_PHARMACOPHORE_FEATURES>
11
1 2 acceptor
1 4 donor
1 5 donor
1 6 donor
1 7 cation
1 7 donor
3 3 5 13 cation
5 1 8 9 11 12 rings
6 10 14 15 17 18 19 rings
6 21 24 25 26 27 28 rings
6 3 9 11 13 16 20 rings

> <PUBCHEM_HEAVY_ATOM_COUNT>
32

> <PUBCHEM_ATOM_DEF_STEREO_COUNT>
0

> <PUBCHEM_ATOM_UDEF_STEREO_COUNT>
0

> <PUBCHEM_BOND_DEF_STEREO_COUNT>
0

> <PUBCHEM_BOND_UDEF_STEREO_COUNT>
0

> <PUBCHEM_ISOTOPIC_ATOM_COUNT>
0

> <PUBCHEM_COMPONENT_COUNT>
1

> <PUBCHEM_CACTVS_TAUTO_COUNT>
6

> <PUBCHEM_CONFORMER_ID>
00B3AC5700000001

> <PUBCHEM_MMFF94_ENERGY>
93.5316

> <PUBCHEM_FEATURE_SELFOVERLAP>
55.936

> <PUBCHEM_SHAPE_FINGERPRINT>
10162869 55 12823293507454772296
10190206 1 17917152694350729241
10299344 5 18408041827991717950
106641 1 10015864284291571138
10674148 151 18342453763790963507
11315181 36 18411142462743710920
11410812 94 13326582822783930995
11828042 53 17984424032062811185
12089408 11 18186519929517789958
12144603 126 18113616768420621897
12522641 33 18259705579821571370
12643181 29 17632014238436128951
12741549 16 15267345128501664827
12758862 11 17704067434443097675
12838862 33 17131829867816132302
14040221 8 18202008715490954024
14117953 113 18131349713734613661
14251764 46 18410575088963320987
15065858 18 17131832079750390350
15183329 4 17894909659898483066
15247644 1 14189576342643169820
15392192 104 9799694797009268148
15419008 91 17489293180440379520
15510794 2 16845298224966618678
16087824 20 18339640050250957777
20105231 36 18339929311549689587
20501277 279 14129058106834015301
20609170 92 18270681944994322949
21360443 120 18334575728814135787
21360443 89 8142073262145433841
21792961 116 16773802471736265825
23399689 5 18261393314019135869
23559900 14 17773586308115047449
23576562 1 15720522142750055678
249057 3 18272090530146088512
3092352 35 17749107807984874043
335352 9 18272927229410866549
4017518 198 17203889665742080463
4625314 4 17917426583307165408
54039377 194 18263932201714511483
57828716 8 12175616262235407573
58083652 198 15697718211681882138
58902169 19 18187085113740383790
59521270 166 18411416181811429261
6691757 9 17988653999818521035
9663363 56 16630522934721331978
9962374 69 13614230486719216960

> <PUBCHEM_SHAPE_MULTIPOLES>
631.62
37.08
1.74
1.39
22.74
0.61
-0.13
-13.14
12.25
-4.61
0.58
1.55
-0.11
-1.42

> <PUBCHEM_SHAPE_SELFOVERLAP>
1365.008

> <PUBCHEM_SHAPE_VOLUME>
347.5

> <PUBCHEM_COORDINATE_TYPE>
2
5
10

$$$$
