49830275
  -OEChem-10052115183D

 39 42  0     0  0  0  0  0  0999 V2000
    0.0836   -4.5984   -1.0473 Cl  0  0  0  0  0  0  0  0  0  0  0  0
    4.6746   -0.1005    1.5080 N   0  0  0  0  0  0  0  0  0  0  0  0
   -2.0868   -0.2736    0.0894 N   0  0  0  0  0  0  0  0  0  0  0  0
    5.4666    1.8505    0.3375 N   0  0  0  0  0  0  0  0  0  0  0  0
   -0.9556   -2.3043   -0.4332 N   0  0  0  0  0  0  0  0  0  0  0  0
    2.7363   -0.4492    0.4726 C   0  0  0  0  0  0  0  0  0  0  0  0
    3.3512    0.6921   -0.1068 C   0  0  0  0  0  0  0  0  0  0  0  0
    1.4841   -1.0780    0.1646 C   0  0  0  0  0  0  0  0  0  0  0  0
    4.5576    0.8824    0.5608 C   0  0  0  0  0  0  0  0  0  0  0  0
    3.5736   -0.9159    1.4628 C   0  0  0  0  0  0  0  0  0  0  0  0
    0.2970   -0.3627    0.2779 C   0  0  0  0  0  0  0  0  0  0  0  0
   -0.8855   -1.0159   -0.0299 C   0  0  0  0  0  0  0  0  0  0  0  0
    3.0287    1.5989   -1.1296 C   0  0  0  0  0  0  0  0  0  0  0  0
   -3.3681   -0.8311   -0.1979 C   0  0  0  0  0  0  0  0  0  0  0  0
    1.4527   -2.4057   -0.2474 C   0  0  0  0  0  0  0  0  0  0  0  0
   -4.4453    0.2022   -0.0165 C   0  0  0  0  0  0  0  0  0  0  0  0
    3.9354    2.6214   -1.4026 C   0  0  0  0  0  0  0  0  0  0  0  0
    0.2184   -2.9674   -0.5318 C   0  0  0  0  0  0  0  0  0  0  0  0
    5.1042    2.6941   -0.6569 C   0  0  0  0  0  0  0  0  0  0  0  0
   -5.0628    0.3555    1.2248 C   0  0  0  0  0  0  0  0  0  0  0  0
   -4.8270    1.0071   -1.0896 C   0  0  0  0  0  0  0  0  0  0  0  0
   -6.0624    1.3139    1.3930 C   0  0  0  0  0  0  0  0  0  0  0  0
   -5.8264    1.9656   -0.9216 C   0  0  0  0  0  0  0  0  0  0  0  0
   -6.4441    2.1189    0.3197 C   0  0  0  0  0  0  0  0  0  0  0  0
    3.4903   -1.7517    2.1446 H   0  0  0  0  0  0  0  0  0  0  0  0
    5.4539   -0.2073    2.1425 H   0  0  0  0  0  0  0  0  0  0  0  0
    0.2951    0.6749    0.6002 H   0  0  0  0  0  0  0  0  0  0  0  0
    2.1068    1.5146   -1.6959 H   0  0  0  0  0  0  0  0  0  0  0  0
   -3.4035   -1.2121   -1.2267 H   0  0  0  0  0  0  0  0  0  0  0  0
   -3.5724   -1.6888    0.4557 H   0  0  0  0  0  0  0  0  0  0  0  0
    2.3636   -2.9886   -0.3496 H   0  0  0  0  0  0  0  0  0  0  0  0
   -2.0355    0.5620    0.6642 H   0  0  0  0  0  0  0  0  0  0  0  0
    3.7307    3.3460   -2.1835 H   0  0  0  0  0  0  0  0  0  0  0  0
    5.8224    3.4851   -0.8565 H   0  0  0  0  0  0  0  0  0  0  0  0
   -4.7729   -0.2644    2.0690 H   0  0  0  0  0  0  0  0  0  0  0  0
   -4.3522    0.8986   -2.0611 H   0  0  0  0  0  0  0  0  0  0  0  0
   -6.5430    1.4337    2.3595 H   0  0  0  0  0  0  0  0  0  0  0  0
   -6.1234    2.5928   -1.7570 H   0  0  0  0  0  0  0  0  0  0  0  0
   -7.2221    2.8654    0.4506 H   0  0  0  0  0  0  0  0  0  0  0  0
  1 18  1  0  0  0  0
  2  9  1  0  0  0  0
  2 10  1  0  0  0  0
  2 26  1  0  0  0  0
  3 12  1  0  0  0  0
  3 14  1  0  0  0  0
  3 32  1  0  0  0  0
  4  9  1  0  0  0  0
  4 19  2  0  0  0  0
  5 12  2  0  0  0  0
  5 18  1  0  0  0  0
  6  7  1  0  0  0  0
  6  8  1  0  0  0  0
  6 10  2  0  0  0  0
  7  9  2  0  0  0  0
  7 13  1  0  0  0  0
  8 11  2  0  0  0  0
  8 15  1  0  0  0  0
 10 25  1  0  0  0  0
 11 12  1  0  0  0  0
 11 27  1  0  0  0  0
 13 17  2  0  0  0  0
 13 28  1  0  0  0  0
 14 16  1  0  0  0  0
 14 29  1  0  0  0  0
 14 30  1  0  0  0  0
 15 18  2  0  0  0  0
 15 31  1  0  0  0  0
 16 20  2  0  0  0  0
 16 21  1  0  0  0  0
 17 19  1  0  0  0  0
 17 33  1  0  0  0  0
 19 34  1  0  0  0  0
 20 22  1  0  0  0  0
 20 35  1  0  0  0  0
 21 23  2  0  0  0  0
 21 36  1  0  0  0  0
 22 24  2  0  0  0  0
 22 37  1  0  0  0  0
 23 24  1  0  0  0  0
 23 38  1  0  0  0  0
 24 39  1  0  0  0  0
M  END
> <PUBCHEM_COMPOUND_CID>
49830275

> <PUBCHEM_CONFORMER_RMSD>
0.8

> <PUBCHEM_CONFORMER_DIVERSEORDER>
1
54
64
34
24
11
59
38
48
13
9
60
3
20
40
44
57
32
49
18
39
50
21
62
7
31
4
45
41
14
33
61
36
37
42
53
2
22
63
43
56
6
51
15
52
29
17
55
23
27
46
8
35
30
58
10
16
19
26
25
5
12
47
28

> <PUBCHEM_MMFF94_PARTIAL_CHARGES>
36
1 -0.18
10 -0.3
11 -0.15
12 0.41
13 -0.15
14 0.51
15 -0.15
16 -0.14
17 -0.15
18 0.49
19 0.16
2 0.03
20 -0.15
21 -0.15
22 -0.15
23 -0.15
24 -0.15
25 0.15
26 0.27
27 0.15
28 0.15
3 -0.87
31 0.15
32 0.4
33 0.15
34 0.15
35 0.15
36 0.15
37 0.15
38 0.15
39 0.15
4 -0.57
5 -0.62
6 -0.05
8 0.05
9 0.11

> <PUBCHEM_EFFECTIVE_ROTOR_COUNT>
4

> <PUBCHEM_PHARMACOPHORE_FEATURES>
9
1 2 cation
1 2 donor
1 3 donor
1 4 acceptor
3 3 5 12 cation
5 2 6 7 9 10 rings
6 16 20 21 22 23 24 rings
6 4 7 9 13 17 19 rings
6 5 8 11 12 15 18 rings

> <PUBCHEM_HEAVY_ATOM_COUNT>
24

> <PUBCHEM_ATOM_DEF_STEREO_COUNT>
0

> <PUBCHEM_ATOM_UDEF_STEREO_COUNT>
0

> <PUBCHEM_BOND_DEF_STEREO_COUNT>
0

> <PUBCHEM_BOND_UDEF_STEREO_COUNT>
0

> <PUBCHEM_ISOTOPIC_ATOM_COUNT>
0

> <PUBCHEM_COMPONENT_COUNT>
1

> <PUBCHEM_CACTVS_TAUTO_COUNT>
13

> <PUBCHEM_CONFORMER_ID>
02F8598300000001

> <PUBCHEM_MMFF94_ENERGY>
66.658

> <PUBCHEM_FEATURE_SELFOVERLAP>
45.784

> <PUBCHEM_SHAPE_FINGERPRINT>
10 15 18113625586479214689
10411042 1 17548136623738197462
10763959 59 18262237712186978942
12107183 9 18335405864936336498
12293681 160 17703796928591055067
12390115 104 18200324328354417675
12403259 118 18261104235583377258
12422481 6 17749102275449818597
12633257 1 15069183527713584444
12788726 201 17907289206448644110
13583140 156 16879045508581139983
13631057 29 18058714932449125823
13782708 43 13046759341991386448
13785724 45 17974841771172980922
13911852 28 8790893973171314041
14251764 75 18189908693248867100
14294032 229 18128544949824804271
14790565 3 18339644541762966829
15183329 4 13542471934390809729
15188451 53 14345801586932571545
15238133 3 18271518793317256064
15342168 16 18411136935474332807
15348495 7 17458349636982998009
17810953 82 18407760326622925868
17980427 23 17967817201762092839
1813 80 11674881061126054331
18222031 100 11314029080215345627
19246450 95 17463654681702425888
19427546 62 18410857616888248231
1979834 28 18261403200173365109
20369508 70 8934706791096302155
20715895 44 18336821996656598245
22061861 79 12247677158760041097
22149856 69 18270700679810226539
22950370 63 9151179774349591935
23559900 14 18266466403758965671
245318 6 17823717427939182509
2748736 6 18341323448906088849
312425 54 15936408918986613289
34797466 226 15051437345933171281
351380 3 8070025579989672497
397830 11 17749121002013260993
474 4 18411983529421133731
5104073 3 17822007652797038673
57724786 102 18334010592858659550
59682541 52 16343432708682273988
6034566 193 18339088193527304671
6058803 2 17973991041531135394
636775 72 17689436414382688724
7808743 9 18339079418413344090
7970288 3 8646497305597492265
960060 61 12391510888563892473

> <PUBCHEM_SHAPE_MULTIPOLES>
475.85
15.46
3.96
1.28
16.32
3.81
0.13
-17.03
2.45
-2.14
-2
-0.11
-0.24
-1.22

> <PUBCHEM_SHAPE_SELFOVERLAP>
1050.257

> <PUBCHEM_SHAPE_VOLUME>
256.1

> <PUBCHEM_COORDINATE_TYPE>
2
5
10

$$$$
