49830933
  -OEChem-10062121533D

 38 41  0     0  0  0  0  0  0999 V2000
    6.2439   -1.7331   -0.0866 Cl  0  0  0  0  0  0  0  0  0  0  0  0
   -0.5345   -1.7854   -0.0604 O   0  0  0  0  0  0  0  0  0  0  0  0
    2.9587    2.4819    0.0606 O   0  0  0  0  0  0  0  0  0  0  0  0
   -1.3303    0.9981    0.0375 N   0  0  0  0  0  0  0  0  0  0  0  0
    0.3651   -0.7285   -0.0260 N   0  0  0  0  0  0  0  0  0  0  0  0
   -1.4179    2.3442    0.0802 N   0  0  0  0  0  0  0  0  0  0  0  0
   -0.0469    0.5544    0.0167 C   0  0  0  0  0  0  0  0  0  0  0  0
    0.7589    1.6619    0.0470 C   0  0  0  0  0  0  0  0  0  0  0  0
    1.7707   -0.9794   -0.0409 C   0  0  0  0  0  0  0  0  0  0  0  0
    2.6939    0.1072   -0.0118 C   0  0  0  0  0  0  0  0  0  0  0  0
   -0.1379    2.7421    0.0858 C   0  0  0  0  0  0  0  0  0  0  0  0
    2.1958    1.5265    0.0348 C   0  0  0  0  0  0  0  0  0  0  0  0
   -2.5099    0.2528    0.0234 C   0  0  0  0  0  0  0  0  0  0  0  0
    2.2777   -2.2854   -0.0834 C   0  0  0  0  0  0  0  0  0  0  0  0
    4.0718   -0.1273   -0.0259 C   0  0  0  0  0  0  0  0  0  0  0  0
    0.1743    4.1809    0.1292 C   0  0  0  0  0  0  0  0  0  0  0  0
   -2.7710   -0.6606    1.0450 C   0  0  0  0  0  0  0  0  0  0  0  0
   -3.4261    0.4185   -1.0151 C   0  0  0  0  0  0  0  0  0  0  0  0
    3.6564   -2.5098   -0.0972 C   0  0  0  0  0  0  0  0  0  0  0  0
    4.5477   -1.4371   -0.0686 C   0  0  0  0  0  0  0  0  0  0  0  0
   -4.8649   -1.2422   -0.0107 C   0  0  0  0  0  0  0  0  0  0  0  0
   -3.9485   -1.4081    1.0277 C   0  0  0  0  0  0  0  0  0  0  0  0
   -4.6035   -0.3290   -1.0323 C   0  0  0  0  0  0  0  0  0  0  0  0
   -6.1232   -2.0423   -0.0290 C   0  0  0  0  0  0  0  0  0  0  0  0
    1.6117   -3.1441   -0.1063 H   0  0  0  0  0  0  0  0  0  0  0  0
    4.7743    0.7021   -0.0038 H   0  0  0  0  0  0  0  0  0  0  0  0
    0.7537    4.4744   -0.7521 H   0  0  0  0  0  0  0  0  0  0  0  0
   -0.7319    4.7954    0.1531 H   0  0  0  0  0  0  0  0  0  0  0  0
    0.7629    4.4189    1.0212 H   0  0  0  0  0  0  0  0  0  0  0  0
   -2.0814   -0.7885    1.8762 H   0  0  0  0  0  0  0  0  0  0  0  0
   -3.2365    1.1220   -1.8223 H   0  0  0  0  0  0  0  0  0  0  0  0
    4.0226   -3.5332   -0.1305 H   0  0  0  0  0  0  0  0  0  0  0  0
   -4.1439   -2.1118    1.8326 H   0  0  0  0  0  0  0  0  0  0  0  0
   -5.3098   -0.1907   -1.8466 H   0  0  0  0  0  0  0  0  0  0  0  0
   -0.6356   -1.9328   -1.0168 H   0  0  0  0  0  0  0  0  0  0  0  0
   -5.9753   -3.0217    0.4388 H   0  0  0  0  0  0  0  0  0  0  0  0
   -6.4606   -2.2255   -1.0549 H   0  0  0  0  0  0  0  0  0  0  0  0
   -6.9138   -1.5114    0.5105 H   0  0  0  0  0  0  0  0  0  0  0  0
  1 20  1  0  0  0  0
  2  5  1  0  0  0  0
  2 35  1  0  0  0  0
  3 12  2  0  0  0  0
  4  6  1  0  0  0  0
  4  7  1  0  0  0  0
  4 13  1  0  0  0  0
  5  7  1  0  0  0  0
  5  9  1  0  0  0  0
  6 11  2  0  0  0  0
  7  8  2  0  0  0  0
  8 11  1  0  0  0  0
  8 12  1  0  0  0  0
  9 10  2  0  0  0  0
  9 14  1  0  0  0  0
 10 12  1  0  0  0  0
 10 15  1  0  0  0  0
 11 16  1  0  0  0  0
 13 17  2  0  0  0  0
 13 18  1  0  0  0  0
 14 19  2  0  0  0  0
 14 25  1  0  0  0  0
 15 20  2  0  0  0  0
 15 26  1  0  0  0  0
 16 27  1  0  0  0  0
 16 28  1  0  0  0  0
 16 29  1  0  0  0  0
 17 22  1  0  0  0  0
 17 30  1  0  0  0  0
 18 23  2  0  0  0  0
 18 31  1  0  0  0  0
 19 20  1  0  0  0  0
 19 32  1  0  0  0  0
 21 22  2  0  0  0  0
 21 23  1  0  0  0  0
 21 24  1  0  0  0  0
 22 33  1  0  0  0  0
 23 34  1  0  0  0  0
 24 36  1  0  0  0  0
 24 37  1  0  0  0  0
 24 38  1  0  0  0  0
M  END
> <PUBCHEM_COMPOUND_CID>
49830933

> <PUBCHEM_CONFORMER_RMSD>
0.6

> <PUBCHEM_CONFORMER_DIVERSEORDER>
1

> <PUBCHEM_MMFF94_PARTIAL_CHARGES>
32
1 -0.18
10 0.09
11 0.11
12 0.57
13 -0.02
14 -0.15
15 -0.15
16 0.18
17 -0.15
18 -0.15
19 -0.15
2 -0.38
20 0.18
21 -0.14
22 -0.15
23 -0.15
24 0.14
25 0.15
26 0.15
3 -0.57
30 0.15
31 0.15
32 0.15
33 0.15
34 0.15
35 0.4
4 0.59
5 -0.2
6 -0.71
7 -0.07
8 -0.09
9 0.1

> <PUBCHEM_EFFECTIVE_ROTOR_COUNT>
1

> <PUBCHEM_PHARMACOPHORE_FEATURES>
7
1 2 anion
1 3 acceptor
1 6 acceptor
5 4 6 7 8 11 rings
6 13 17 18 21 22 23 rings
6 5 7 8 9 10 12 rings
6 9 10 14 15 19 20 rings

> <PUBCHEM_HEAVY_ATOM_COUNT>
24

> <PUBCHEM_ATOM_DEF_STEREO_COUNT>
0

> <PUBCHEM_ATOM_UDEF_STEREO_COUNT>
0

> <PUBCHEM_BOND_DEF_STEREO_COUNT>
0

> <PUBCHEM_BOND_UDEF_STEREO_COUNT>
0

> <PUBCHEM_ISOTOPIC_ATOM_COUNT>
0

> <PUBCHEM_COMPONENT_COUNT>
1

> <PUBCHEM_CACTVS_TAUTO_COUNT>
1

> <PUBCHEM_CONFORMER_ID>
02F85C1500000001

> <PUBCHEM_MMFF94_ENERGY>
80.3024

> <PUBCHEM_FEATURE_SELFOVERLAP>
35.642

> <PUBCHEM_SHAPE_FINGERPRINT>
10411042 1 18411138021736873098
10622 236 17629738318503250887
10967382 1 18339081617784915160
11045515 52 18187645765248446173
12107183 9 18270413685637243929
12166972 35 17894635855026481790
12236239 1 17632299012480102195
12363563 72 18410301284983012183
12403259 226 18340764828579992408
12516196 113 18411417310644204683
12553582 1 18339099106559363674
12788726 201 18118678825159777841
13009979 54 17988937651583898233
13140716 1 18270122301111158608
13533116 47 18200314454614539867
13544653 18 18335708243032923525
13631057 29 18338237051527057474
138480 1 14519464560123592072
13862211 1 18410573964294377794
13955234 65 18053666060331069721
14767858 380 18335154106980154854
14787075 74 18260556610685288466
14790565 3 17544483410597678700
14866123 147 17907298754492317361
15196674 1 18410575080384117765
15352361 1 18410293592596455723
15927050 60 17765435735734419276
16087824 20 18122626042889593021
17357779 13 18336536136359730909
17492 89 18122906434969802294
1813 80 18130521772371667973
18222031 100 18341324548148418362
19427546 20 18191311468570255268
19591789 44 18411136943832171526
200 152 18272649047983254755
20028762 73 18130785689501980679
20645477 70 18334852870020222457
21033650 10 16588017962332697269
21049683 271 18189626097074364420
21267235 1 18411706482176026974
21279426 13 18334569123596786117
21641784 216 18115609058084690300
221357 26 18334569158067209735
221490 88 18408324392956250293
22182313 1 18265591295339644084
22393880 68 18040703758816186079
23402539 116 18341328894649904166
23558518 356 17973738969351640706
23559900 14 18334570265425187729
283562 15 18265052431831331154
2871803 45 18260545619257193186
3004659 81 18040713666904661794
314194 84 18270118041009548159
329604 57 18334581222345592022
335352 9 18338234865383552725
3421961 26 18340485672442581457
350125 39 18411984633449281296
46194498 28 17531808094755099165
463206 1 18337392750682024199
465052 167 18343588464054432790
5104073 3 18127123070957674626
5283173 99 18042114363341066573
5309563 4 18411982459731612343
6669772 16 17979928434122478212
77188 2 18411419531069034781
7970288 3 18412261727000850063
8863177 126 17970080039774032995
9709674 26 18189335839559192763

> <PUBCHEM_SHAPE_MULTIPOLES>
469.1
11.45
3.61
0.79
2.1
3.39
0
-10.93
0.79
-1.28
-0.2
0.67
-0.11
0.44

> <PUBCHEM_SHAPE_SELFOVERLAP>
1043.699

> <PUBCHEM_SHAPE_VOLUME>
253.3

> <PUBCHEM_COORDINATE_TYPE>
2
5
10

$$$$
