23646624
  -OEChem-10062121563D

 59 63  0     0  0  0  0  0  0999 V2000
   -4.0669   -1.0419   -0.0150 N   0  0  0  0  0  0  0  0  0  0  0  0
    4.0452    0.4140   -0.0120 N   0  0  0  0  0  0  0  0  0  0  0  0
    6.6472   -0.7377    0.2369 N   0  0  0  0  0  0  0  0  0  0  0  0
   -2.4202    0.7196   -0.0029 N   0  0  0  0  0  0  0  0  0  0  0  0
   -3.4093    2.9443    0.0135 N   0  0  0  0  0  0  0  0  0  0  0  0
   -1.0930    2.6396    0.0094 N   0  0  0  0  0  0  0  0  0  0  0  0
   -3.1573   -2.1949   -0.0245 C   0  0  0  0  0  0  0  0  0  0  0  0
   -2.2927   -2.2658    1.2452 C   0  0  0  0  0  0  0  0  0  0  0  0
   -2.2972   -2.2484   -1.2982 C   0  0  0  0  0  0  0  0  0  0  0  0
   -1.3781   -3.4893    1.2268 C   0  0  0  0  0  0  0  0  0  0  0  0
   -1.3827   -3.4719   -1.2999 C   0  0  0  0  0  0  0  0  0  0  0  0
   -0.5257   -3.5369   -0.0384 C   0  0  0  0  0  0  0  0  0  0  0  0
   -3.6889    0.2744   -0.0054 C   0  0  0  0  0  0  0  0  0  0  0  0
   -5.4357   -1.1248   -0.0128 C   0  0  0  0  0  0  0  0  0  0  0  0
   -4.8410    1.0512    0.0014 C   0  0  0  0  0  0  0  0  0  0  0  0
    4.2069   -1.0431   -0.0192 C   0  0  0  0  0  0  0  0  0  0  0  0
    5.1263    1.1701    0.6326 C   0  0  0  0  0  0  0  0  0  0  0  0
    5.5995   -1.4265   -0.5262 C   0  0  0  0  0  0  0  0  0  0  0  0
    6.4886    0.7157    0.1035 C   0  0  0  0  0  0  0  0  0  0  0  0
   -5.9423    0.1573   -0.0030 C   0  0  0  0  0  0  0  0  0  0  0  0
    2.7609    0.9696   -0.0074 C   0  0  0  0  0  0  0  0  0  0  0  0
   -4.6625    2.4339    0.0109 C   0  0  0  0  0  0  0  0  0  0  0  0
    7.9727   -1.1531   -0.2209 C   0  0  0  0  0  0  0  0  0  0  0  0
   -2.3800    2.0675    0.0066 C   0  0  0  0  0  0  0  0  0  0  0  0
    1.7061    0.2837    0.5948 C   0  0  0  0  0  0  0  0  0  0  0  0
    2.5359    2.2105   -0.6036 C   0  0  0  0  0  0  0  0  0  0  0  0
    0.2014    2.0792    0.0045 C   0  0  0  0  0  0  0  0  0  0  0  0
    0.4264    0.8385    0.6008 C   0  0  0  0  0  0  0  0  0  0  0  0
    1.2561    2.7653   -0.5976 C   0  0  0  0  0  0  0  0  0  0  0  0
   -3.8086   -3.0806   -0.0296 H   0  0  0  0  0  0  0  0  0  0  0  0
   -2.9372   -2.3088    2.1319 H   0  0  0  0  0  0  0  0  0  0  0  0
   -1.6794   -1.3702    1.3571 H   0  0  0  0  0  0  0  0  0  0  0  0
   -1.6770   -1.3493   -1.3902 H   0  0  0  0  0  0  0  0  0  0  0  0
   -2.9419   -2.2730   -2.1853 H   0  0  0  0  0  0  0  0  0  0  0  0
   -1.9859   -4.4000    1.2918 H   0  0  0  0  0  0  0  0  0  0  0  0
   -0.7280   -3.4760    2.1089 H   0  0  0  0  0  0  0  0  0  0  0  0
   -0.7356   -3.4465   -2.1839 H   0  0  0  0  0  0  0  0  0  0  0  0
   -1.9908   -4.3817   -1.3753 H   0  0  0  0  0  0  0  0  0  0  0  0
    0.1807   -2.6978   -0.0342 H   0  0  0  0  0  0  0  0  0  0  0  0
    0.0708   -4.4561   -0.0458 H   0  0  0  0  0  0  0  0  0  0  0  0
   -5.9405   -2.0816   -0.0188 H   0  0  0  0  0  0  0  0  0  0  0  0
    3.4650   -1.5132   -0.6768 H   0  0  0  0  0  0  0  0  0  0  0  0
    4.0632   -1.4401    0.9940 H   0  0  0  0  0  0  0  0  0  0  0  0
    5.0736    1.0187    1.7186 H   0  0  0  0  0  0  0  0  0  0  0  0
    5.0336    2.2473    0.4527 H   0  0  0  0  0  0  0  0  0  0  0  0
    5.7138   -2.5127   -0.4253 H   0  0  0  0  0  0  0  0  0  0  0  0
    5.6789   -1.1880   -1.5956 H   0  0  0  0  0  0  0  0  0  0  0  0
    6.5961    1.0234   -0.9456 H   0  0  0  0  0  0  0  0  0  0  0  0
    7.2682    1.2319    0.6767 H   0  0  0  0  0  0  0  0  0  0  0  0
   -6.9922    0.4160    0.0006 H   0  0  0  0  0  0  0  0  0  0  0  0
   -5.4782    3.1459    0.0170 H   0  0  0  0  0  0  0  0  0  0  0  0
    8.7542   -0.6664    0.3732 H   0  0  0  0  0  0  0  0  0  0  0  0
    8.1420   -0.9127   -1.2767 H   0  0  0  0  0  0  0  0  0  0  0  0
    8.1042   -2.2327   -0.0876 H   0  0  0  0  0  0  0  0  0  0  0  0
    1.8507   -0.6710    1.0925 H   0  0  0  0  0  0  0  0  0  0  0  0
    3.3413    2.7542   -1.0906 H   0  0  0  0  0  0  0  0  0  0  0  0
   -1.1134    3.6466   -0.1202 H   0  0  0  0  0  0  0  0  0  0  0  0
   -0.3481    0.3061    1.1362 H   0  0  0  0  0  0  0  0  0  0  0  0
    1.0928    3.7310   -1.0692 H   0  0  0  0  0  0  0  0  0  0  0  0
  1  7  1  0  0  0  0
  1 13  1  0  0  0  0
  1 14  1  0  0  0  0
  2 16  1  0  0  0  0
  2 17  1  0  0  0  0
  2 21  1  0  0  0  0
  3 18  1  0  0  0  0
  3 19  1  0  0  0  0
  3 23  1  0  0  0  0
  4 13  2  0  0  0  0
  4 24  1  0  0  0  0
  5 22  1  0  0  0  0
  5 24  2  0  0  0  0
  6 24  1  0  0  0  0
  6 27  1  0  0  0  0
  6 57  1  0  0  0  0
  7  8  1  0  0  0  0
  7  9  1  0  0  0  0
  7 30  1  0  0  0  0
  8 10  1  0  0  0  0
  8 31  1  0  0  0  0
  8 32  1  0  0  0  0
  9 11  1  0  0  0  0
  9 33  1  0  0  0  0
  9 34  1  0  0  0  0
 10 12  1  0  0  0  0
 10 35  1  0  0  0  0
 10 36  1  0  0  0  0
 11 12  1  0  0  0  0
 11 37  1  0  0  0  0
 11 38  1  0  0  0  0
 12 39  1  0  0  0  0
 12 40  1  0  0  0  0
 13 15  1  0  0  0  0
 14 20  2  0  0  0  0
 14 41  1  0  0  0  0
 15 20  1  0  0  0  0
 15 22  2  0  0  0  0
 16 18  1  0  0  0  0
 16 42  1  0  0  0  0
 16 43  1  0  0  0  0
 17 19  1  0  0  0  0
 17 44  1  0  0  0  0
 17 45  1  0  0  0  0
 18 46  1  0  0  0  0
 18 47  1  0  0  0  0
 19 48  1  0  0  0  0
 19 49  1  0  0  0  0
 20 50  1  0  0  0  0
 21 25  2  0  0  0  0
 21 26  1  0  0  0  0
 22 51  1  0  0  0  0
 23 52  1  0  0  0  0
 23 53  1  0  0  0  0
 23 54  1  0  0  0  0
 25 28  1  0  0  0  0
 25 55  1  0  0  0  0
 26 29  2  0  0  0  0
 26 56  1  0  0  0  0
 27 28  2  0  0  0  0
 27 29  1  0  0  0  0
 28 58  1  0  0  0  0
 29 59  1  0  0  0  0
M  END
> <PUBCHEM_COMPOUND_CID>
23646624

> <PUBCHEM_CONFORMER_RMSD>
0.8

> <PUBCHEM_CONFORMER_DIVERSEORDER>
1
51
29
53
46
37
21
58
65
47
35
26
41
20
12
43
38
7
48
17
49
45
40
18
15
36
10
60
22
39
14
25
63
57
42
61
64
62
19
28
55
50
13
52
24
8
32
11
44
33
31
23
6
4
5
9
59
30
34
54
56
16
2
3
27

> <PUBCHEM_MMFF94_PARTIAL_CHARGES>
31
1 0.05
13 0.11
14 -0.3
16 0.37
17 0.37
18 0.27
19 0.27
2 -0.84
20 -0.15
21 0.1
22 0.16
23 0.27
24 0.72
25 -0.15
26 -0.15
27 0.1
28 -0.15
29 -0.15
3 -0.81
4 -0.57
41 0.15
5 -0.62
50 0.15
51 0.15
55 0.15
56 0.15
57 0.4
58 0.15
59 0.15
6 -0.6
7 0.26

> <PUBCHEM_EFFECTIVE_ROTOR_COUNT>
6.4

> <PUBCHEM_PHARMACOPHORE_FEATURES>
9
1 2 cation
1 3 cation
1 6 donor
4 4 5 6 24 cation
5 1 13 14 15 20 rings
6 2 3 16 17 18 19 rings
6 21 25 26 27 28 29 rings
6 4 5 13 15 22 24 rings
6 7 8 9 10 11 12 rings

> <PUBCHEM_HEAVY_ATOM_COUNT>
29

> <PUBCHEM_ATOM_DEF_STEREO_COUNT>
0

> <PUBCHEM_ATOM_UDEF_STEREO_COUNT>
0

> <PUBCHEM_BOND_DEF_STEREO_COUNT>
0

> <PUBCHEM_BOND_UDEF_STEREO_COUNT>
0

> <PUBCHEM_ISOTOPIC_ATOM_COUNT>
0

> <PUBCHEM_COMPONENT_COUNT>
1

> <PUBCHEM_CACTVS_TAUTO_COUNT>
4

> <PUBCHEM_CONFORMER_ID>
0168D1A000000001

> <PUBCHEM_MMFF94_ENERGY>
80.7557

> <PUBCHEM_FEATURE_SELFOVERLAP>
45.793

> <PUBCHEM_SHAPE_FINGERPRINT>
10939801 23 18339078298318260964
11014199 57 17834953453285570278
11524674 6 17418089910350615358
117089 54 17973453388212921299
11756154 5 18115028644525243867
12838862 33 18338215116897052497
13402501 40 18342459227079164334
14117953 113 18334572413526287869
14279260 333 17967249780985294938
14289585 56 17022893536901092780
14394314 77 18337956679603100729
14461889 52 18271235111165263840
14647877 51 17982739575826821182
14659021 117 18053363672630930859
14674994 50 17632573889991732718
14725015 67 18339360864111371299
14866123 147 18340483456440287079
15001296 14 18187638171872263274
15183329 4 18335136479870265498
15274700 242 17969202483492209234
15322534 239 18260547835729889394
15347590 135 12031495631734530797
15361156 5 18337677545979139222
15439362 3 17688867537268631237
15927050 60 17980478963204318357
16110190 28 18412265068664046380
16628084 112 17752197293788139738
16719943 64 18408885126807390986
17492 89 18047756180672633667
17627616 140 18043243535638819251
18681886 176 18408879637865697096
19958102 18 18334288764725821702
20775438 99 16401649973011089911
21133410 171 17116854661449756174
21133410 90 16844447309771814467
21267235 1 18334581256805758529
23559900 14 18339918341601906632
3004659 81 18186518817585685320
335352 9 18409446982129402605
3383291 50 18335982068874185163
338550 245 18335424586323629132
3882209 13 17046790571933572142
397830 11 17845355787426038888
4073 2 18334296509395881682
4625314 4 18411702094112062956
5085150 59 18270670983568168914
5265222 85 18340492257038578014
5364581 5 17911781781327314552
559249 180 18409446964485335373
57676310 188 18188494541777306818
6138700 20 18410572907953728767
6437827 68 18411140242483047414
70251023 43 17114937250609361619
999808 66 17895487989633757377

> <PUBCHEM_SHAPE_MULTIPOLES>
566.92
16.07
4.33
0.91
24.5
1.91
0.02
1.27
0.17
-3.46
0.31
-0.2
0.59
0.13

> <PUBCHEM_SHAPE_SELFOVERLAP>
1224.23

> <PUBCHEM_SHAPE_VOLUME>
304.2

> <PUBCHEM_COORDINATE_TYPE>
2
5
10

$$$$
