10073832
  -OEChem-10052115173D

 51 54  0     0  0  0  0  0  0999 V2000
   -2.5774    3.5724    1.0221 F   0  0  0  0  0  0  0  0  0  0  0  0
   -6.4365    1.7532   -1.0111 F   0  0  0  0  0  0  0  0  0  0  0  0
    6.4987    0.2389   -3.0205 F   0  0  0  0  0  0  0  0  0  0  0  0
    7.1330   -1.6572   -2.1576 F   0  0  0  0  0  0  0  0  0  0  0  0
    4.8459   -0.5607   -0.8143 O   0  0  0  0  0  0  0  0  0  0  0  0
   -6.1025   -0.5844   -2.1628 O   0  0  0  0  0  0  0  0  0  0  0  0
   -5.5493   -3.1100   -1.4502 O   0  0  0  0  0  0  0  0  0  0  0  0
    1.2012   -1.4968    1.6992 N   0  0  0  0  0  0  0  0  0  0  0  0
   -1.2397    1.1408    0.8103 N   0  0  0  0  0  0  0  0  0  0  0  0
    0.4179   -2.4056    2.3287 N   0  0  0  0  0  0  0  0  0  0  0  0
   -1.4156   -0.8984    1.9100 N   0  0  0  0  0  0  0  0  0  0  0  0
    5.2039    0.4517    1.1482 N   0  0  0  0  0  0  0  0  0  0  0  0
    6.3756    0.5112    0.4169 N   0  0  0  0  0  0  0  0  0  0  0  0
   -4.8704   -2.0296   -0.8535 N   0  0  0  0  0  0  0  0  0  0  0  0
    1.8002    0.3527    0.6165 C   0  0  0  0  0  0  0  0  0  0  0  0
    1.7777    1.6664   -0.0611 C   0  0  0  0  0  0  0  0  0  0  0  0
    0.7352   -0.3177    1.1776 C   0  0  0  0  0  0  0  0  0  0  0  0
    2.9494   -0.4552    0.8083 C   0  0  0  0  0  0  0  0  0  0  0  0
    2.5507   -1.5913    1.4798 C   0  0  0  0  0  0  0  0  0  0  0  0
    2.1911    1.5957   -1.5482 C   0  0  0  0  0  0  0  0  0  0  0  0
    2.6272    2.7404    0.6546 C   0  0  0  0  0  0  0  0  0  0  0  0
   -0.6700   -0.0115    1.2987 C   0  0  0  0  0  0  0  0  0  0  0  0
    4.3327   -0.1831    0.3927 C   0  0  0  0  0  0  0  0  0  0  0  0
   -0.8356   -2.0557    2.3968 C   0  0  0  0  0  0  0  0  0  0  0  0
   -2.5445    1.2939    0.3504 C   0  0  0  0  0  0  0  0  0  0  0  0
   -3.2262    0.2153   -0.2361 C   0  0  0  0  0  0  0  0  0  0  0  0
    6.1203   -0.0919   -0.7206 C   0  0  0  0  0  0  0  0  0  0  0  0
   -3.2059    2.5274    0.4652 C   0  0  0  0  0  0  0  0  0  0  0  0
   -4.5345    0.3660   -0.6951 C   0  0  0  0  0  0  0  0  0  0  0  0
   -4.5145    2.6780    0.0060 C   0  0  0  0  0  0  0  0  0  0  0  0
   -5.1788    1.5974   -0.5741 C   0  0  0  0  0  0  0  0  0  0  0  0
    6.9978   -0.3233   -1.8747 C   0  0  0  0  0  0  0  0  0  0  0  0
   -5.2245   -0.7630   -1.2991 C   0  0  0  0  0  0  0  0  0  0  0  0
   -5.6327   -4.1659   -0.5029 C   0  0  0  0  0  0  0  0  0  0  0  0
    0.7714    2.0718   -0.0945 H   0  0  0  0  0  0  0  0  0  0  0  0
    3.1079   -2.4548    1.8192 H   0  0  0  0  0  0  0  0  0  0  0  0
    3.2544    1.3774   -1.6748 H   0  0  0  0  0  0  0  0  0  0  0  0
    1.9957    2.5542   -2.0423 H   0  0  0  0  0  0  0  0  0  0  0  0
    1.6197    0.8238   -2.0755 H   0  0  0  0  0  0  0  0  0  0  0  0
    2.3751    2.7909    1.7195 H   0  0  0  0  0  0  0  0  0  0  0  0
    2.4353    3.7268    0.2176 H   0  0  0  0  0  0  0  0  0  0  0  0
    3.6998    2.5513    0.5658 H   0  0  0  0  0  0  0  0  0  0  0  0
   -0.7476    2.0165    0.9472 H   0  0  0  0  0  0  0  0  0  0  0  0
   -1.5277   -2.7529    2.8971 H   0  0  0  0  0  0  0  0  0  0  0  0
   -2.7054   -0.7287   -0.3768 H   0  0  0  0  0  0  0  0  0  0  0  0
   -5.0161    3.6364    0.1005 H   0  0  0  0  0  0  0  0  0  0  0  0
    7.9977    0.0865   -1.7094 H   0  0  0  0  0  0  0  0  0  0  0  0
   -4.2244   -2.2417   -0.1008 H   0  0  0  0  0  0  0  0  0  0  0  0
   -6.1593   -3.8346    0.3980 H   0  0  0  0  0  0  0  0  0  0  0  0
   -6.1965   -4.9876   -0.9530 H   0  0  0  0  0  0  0  0  0  0  0  0
   -4.6329   -4.5302   -0.2460 H   0  0  0  0  0  0  0  0  0  0  0  0
  1 28  1  0  0  0  0
  2 31  1  0  0  0  0
  3 32  1  0  0  0  0
  4 32  1  0  0  0  0
  5 23  1  0  0  0  0
  5 27  1  0  0  0  0
  6 33  2  0  0  0  0
  7 14  1  0  0  0  0
  7 34  1  0  0  0  0
  8 10  1  0  0  0  0
  8 17  1  0  0  0  0
  8 19  1  0  0  0  0
  9 22  1  0  0  0  0
  9 25  1  0  0  0  0
  9 43  1  0  0  0  0
 10 24  2  0  0  0  0
 11 22  2  0  0  0  0
 11 24  1  0  0  0  0
 12 13  1  0  0  0  0
 12 23  2  0  0  0  0
 13 27  2  0  0  0  0
 14 33  1  0  0  0  0
 14 48  1  0  0  0  0
 15 16  1  0  0  0  0
 15 17  2  0  0  0  0
 15 18  1  0  0  0  0
 16 20  1  0  0  0  0
 16 21  1  0  0  0  0
 16 35  1  0  0  0  0
 17 22  1  0  0  0  0
 18 19  2  0  0  0  0
 18 23  1  0  0  0  0
 19 36  1  0  0  0  0
 20 37  1  0  0  0  0
 20 38  1  0  0  0  0
 20 39  1  0  0  0  0
 21 40  1  0  0  0  0
 21 41  1  0  0  0  0
 21 42  1  0  0  0  0
 24 44  1  0  0  0  0
 25 26  1  0  0  0  0
 25 28  2  0  0  0  0
 26 29  2  0  0  0  0
 26 45  1  0  0  0  0
 27 32  1  0  0  0  0
 28 30  1  0  0  0  0
 29 31  1  0  0  0  0
 29 33  1  0  0  0  0
 30 31  2  0  0  0  0
 30 46  1  0  0  0  0
 32 47  1  0  0  0  0
 34 49  1  0  0  0  0
 34 50  1  0  0  0  0
 34 51  1  0  0  0  0
M  END
> <PUBCHEM_COMPOUND_CID>
10073832

> <PUBCHEM_CONFORMER_RMSD>
1

> <PUBCHEM_CONFORMER_DIVERSEORDER>
2
26
14
40
17
56
12
49
15
46
28
31
64
16
52
25
1
20
18
10
24
59
50
53
62
68
33
30
19
57
47
44
58
43
60
21
3
51
6
27
4
32
65
55
67
66
36
45
48
63
13
23
41
38
11
34
61
35
42
8
5
29
7
9
22
39
37
54

> <PUBCHEM_MMFF94_PARTIAL_CHARGES>
37
1 -0.19
10 -0.65
11 -0.66
12 -0.34
13 -0.34
14 -0.39
15 -0.18
16 0.18
17 -0.24
19 -0.3
2 -0.19
22 0.58
23 0.48
24 0.6
25 0.1
26 -0.15
27 0.3
28 0.19
29 0.09
3 -0.34
30 -0.15
31 0.19
32 0.86
33 0.54
34 0.28
36 0.15
4 -0.34
43 0.4
44 0.06
45 0.15
46 0.15
48 0.37
5 -0.28
6 -0.57
7 -0.32
8 0.51
9 -0.55

> <PUBCHEM_EFFECTIVE_ROTOR_COUNT>
8

> <PUBCHEM_PHARMACOPHORE_FEATURES>
10
1 14 donor
1 6 acceptor
1 9 donor
3 10 11 24 cation
3 16 20 21 hydrophobe
3 9 11 22 cation
5 5 12 13 23 27 rings
5 8 15 17 18 19 rings
6 25 26 28 29 30 31 rings
6 8 10 11 17 22 24 rings

> <PUBCHEM_HEAVY_ATOM_COUNT>
34

> <PUBCHEM_ATOM_DEF_STEREO_COUNT>
0

> <PUBCHEM_ATOM_UDEF_STEREO_COUNT>
0

> <PUBCHEM_BOND_DEF_STEREO_COUNT>
0

> <PUBCHEM_BOND_UDEF_STEREO_COUNT>
0

> <PUBCHEM_ISOTOPIC_ATOM_COUNT>
0

> <PUBCHEM_COMPONENT_COUNT>
1

> <PUBCHEM_CACTVS_TAUTO_COUNT>
6

> <PUBCHEM_CONFORMER_ID>
0099B6E800000002

> <PUBCHEM_MMFF94_ENERGY>
83.4547

> <PUBCHEM_FEATURE_SELFOVERLAP>
50.981

> <PUBCHEM_SHAPE_FINGERPRINT>
10554248 39 17023178302397998394
11315621 246 18413385436937575821
117089 54 17985262126416572031
13383668 90 18129393605059872788
13540713 4 18118695546179858208
13782708 43 16702014288169936446
13911987 19 17313105228584338941
14767858 380 18187078451697415841
14931854 50 18335133151207404773
15064981 194 18408610254113493941
15183329 4 18129664093457173294
15461852 350 18413106187255149130
20775438 99 17405968031068139263
21033650 10 18127706941048175384
21814621 53 17203322278528064760
22393880 68 18337658785430173209
23559900 14 18201703068965529841
23569914 2 13048182289888441438
24771293 8 18334571370160860204
2838139 119 16225756411356602838
34797466 226 17632568349784562232
350125 39 17750255718691591824
4258327 124 16154002329867825279
44880568 143 18201723925527471512
484989 97 17896326994499953563
504843 32 16588317102130102027
513202 73 14477245951085220467
6058803 2 17829592973802139625
6608658 132 18260545576413437749

> <PUBCHEM_SHAPE_MULTIPOLES>
618.13
18.02
3.46
2.2
9.62
1.01
0.59
3.59
15.02
-6.69
-0.42
1.89
1.16
-1.3

> <PUBCHEM_SHAPE_SELFOVERLAP>
1351.321

> <PUBCHEM_SHAPE_VOLUME>
337.8

> <PUBCHEM_COORDINATE_TYPE>
2
5
10

$$$$
