49830948
  -OEChem-10052120443D

 38 40  0     0  0  0  0  0  0999 V2000
   -6.7243   -2.7368    0.0401 Br  0  0  0  0  0  0  0  0  0  0  0  0
   -0.9698    3.2061   -0.1871 O   0  0  0  0  0  0  0  0  0  0  0  0
    4.1990   -1.1322   -1.8851 O   0  0  0  0  0  0  0  0  0  0  0  0
    5.4949   -0.9549    0.5673 O   0  0  0  0  0  0  0  0  0  0  0  0
    1.2142    2.4533   -0.0731 O   0  0  0  0  0  0  0  0  0  0  0  0
   -2.2663    2.5913   -0.1732 N   0  0  0  0  0  0  0  0  0  0  0  0
   -0.6899    0.9764    0.0316 C   0  0  0  0  0  0  0  0  0  0  0  0
    1.3891   -0.3851    0.3305 C   0  0  0  0  0  0  0  0  0  0  0  0
   -2.1009    1.3047   -0.0681 C   0  0  0  0  0  0  0  0  0  0  0  0
   -0.0709   -0.1831    0.2511 C   0  0  0  0  0  0  0  0  0  0  0  0
   -3.2017    0.3424   -0.0423 C   0  0  0  0  0  0  0  0  0  0  0  0
    2.1180   -0.6666   -0.8250 C   0  0  0  0  0  0  0  0  0  0  0  0
    2.0398   -0.2953    1.5611 C   0  0  0  0  0  0  0  0  0  0  0  0
    3.4977   -0.8579   -0.7499 C   0  0  0  0  0  0  0  0  0  0  0  0
    4.1482   -0.7680    0.4807 C   0  0  0  0  0  0  0  0  0  0  0  0
    3.4193   -0.4867    1.6362 C   0  0  0  0  0  0  0  0  0  0  0  0
    0.0146    2.2536   -0.0809 C   0  0  0  0  0  0  0  0  0  0  0  0
   -3.2774   -0.6570   -1.0125 C   0  0  0  0  0  0  0  0  0  0  0  0
   -4.1760    0.4236    0.9526 C   0  0  0  0  0  0  0  0  0  0  0  0
   -4.3272   -1.5749   -0.9880 C   0  0  0  0  0  0  0  0  0  0  0  0
   -5.2260   -0.4942    0.9771 C   0  0  0  0  0  0  0  0  0  0  0  0
   -5.3016   -1.4935    0.0069 C   0  0  0  0  0  0  0  0  0  0  0  0
    4.7154   -0.0192   -2.6125 C   0  0  0  0  0  0  0  0  0  0  0  0
    6.0820   -0.8457    1.8627 C   0  0  0  0  0  0  0  0  0  0  0  0
   -0.6483   -1.0965    0.3688 H   0  0  0  0  0  0  0  0  0  0  0  0
    1.6175   -0.7393   -1.7882 H   0  0  0  0  0  0  0  0  0  0  0  0
    1.4836   -0.0767    2.4695 H   0  0  0  0  0  0  0  0  0  0  0  0
    3.8569   -0.4021    2.6249 H   0  0  0  0  0  0  0  0  0  0  0  0
   -2.5292   -0.7295   -1.7977 H   0  0  0  0  0  0  0  0  0  0  0  0
   -4.1272    1.1961    1.7157 H   0  0  0  0  0  0  0  0  0  0  0  0
   -4.3723   -2.3467   -1.7521 H   0  0  0  0  0  0  0  0  0  0  0  0
   -5.9767   -0.4173    1.7594 H   0  0  0  0  0  0  0  0  0  0  0  0
    3.9002    0.6256   -2.9560 H   0  0  0  0  0  0  0  0  0  0  0  0
    5.4136    0.5544   -1.9948 H   0  0  0  0  0  0  0  0  0  0  0  0
    5.2522   -0.3998   -3.4857 H   0  0  0  0  0  0  0  0  0  0  0  0
    5.9689    0.1634    2.2732 H   0  0  0  0  0  0  0  0  0  0  0  0
    5.7058   -1.6176    2.5427 H   0  0  0  0  0  0  0  0  0  0  0  0
    7.1563   -1.0221    1.7452 H   0  0  0  0  0  0  0  0  0  0  0  0
  1 22  1  0  0  0  0
  2  6  1  0  0  0  0
  2 17  1  0  0  0  0
  3 14  1  0  0  0  0
  3 23  1  0  0  0  0
  4 15  1  0  0  0  0
  4 24  1  0  0  0  0
  5 17  2  0  0  0  0
  6  9  2  0  0  0  0
  7  9  1  0  0  0  0
  7 10  2  3  0  0  0
  7 17  1  0  0  0  0
  8 10  1  0  0  0  0
  8 12  2  0  0  0  0
  8 13  1  0  0  0  0
  9 11  1  0  0  0  0
 10 25  1  0  0  0  0
 11 18  2  0  0  0  0
 11 19  1  0  0  0  0
 12 14  1  0  0  0  0
 12 26  1  0  0  0  0
 13 16  2  0  0  0  0
 13 27  1  0  0  0  0
 14 15  2  0  0  0  0
 15 16  1  0  0  0  0
 16 28  1  0  0  0  0
 18 20  1  0  0  0  0
 18 29  1  0  0  0  0
 19 21  2  0  0  0  0
 19 30  1  0  0  0  0
 20 22  2  0  0  0  0
 20 31  1  0  0  0  0
 21 22  1  0  0  0  0
 21 32  1  0  0  0  0
 23 33  1  0  0  0  0
 23 34  1  0  0  0  0
 23 35  1  0  0  0  0
 24 36  1  0  0  0  0
 24 37  1  0  0  0  0
 24 38  1  0  0  0  0
M  END
> <PUBCHEM_COMPOUND_CID>
49830948

> <PUBCHEM_CONFORMER_RMSD>
0.8

> <PUBCHEM_CONFORMER_DIVERSEORDER>
1
2
3
4

> <PUBCHEM_MMFF94_PARTIAL_CHARGES>
32
1 -0.11
10 -0.18
11 0.09
12 -0.15
13 -0.15
14 0.08
15 0.08
16 -0.15
17 0.71
18 -0.15
19 -0.15
2 -0.09
20 -0.15
21 -0.15
22 0.11
23 0.28
24 0.28
25 0.15
26 0.15
27 0.15
28 0.15
29 0.15
3 -0.36
30 0.15
31 0.15
32 0.15
4 -0.36
5 -0.57
6 -0.51
7 0.03
8 0.03
9 0.35

> <PUBCHEM_EFFECTIVE_ROTOR_COUNT>
4.2

> <PUBCHEM_PHARMACOPHORE_FEATURES>
8
1 1 hydrophobe
1 3 acceptor
1 4 acceptor
1 5 acceptor
1 6 acceptor
5 2 6 7 9 17 rings
6 11 18 19 20 21 22 rings
6 8 12 13 14 15 16 rings

> <PUBCHEM_HEAVY_ATOM_COUNT>
24

> <PUBCHEM_ATOM_DEF_STEREO_COUNT>
0

> <PUBCHEM_ATOM_UDEF_STEREO_COUNT>
0

> <PUBCHEM_BOND_DEF_STEREO_COUNT>
0

> <PUBCHEM_BOND_UDEF_STEREO_COUNT>
1

> <PUBCHEM_ISOTOPIC_ATOM_COUNT>
0

> <PUBCHEM_COMPONENT_COUNT>
1

> <PUBCHEM_CACTVS_TAUTO_COUNT>
1

> <PUBCHEM_CONFORMER_ID>
02F85C2400000001

> <PUBCHEM_MMFF94_ENERGY>
101.1831

> <PUBCHEM_FEATURE_SELFOVERLAP>
40.602

> <PUBCHEM_SHAPE_FINGERPRINT>
10042902 136 17917151718701803351
10369192 42 17058913637402845864
11069576 57 17241308193164922379
11370993 144 16630529488335055547
11552529 35 14763193818132579367
12166972 35 17313099731754050756
12236239 1 17603865564260028386
12553582 1 18410012135300670279
12616971 3 17096378236997282884
12633257 1 14692573243254151895
13540713 4 18191843791423462677
13673619 4 17489319567906535950
13782708 43 17916864600523492582
13862211 1 18334855030605446691
14251732 14 18340783601512681110
14251740 57 18058454369003072935
14251764 30 18272381849140609631
14341114 176 16128662946144331675
14739800 52 11891880783589671631
14767858 380 17968671504968916102
15183329 4 13840534143164614835
15537594 2 18335145259105295419
17138139 8 17531240733617577243
17349148 13 17603588478676577930
17492 89 18192144898315803786
1813 80 18412265047226139557
18222031 100 18412826910858588607
18785283 64 17559658711581384432
193927 3 18342182210869272507
200 152 16950280663689379520
20028762 73 18200592631094394831
21054139 6 17749384841506581850
21315759 148 17418100888150159042
22950370 63 18340499901890545335
23402539 116 18260822661885540274
23522609 53 17970659366300616525
23557571 272 18272650100524516528
23559900 14 17980202985510979142
312425 54 17489598848635577907
314173 85 18272368664033719333
329604 57 18113903779267389567
351380 3 18334574659699075123
3737641 26 17916599617456405007
4015057 19 15502385504003889420
439807 62 17095529547861290419
495365 180 13045942417478049432
5104073 3 18200322155849507299
7970288 3 18409164424621116235

> <PUBCHEM_SHAPE_MULTIPOLES>
471.39
14.84
2.52
1.64
4.33
1.85
0.48
-12.47
-1.19
2.69
0.19
-3.02
-0.53
-0.61

> <PUBCHEM_SHAPE_SELFOVERLAP>
1011.649

> <PUBCHEM_SHAPE_VOLUME>
267.5

> <PUBCHEM_COORDINATE_TYPE>
2
5
10

$$$$
