49830282
  -OEChem-10062121543D

 41 44  0     0  0  0  0  0  0999 V2000
   -0.4311   -4.9953    0.1977 Cl  0  0  0  0  0  0  0  0  0  0  0  0
   -2.6146   -0.4767   -0.4767 N   0  0  0  0  0  0  0  0  0  0  0  0
   -0.2788   -0.5745   -0.2179 N   0  0  0  0  0  0  0  0  0  0  0  0
    0.7883   -2.7109    0.1052 N   0  0  0  0  0  0  0  0  0  0  0  0
    4.2705   -0.5169    0.2676 N   0  0  0  0  0  0  0  0  0  0  0  0
    4.5231    1.8704    0.0662 N   0  0  0  0  0  0  0  0  0  0  0  0
   -2.6242    0.9672   -0.6188 C   0  0  0  0  0  0  0  0  0  0  0  0
   -3.8993    1.4160   -1.3399 C   0  0  0  0  0  0  0  0  0  0  0  0
   -2.4910    1.6321    0.7550 C   0  0  0  0  0  0  0  0  0  0  0  0
   -5.1521    1.2657   -0.4765 C   0  0  0  0  0  0  0  0  0  0  0  0
   -3.7487    1.4799    1.6106 C   0  0  0  0  0  0  0  0  0  0  0  0
   -4.9940    1.9605    0.8722 C   0  0  0  0  0  0  0  0  0  0  0  0
   -1.4632   -1.2173   -0.2819 C   0  0  0  0  0  0  0  0  0  0  0  0
   -1.6004   -2.5854   -0.1629 C   0  0  0  0  0  0  0  0  0  0  0  0
    0.7902   -1.3705   -0.0255 C   0  0  0  0  0  0  0  0  0  0  0  0
    2.0658   -0.7223    0.0476 C   0  0  0  0  0  0  0  0  0  0  0  0
    2.3961    0.6555   -0.0484 C   0  0  0  0  0  0  0  0  0  0  0  0
   -0.4289   -3.2883    0.0312 C   0  0  0  0  0  0  0  0  0  0  0  0
    3.7776    0.7494    0.0926 C   0  0  0  0  0  0  0  0  0  0  0  0
    3.2389   -1.4193    0.2415 C   0  0  0  0  0  0  0  0  0  0  0  0
    1.6834    1.8502   -0.2408 C   0  0  0  0  0  0  0  0  0  0  0  0
    2.4067    3.0410   -0.2765 C   0  0  0  0  0  0  0  0  0  0  0  0
    3.7856    2.9896   -0.1215 C   0  0  0  0  0  0  0  0  0  0  0  0
   -1.7781    1.2723   -1.2478 H   0  0  0  0  0  0  0  0  0  0  0  0
   -4.0306    0.8498   -2.2700 H   0  0  0  0  0  0  0  0  0  0  0  0
   -3.7937    2.4711   -1.6236 H   0  0  0  0  0  0  0  0  0  0  0  0
   -2.2988    2.7029    0.6076 H   0  0  0  0  0  0  0  0  0  0  0  0
   -1.6312    1.2382    1.3087 H   0  0  0  0  0  0  0  0  0  0  0  0
   -6.0115    1.6917   -1.0070 H   0  0  0  0  0  0  0  0  0  0  0  0
   -5.3782    0.2047   -0.3194 H   0  0  0  0  0  0  0  0  0  0  0  0
   -3.8760    0.4298    1.9000 H   0  0  0  0  0  0  0  0  0  0  0  0
   -3.6306    2.0509    2.5387 H   0  0  0  0  0  0  0  0  0  0  0  0
   -4.9306    3.0448    0.7183 H   0  0  0  0  0  0  0  0  0  0  0  0
   -5.8818    1.7774    1.4878 H   0  0  0  0  0  0  0  0  0  0  0  0
   -3.4899   -0.9287   -0.2339 H   0  0  0  0  0  0  0  0  0  0  0  0
   -2.5631   -3.0803   -0.2182 H   0  0  0  0  0  0  0  0  0  0  0  0
    3.4480   -2.4735    0.3655 H   0  0  0  0  0  0  0  0  0  0  0  0
    5.2456   -0.7491    0.3960 H   0  0  0  0  0  0  0  0  0  0  0  0
    0.6061    1.8721   -0.3601 H   0  0  0  0  0  0  0  0  0  0  0  0
    1.9009    3.9894   -0.4226 H   0  0  0  0  0  0  0  0  0  0  0  0
    4.3653    3.9086   -0.1466 H   0  0  0  0  0  0  0  0  0  0  0  0
  1 18  1  0  0  0  0
  2  7  1  0  0  0  0
  2 13  1  0  0  0  0
  2 35  1  0  0  0  0
  3 13  1  0  0  0  0
  3 15  2  0  0  0  0
  4 15  1  0  0  0  0
  4 18  2  0  0  0  0
  5 19  1  0  0  0  0
  5 20  1  0  0  0  0
  5 38  1  0  0  0  0
  6 19  1  0  0  0  0
  6 23  2  0  0  0  0
  7  8  1  0  0  0  0
  7  9  1  0  0  0  0
  7 24  1  0  0  0  0
  8 10  1  0  0  0  0
  8 25  1  0  0  0  0
  8 26  1  0  0  0  0
  9 11  1  0  0  0  0
  9 27  1  0  0  0  0
  9 28  1  0  0  0  0
 10 12  1  0  0  0  0
 10 29  1  0  0  0  0
 10 30  1  0  0  0  0
 11 12  1  0  0  0  0
 11 31  1  0  0  0  0
 11 32  1  0  0  0  0
 12 33  1  0  0  0  0
 12 34  1  0  0  0  0
 13 14  2  0  0  0  0
 14 18  1  0  0  0  0
 14 36  1  0  0  0  0
 15 16  1  0  0  0  0
 16 17  1  0  0  0  0
 16 20  2  0  0  0  0
 17 19  2  0  0  0  0
 17 21  1  0  0  0  0
 20 37  1  0  0  0  0
 21 22  2  0  0  0  0
 21 39  1  0  0  0  0
 22 23  1  0  0  0  0
 22 40  1  0  0  0  0
 23 41  1  0  0  0  0
M  END
> <PUBCHEM_COMPOUND_CID>
49830282

> <PUBCHEM_CONFORMER_RMSD>
0.8

> <PUBCHEM_CONFORMER_DIVERSEORDER>
1
9
24
44
35
52
18
43
3
36
41
27
13
11
12
45
15
6
32
48
19
31
20
40
47
49
51
5
37
21
26
38
29
50
25
33
28
14
42
17
46
39
8
34
10
4
22
16
30
2
23
7

> <PUBCHEM_MMFF94_PARTIAL_CHARGES>
24
1 -0.18
13 0.41
14 -0.15
15 0.67
16 -0.05
18 0.49
19 0.11
2 -0.87
20 -0.3
21 -0.15
22 -0.15
23 0.16
3 -0.62
35 0.4
36 0.15
37 0.15
38 0.27
39 0.15
4 -0.62
40 0.15
41 0.15
5 0.03
6 -0.57
7 0.37

> <PUBCHEM_EFFECTIVE_ROTOR_COUNT>
4.2

> <PUBCHEM_PHARMACOPHORE_FEATURES>
11
1 2 cation
1 2 donor
1 4 acceptor
1 5 cation
1 5 donor
1 6 acceptor
3 3 4 15 cation
5 5 16 17 19 20 rings
6 3 4 13 14 15 18 rings
6 6 17 19 21 22 23 rings
6 7 8 9 10 11 12 rings

> <PUBCHEM_HEAVY_ATOM_COUNT>
23

> <PUBCHEM_ATOM_DEF_STEREO_COUNT>
0

> <PUBCHEM_ATOM_UDEF_STEREO_COUNT>
0

> <PUBCHEM_BOND_DEF_STEREO_COUNT>
0

> <PUBCHEM_BOND_UDEF_STEREO_COUNT>
0

> <PUBCHEM_ISOTOPIC_ATOM_COUNT>
0

> <PUBCHEM_COMPONENT_COUNT>
1

> <PUBCHEM_CACTVS_TAUTO_COUNT>
9

> <PUBCHEM_CONFORMER_ID>
02F8598A00000001

> <PUBCHEM_MMFF94_ENERGY>
46.21

> <PUBCHEM_FEATURE_SELFOVERLAP>
55.934

> <PUBCHEM_SHAPE_FINGERPRINT>
10411042 1 17112974630748465742
10670039 82 17469894741357139468
1100329 8 18411134728108874042
11370993 70 18409722976200413589
11582403 64 16519018106052483439
11725454 13 17024568033486711037
12107183 9 18335403674671138706
12390115 104 18339939202135918709
12403260 363 18339628044672536542
12633257 1 18335972113102439124
12788726 201 18053083301688168751
13009979 54 16981801287321221931
13140716 1 18409169904550051051
13583140 156 17749109954872033523
13590594 115 17402897721845840651
138480 1 17762054337588269239
14178342 30 18048299335643851960
14767858 380 18199730592750119999
14787075 74 18271801380869798727
14790565 3 18411422808534795801
14955137 171 18047190744055149754
15475509 8 17842294566475812222
17138139 8 17771031038928854903
17834072 32 18411138051806996908
1813 80 16977589015325902911
18219364 16 18261671467983228445
19591789 44 17834962971354604198
19930381 70 18265048042628267285
20028762 73 18200304425164829534
204376 136 18410013213200084093
20510252 161 18195244644589619883
20739085 24 18119820114319472424
21033650 10 16915968221596936128
22182937 141 18339083816528368569
23227448 37 18410853308660796253
23558518 356 17972035001233004954
23559900 14 18272369785510560114
23845131 108 18334580127419387387
283562 15 17615404096884891490
335352 9 18410290294836766494
350125 39 18337957908284928851
3886686 26 17978188886536343890
474 4 18340485561068505881
5048184 11 18338238270506887908
5104073 3 18334850667182048280
6328613 192 18410579513851066804
633830 44 18201723899276749525
7832392 63 18410007784551365068

> <PUBCHEM_SHAPE_MULTIPOLES>
450.29
9.38
4.96
0.92
3.64
5.72
0.1
-9.49
0.57
-1.01
0.23
1.1
-0.4
-0.64

> <PUBCHEM_SHAPE_SELFOVERLAP>
979.801

> <PUBCHEM_SHAPE_VOLUME>
244.9

> <PUBCHEM_COORDINATE_TYPE>
2
5
10

$$$$
