49830764
  -OEChem-10052120443D

 47 50  0     0  0  0  0  0  0999 V2000
   -6.2166    1.3755    0.7182 O   0  0  0  0  0  0  0  0  0  0  0  0
    2.9611    2.1494    0.1576 N   0  0  0  0  0  0  0  0  0  0  0  0
    1.8158    0.0441    0.0785 N   0  0  0  0  0  0  0  0  0  0  0  0
    5.4780    0.3815    0.0744 N   0  0  0  0  0  0  0  0  0  0  0  0
    3.0130   -2.0797   -0.0130 N   0  0  0  0  0  0  0  0  0  0  0  0
    0.6750   -1.9995    0.0003 N   0  0  0  0  0  0  0  0  0  0  0  0
    5.4328   -1.8453   -0.0147 N   0  0  0  0  0  0  0  0  0  0  0  0
   -4.6401   -0.2674    0.0973 N   0  0  0  0  0  0  0  0  0  0  0  0
    1.7444    2.9603    0.1960 C   0  0  0  0  0  0  0  0  0  0  0  0
    1.0173    3.3349   -1.0619 C   0  0  0  0  0  0  0  0  0  0  0  0
    1.7414    4.3859   -0.2727 C   0  0  0  0  0  0  0  0  0  0  0  0
    2.9712    0.7458    0.1012 C   0  0  0  0  0  0  0  0  0  0  0  0
    4.1562    0.0376    0.0670 C   0  0  0  0  0  0  0  0  0  0  0  0
    4.1542   -1.3497    0.0112 C   0  0  0  0  0  0  0  0  0  0  0  0
    1.9067   -1.3061    0.0232 C   0  0  0  0  0  0  0  0  0  0  0  0
    6.2036   -0.7794    0.0245 C   0  0  0  0  0  0  0  0  0  0  0  0
   -0.6618   -1.5638    0.0239 C   0  0  0  0  0  0  0  0  0  0  0  0
   -3.3139   -0.6997    0.0727 C   0  0  0  0  0  0  0  0  0  0  0  0
   -1.6466   -2.3668    0.5995 C   0  0  0  0  0  0  0  0  0  0  0  0
   -1.0033   -0.3287   -0.5271 C   0  0  0  0  0  0  0  0  0  0  0  0
   -5.6580   -1.0480   -0.6722 C   0  0  0  0  0  0  0  0  0  0  0  0
   -2.9726   -1.9348    0.6239 C   0  0  0  0  0  0  0  0  0  0  0  0
   -2.3292    0.1034   -0.5027 C   0  0  0  0  0  0  0  0  0  0  0  0
   -5.0625    0.9412    0.7520 C   0  0  0  0  0  0  0  0  0  0  0  0
   -5.7239   -0.6001   -2.1176 C   0  0  0  0  0  0  0  0  0  0  0  0
   -4.0421    1.7093    1.5606 C   0  0  0  0  0  0  0  0  0  0  0  0
    1.1400    2.7438    1.0714 H   0  0  0  0  0  0  0  0  0  0  0  0
    1.4427    3.0366   -2.0122 H   0  0  0  0  0  0  0  0  0  0  0  0
   -0.0654    3.3378   -1.0355 H   0  0  0  0  0  0  0  0  0  0  0  0
    1.1456    5.0992    0.2833 H   0  0  0  0  0  0  0  0  0  0  0  0
    2.6525    4.7925   -0.6940 H   0  0  0  0  0  0  0  0  0  0  0  0
    3.8680    2.6040    0.1791 H   0  0  0  0  0  0  0  0  0  0  0  0
    5.8557    1.3191    0.1102 H   0  0  0  0  0  0  0  0  0  0  0  0
    7.2842   -0.7769    0.0195 H   0  0  0  0  0  0  0  0  0  0  0  0
    0.7934   -3.0036    0.0956 H   0  0  0  0  0  0  0  0  0  0  0  0
   -1.3931   -3.3300    1.0352 H   0  0  0  0  0  0  0  0  0  0  0  0
   -0.2821    0.3054   -1.0314 H   0  0  0  0  0  0  0  0  0  0  0  0
   -6.6356   -0.9010   -0.2000 H   0  0  0  0  0  0  0  0  0  0  0  0
   -5.4236   -2.1160   -0.6126 H   0  0  0  0  0  0  0  0  0  0  0  0
   -3.7260   -2.5684    1.0850 H   0  0  0  0  0  0  0  0  0  0  0  0
   -2.5814    1.0553   -0.9631 H   0  0  0  0  0  0  0  0  0  0  0  0
   -6.4912   -1.1637   -2.6570 H   0  0  0  0  0  0  0  0  0  0  0  0
   -4.7664   -0.7578   -2.6246 H   0  0  0  0  0  0  0  0  0  0  0  0
   -5.9673    0.4650   -2.1900 H   0  0  0  0  0  0  0  0  0  0  0  0
   -4.5627    2.3473    2.2819 H   0  0  0  0  0  0  0  0  0  0  0  0
   -3.3928    1.0370    2.1263 H   0  0  0  0  0  0  0  0  0  0  0  0
   -3.4492    2.3477    0.9016 H   0  0  0  0  0  0  0  0  0  0  0  0
  1 24  2  0  0  0  0
  2  9  1  0  0  0  0
  2 12  1  0  0  0  0
  2 32  1  0  0  0  0
  3 12  2  0  0  0  0
  3 15  1  0  0  0  0
  4 13  1  0  0  0  0
  4 16  1  0  0  0  0
  4 33  1  0  0  0  0
  5 14  1  0  0  0  0
  5 15  2  0  0  0  0
  6 15  1  0  0  0  0
  6 17  1  0  0  0  0
  6 35  1  0  0  0  0
  7 14  1  0  0  0  0
  7 16  2  0  0  0  0
  8 18  1  0  0  0  0
  8 21  1  0  0  0  0
  8 24  1  0  0  0  0
  9 10  1  0  0  0  0
  9 11  1  0  0  0  0
  9 27  1  0  0  0  0
 10 11  1  0  0  0  0
 10 28  1  0  0  0  0
 10 29  1  0  0  0  0
 11 30  1  0  0  0  0
 11 31  1  0  0  0  0
 12 13  1  0  0  0  0
 13 14  2  0  0  0  0
 16 34  1  0  0  0  0
 17 19  2  0  0  0  0
 17 20  1  0  0  0  0
 18 22  2  0  0  0  0
 18 23  1  0  0  0  0
 19 22  1  0  0  0  0
 19 36  1  0  0  0  0
 20 23  2  0  0  0  0
 20 37  1  0  0  0  0
 21 25  1  0  0  0  0
 21 38  1  0  0  0  0
 21 39  1  0  0  0  0
 22 40  1  0  0  0  0
 23 41  1  0  0  0  0
 24 26  1  0  0  0  0
 25 42  1  0  0  0  0
 25 43  1  0  0  0  0
 25 44  1  0  0  0  0
 26 45  1  0  0  0  0
 26 46  1  0  0  0  0
 26 47  1  0  0  0  0
M  END
> <PUBCHEM_COMPOUND_CID>
49830764

> <PUBCHEM_CONFORMER_RMSD>
0.8

> <PUBCHEM_CONFORMER_DIVERSEORDER>
1
42
74
56
102
89
86
75
108
93
109
72
98
67
31
58
35
105
101
29
30
91
81
97
40
59
70
84
95
23
112
71
68
64
38
90
33
49
103
17
48
87
122
34
118
117
65
79
22
13
99
41
100
15
104
73
115
19
82
10
66
52
21
57
26
116
8
85
14
88
61
47
120
76
53
32
43
78
110
18
106
83
92
111
94
114
37
55
7
45
16
50
80
46
77
27
119
121
11
28
60
20
62
69
12
96
44
2
5
4
24
54
9
25
39
107
3
36
113
51
6
63

> <PUBCHEM_MMFF94_PARTIAL_CHARGES>
38
1 -0.57
10 -0.2
11 -0.2
12 0.41
13 -0.15
14 0.48
15 0.72
16 0.04
17 0.1
18 0.12
19 -0.15
2 -0.67
20 -0.15
21 0.3
22 -0.15
23 -0.15
24 0.57
26 0.06
27 0.1
28 0.1
29 0.1
3 -0.62
30 0.1
31 0.1
32 0.4
33 0.27
34 0.15
35 0.4
36 0.15
37 0.15
4 0.03
40 0.15
41 0.15
5 -0.57
6 -0.6
7 -0.57
8 -0.48
9 0.07

> <PUBCHEM_EFFECTIVE_ROTOR_COUNT>
7.6

> <PUBCHEM_PHARMACOPHORE_FEATURES>
9
1 1 acceptor
1 2 donor
1 4 donor
1 6 donor
3 4 7 16 cation
4 3 5 6 15 cation
5 4 7 13 14 16 rings
6 17 18 19 20 22 23 rings
6 3 5 12 13 14 15 rings

> <PUBCHEM_HEAVY_ATOM_COUNT>
26

> <PUBCHEM_ATOM_DEF_STEREO_COUNT>
0

> <PUBCHEM_ATOM_UDEF_STEREO_COUNT>
0

> <PUBCHEM_BOND_DEF_STEREO_COUNT>
0

> <PUBCHEM_BOND_UDEF_STEREO_COUNT>
0

> <PUBCHEM_ISOTOPIC_ATOM_COUNT>
0

> <PUBCHEM_COMPONENT_COUNT>
1

> <PUBCHEM_CACTVS_TAUTO_COUNT>
15

> <PUBCHEM_CONFORMER_ID>
02F85B6C00000001

> <PUBCHEM_MMFF94_ENERGY>
89.0309

> <PUBCHEM_FEATURE_SELFOVERLAP>
45.804

> <PUBCHEM_SHAPE_FINGERPRINT>
10074138 170 15591848040550144675
10688039 33 18040718009480894220
10763959 59 18186792587216942293
11045977 3 18040718112412377067
11089746 13 18413385445000430975
11421498 54 13262666020451817348
11578080 2 14347517959059351748
12166972 35 18201999958130992321
12236239 1 17846777399282178366
12633257 1 18334859419745083016
12645989 146 18341328916468171726
12788726 201 18115022979884899146
13402501 40 18334289847026100604
13533116 47 18269272546822502533
13583140 156 17967534597140664875
13590594 115 18335708199857313448
138480 1 18337110189421277724
14028597 1 17604418597640268976
14347329 18 16516789395703471981
14466204 15 18337956692466182592
14790565 3 17543077127205660916
14849402 71 18336837497077869285
15003188 100 18263913488362115767
15183329 4 18408601440070059994
15238133 3 18335996293604714140
15419008 47 17676479541510419429
15420108 30 17841131567068435528
1601671 61 18411422804450331394
16087824 20 18265338313176150408
16993438 75 17825948113910177725
17844677 252 18339088210602256987
17980427 23 18272656723305980557
18335252 114 18337380553401515813
21033648 144 18263354944860303077
21033648 29 17385989690242934437
21065198 57 18265336290288440426
21133410 127 17462556527496527413
21133410 38 16906656222052968377
21285901 2 18129671786192344822
21315763 129 18411983581076655823
21641784 216 17969239854187183852
21709351 56 18413101754458464229
21792961 116 18041276561936488806
21860390 5 18343311378655150636
221357 26 18335974311787896484
23559900 14 18337665429470267123
24771293 8 18272079544363622096
335352 9 18410013234406083942
4015057 19 18338230591801110443
474 4 18411421713576143675
508706 21 17968365780797185125
5104073 3 18261109724968488882
6328613 192 18335430114226497076
9981440 41 17401200570182896864

> <PUBCHEM_SHAPE_MULTIPOLES>
494.33
14.5
3.72
1.04
4.37
4.46
0.24
-2.48
0.52
-2.72
0.09
1.85
0.23
-1.1

> <PUBCHEM_SHAPE_SELFOVERLAP>
1062.607

> <PUBCHEM_SHAPE_VOLUME>
270.2

> <PUBCHEM_COORDINATE_TYPE>
2
5
10

$$$$
