5330387
  -OEChem-10052115173D

 43 45  0     0  0  0  0  0  0999 V2000
    0.4980   -3.4606    0.4958 Cl  0  0  0  0  0  0  0  0  0  0  0  0
    5.2647   -3.8904    0.4464 O   0  0  0  0  0  0  0  0  0  0  0  0
    3.5839    0.6035   -0.1949 N   0  0  0  0  0  0  0  0  0  0  0  0
   -1.4786    1.1761   -0.1560 N   0  0  0  0  0  0  0  0  0  0  0  0
   -3.4136   -0.2200   -0.2288 N   0  0  0  0  0  0  0  0  0  0  0  0
    2.2770    4.0252   -0.6468 N   0  0  0  0  0  0  0  0  0  0  0  0
   -3.0615    3.2270    0.9184 N   0  0  0  0  0  0  0  0  0  0  0  0
    3.2048   -0.7529    0.1216 C   0  0  0  0  0  0  0  0  0  0  0  0
    4.4208   -1.6719    0.1237 C   0  0  0  0  0  0  0  0  0  0  0  0
    2.6867    1.6580   -0.2594 C   0  0  0  0  0  0  0  0  0  0  0  0
    0.4432    2.5525   -0.0872 C   0  0  0  0  0  0  0  0  0  0  0  0
    1.3199    1.4756   -0.0162 C   0  0  0  0  0  0  0  0  0  0  0  0
    4.0709   -3.1187    0.4514 C   0  0  0  0  0  0  0  0  0  0  0  0
   -0.9691    2.3814    0.1608 C   0  0  0  0  0  0  0  0  0  0  0  0
    3.0989    2.9546   -0.5687 C   0  0  0  0  0  0  0  0  0  0  0  0
    0.9671    3.7956   -0.4034 C   0  0  0  0  0  0  0  0  0  0  0  0
   -2.7967    1.0141    0.0742 C   0  0  0  0  0  0  0  0  0  0  0  0
   -2.9382   -1.5442   -0.2407 C   0  0  0  0  0  0  0  0  0  0  0  0
   -1.7434    3.3891    0.6880 C   0  0  0  0  0  0  0  0  0  0  0  0
   -3.5742    2.0214    0.6020 C   0  0  0  0  0  0  0  0  0  0  0  0
   -1.6098   -1.8158    0.0940 C   0  0  0  0  0  0  0  0  0  0  0  0
   -3.7935   -2.5922   -0.5883 C   0  0  0  0  0  0  0  0  0  0  0  0
   -1.1391   -3.1287    0.0813 C   0  0  0  0  0  0  0  0  0  0  0  0
   -3.3228   -3.9052   -0.6010 C   0  0  0  0  0  0  0  0  0  0  0  0
   -1.9956   -4.1733   -0.2662 C   0  0  0  0  0  0  0  0  0  0  0  0
    2.4848   -1.1207   -0.6190 H   0  0  0  0  0  0  0  0  0  0  0  0
    2.7318   -0.7907    1.1103 H   0  0  0  0  0  0  0  0  0  0  0  0
    4.9241   -1.6338   -0.8514 H   0  0  0  0  0  0  0  0  0  0  0  0
    5.1651   -1.3083    0.8444 H   0  0  0  0  0  0  0  0  0  0  0  0
    4.5594    0.8065   -0.3844 H   0  0  0  0  0  0  0  0  0  0  0  0
    0.9416    0.4906    0.2418 H   0  0  0  0  0  0  0  0  0  0  0  0
    3.6090   -3.1966    1.4402 H   0  0  0  0  0  0  0  0  0  0  0  0
    3.3954   -3.5321   -0.3026 H   0  0  0  0  0  0  0  0  0  0  0  0
    4.1436    3.1749   -0.7697 H   0  0  0  0  0  0  0  0  0  0  0  0
    0.3518    4.6847   -0.5007 H   0  0  0  0  0  0  0  0  0  0  0  0
   -4.3944   -0.1312   -0.4799 H   0  0  0  0  0  0  0  0  0  0  0  0
   -1.3581    4.3613    0.9714 H   0  0  0  0  0  0  0  0  0  0  0  0
   -4.6346    1.9029    0.7932 H   0  0  0  0  0  0  0  0  0  0  0  0
   -0.9211   -1.0379    0.3990 H   0  0  0  0  0  0  0  0  0  0  0  0
   -4.8303   -2.3982   -0.8517 H   0  0  0  0  0  0  0  0  0  0  0  0
    5.0129   -4.8062    0.6552 H   0  0  0  0  0  0  0  0  0  0  0  0
   -3.9897   -4.7185   -0.8716 H   0  0  0  0  0  0  0  0  0  0  0  0
   -1.6426   -5.2014   -0.2802 H   0  0  0  0  0  0  0  0  0  0  0  0
  1 23  1  0  0  0  0
  2 13  1  0  0  0  0
  2 41  1  0  0  0  0
  3  8  1  0  0  0  0
  3 10  1  0  0  0  0
  3 30  1  0  0  0  0
  4 14  1  0  0  0  0
  4 17  2  0  0  0  0
  5 17  1  0  0  0  0
  5 18  1  0  0  0  0
  5 36  1  0  0  0  0
  6 15  1  0  0  0  0
  6 16  2  0  0  0  0
  7 19  1  0  0  0  0
  7 20  2  0  0  0  0
  8  9  1  0  0  0  0
  8 26  1  0  0  0  0
  8 27  1  0  0  0  0
  9 13  1  0  0  0  0
  9 28  1  0  0  0  0
  9 29  1  0  0  0  0
 10 12  1  0  0  0  0
 10 15  2  0  0  0  0
 11 12  2  0  0  0  0
 11 14  1  0  0  0  0
 11 16  1  0  0  0  0
 12 31  1  0  0  0  0
 13 32  1  0  0  0  0
 13 33  1  0  0  0  0
 14 19  2  0  0  0  0
 15 34  1  0  0  0  0
 16 35  1  0  0  0  0
 17 20  1  0  0  0  0
 18 21  2  0  0  0  0
 18 22  1  0  0  0  0
 19 37  1  0  0  0  0
 20 38  1  0  0  0  0
 21 23  1  0  0  0  0
 21 39  1  0  0  0  0
 22 24  2  0  0  0  0
 22 40  1  0  0  0  0
 23 25  2  0  0  0  0
 24 25  1  0  0  0  0
 24 42  1  0  0  0  0
 25 43  1  0  0  0  0
M  END
> <PUBCHEM_COMPOUND_CID>
5330387

> <PUBCHEM_CONFORMER_RMSD>
1

> <PUBCHEM_CONFORMER_DIVERSEORDER>
1
80
174
34
31
143
119
35
199
179
112
186
148
110
164
210
113
55
157
144
123
180
129
102
46
141
43
101
175
66
150
140
51
134
47
37
24
137
94
159
149
161
44
181
160
97
83
59
25
26
3
138
19
177
18
63
185
165
14
205
126
67
128
132
111
98
58
124
168
87
145
77
209
72
21
208
5
117
176
169
200
40
71
52
156
153
70
78
142
93
62
10
207
45
127
187
194
12
28
79
57
135
139
2
99
86
105
75
195
166
147
151
54
206
60
68
170
121
155
201
115
22
39
27
120
64
189
163
30
193
32
118
107
130
29
188
192
90
104
178
20
69
136
182
9
74
131
158
133
202
16
171
191
146
7
203
190
167
56
53
183
50
122
196
38
106
65
103
88
114
172
61
197
84
76
49
152
96
109
173
23
73
81
89
184
95
41
36
154
162
198
92
125
82
91
116
17
4
33
13
8
100
48
6
108
204
11
15
42
85

> <PUBCHEM_MMFF94_PARTIAL_CHARGES>
35
1 -0.18
10 0.1
12 -0.15
13 0.28
14 0.31
15 0.16
16 0.16
17 0.41
18 0.1
19 0.16
2 -0.68
20 0.16
21 -0.15
22 -0.15
23 0.18
24 -0.15
25 -0.15
3 -0.87
30 0.4
31 0.15
34 0.15
35 0.15
36 0.4
37 0.15
38 0.15
39 0.15
4 -0.62
40 0.15
41 0.4
42 0.15
43 0.15
5 -0.6
6 -0.62
7 -0.62
8 0.37

> <PUBCHEM_EFFECTIVE_ROTOR_COUNT>
7

> <PUBCHEM_PHARMACOPHORE_FEATURES>
11
1 2 acceptor
1 2 donor
1 3 cation
1 3 donor
1 5 donor
1 6 acceptor
1 7 acceptor
3 4 5 17 cation
6 18 21 22 23 24 25 rings
6 4 7 14 17 19 20 rings
6 6 10 11 12 15 16 rings

> <PUBCHEM_HEAVY_ATOM_COUNT>
25

> <PUBCHEM_ATOM_DEF_STEREO_COUNT>
0

> <PUBCHEM_ATOM_UDEF_STEREO_COUNT>
0

> <PUBCHEM_BOND_DEF_STEREO_COUNT>
0

> <PUBCHEM_BOND_UDEF_STEREO_COUNT>
0

> <PUBCHEM_ISOTOPIC_ATOM_COUNT>
0

> <PUBCHEM_COMPONENT_COUNT>
1

> <PUBCHEM_CACTVS_TAUTO_COUNT>
2

> <PUBCHEM_CONFORMER_ID>
005155D300000001

> <PUBCHEM_MMFF94_ENERGY>
86.6953

> <PUBCHEM_FEATURE_SELFOVERLAP>
55.821

> <PUBCHEM_SHAPE_FINGERPRINT>
10616163 171 18124885804463979421
1100329 8 18410856529997102615
11014199 57 18410852166295135890
114674 6 16973924896914928425
12038231 1 18266459798003760134
12553582 1 17763467618304964809
13122387 1 16680911030796300214
13533116 47 16399730273032552243
13631057 29 18053670458108905772
138480 1 16250257589283623467
14117953 113 17906169555691992869
14178342 30 18267854150926631232
14251757 5 18122645863814952846
14363568 33 15748680150005160210
14866123 147 18268990882535116355
14931854 50 17903915904710356607
15110567 62 17329429957074378591
15320467 1 17978228588845021558
15352361 1 17548420761952333837
15403338 16 16231393388634678731
17492 89 18410292561762262594
17859628 97 18121503444935829513
19591789 44 18194405489494260537
19930381 70 17977661244855323795
21796203 349 17760130287267155728
22113638 7 18265332802874767902
221490 88 16464742204753655913
229767 44 17906727008441131802
23559900 14 18123460845989252996
3882209 13 17979595157191736470
463206 1 18263932029661994834
532947 4 17547291103975766821
6433294 58 17906169903547147358

> <PUBCHEM_SHAPE_MULTIPOLES>
485.58
8.47
7.73
0.77
0.04
3.76
-0.02
5.76
1.39
3.55
-1.49
-0.09
-0.14
-2.05

> <PUBCHEM_SHAPE_SELFOVERLAP>
1031.375

> <PUBCHEM_SHAPE_VOLUME>
270.3

> <PUBCHEM_COORDINATE_TYPE>
2
5
10

$$$$
