11316975
  -OEChem-10062121593D

 56 61  0     0  0  0  0  0  0999 V2000
    5.9381   -0.0471    1.7893 O   0  0  0  0  0  0  0  0  0  0  0  0
   -2.2147   -3.9314   -0.5874 O   0  0  0  0  0  0  0  0  0  0  0  0
   -5.4375   -0.9793    0.7880 O   0  0  0  0  0  0  0  0  0  0  0  0
    1.4695   -1.4940    0.7244 N   0  0  0  0  0  0  0  0  0  0  0  0
    4.3521   -0.6436    0.2196 N   0  0  0  0  0  0  0  0  0  0  0  0
   -4.1050   -2.7283    0.0285 N   0  0  0  0  0  0  0  0  0  0  0  0
    5.2530    1.5812    0.3201 N   0  0  0  0  0  0  0  0  0  0  0  0
   -2.8959    1.6011    0.1825 N   0  0  0  0  0  0  0  0  0  0  0  0
   -2.5268    2.4607    2.2143 N   0  0  0  0  0  0  0  0  0  0  0  0
    1.4473   -1.0059   -0.5719 C   0  0  0  0  0  0  0  0  0  0  0  0
    2.6077   -1.6263    1.6193 C   0  0  0  0  0  0  0  0  0  0  0  0
    0.0944   -0.9913   -0.9557 C   0  0  0  0  0  0  0  0  0  0  0  0
    2.4713   -0.5750   -1.4503 C   0  0  0  0  0  0  0  0  0  0  0  0
   -0.6739   -1.4913    0.1287 C   0  0  0  0  0  0  0  0  0  0  0  0
    3.9552   -1.8449    0.9523 C   0  0  0  0  0  0  0  0  0  0  0  0
    3.9593   -0.6132   -1.1898 C   0  0  0  0  0  0  0  0  0  0  0  0
    0.1950   -1.7923    1.1447 C   0  0  0  0  0  0  0  0  0  0  0  0
   -2.0921   -1.6571    0.1984 C   0  0  0  0  0  0  0  0  0  0  0  0
   -0.2650   -0.5308   -2.2375 C   0  0  0  0  0  0  0  0  0  0  0  0
    2.0608   -0.1361   -2.7297 C   0  0  0  0  0  0  0  0  0  0  0  0
   -3.0471   -0.8033    0.6038 C   0  0  0  0  0  0  0  0  0  0  0  0
    0.7264   -0.1051   -3.1152 C   0  0  0  0  0  0  0  0  0  0  0  0
    5.2214    0.2765    0.8329 C   0  0  0  0  0  0  0  0  0  0  0  0
   -2.7705   -2.9245   -0.1815 C   0  0  0  0  0  0  0  0  0  0  0  0
   -2.8643    0.5323    1.0490 C   0  0  0  0  0  0  0  0  0  0  0  0
   -4.3611   -1.4757    0.5040 C   0  0  0  0  0  0  0  0  0  0  0  0
   -2.6359    1.0953    2.2899 C   0  0  0  0  0  0  0  0  0  0  0  0
   -2.6858    2.7510    0.9391 C   0  0  0  0  0  0  0  0  0  0  0  0
    6.4889    2.3459    0.4089 C   0  0  0  0  0  0  0  0  0  0  0  0
    4.0613    2.3516   -0.0241 C   0  0  0  0  0  0  0  0  0  0  0  0
   -3.0942    1.6111   -1.1954 C   0  0  0  0  0  0  0  0  0  0  0  0
   -2.6775    3.9938    0.2401 C   0  0  0  0  0  0  0  0  0  0  0  0
   -3.0854    2.7856   -1.8464 C   0  0  0  0  0  0  0  0  0  0  0  0
   -2.8688    4.0104   -1.0931 C   0  0  0  0  0  0  0  0  0  0  0  0
    2.4003   -2.4811    2.2744 H   0  0  0  0  0  0  0  0  0  0  0  0
    2.6171   -0.7201    2.2372 H   0  0  0  0  0  0  0  0  0  0  0  0
    3.9364   -2.7033    0.2707 H   0  0  0  0  0  0  0  0  0  0  0  0
    4.6965   -2.0652    1.7278 H   0  0  0  0  0  0  0  0  0  0  0  0
    4.4453    0.2374   -1.6786 H   0  0  0  0  0  0  0  0  0  0  0  0
    4.3737   -1.5126   -1.6630 H   0  0  0  0  0  0  0  0  0  0  0  0
    0.0171   -2.1817    2.1392 H   0  0  0  0  0  0  0  0  0  0  0  0
   -1.3026   -0.5221   -2.5574 H   0  0  0  0  0  0  0  0  0  0  0  0
    2.8113    0.1883   -3.4495 H   0  0  0  0  0  0  0  0  0  0  0  0
    0.4566    0.2415   -4.1086 H   0  0  0  0  0  0  0  0  0  0  0  0
   -4.8175   -3.4281   -0.1453 H   0  0  0  0  0  0  0  0  0  0  0  0
   -2.5440    0.5812    3.2362 H   0  0  0  0  0  0  0  0  0  0  0  0
    6.6260    2.9137   -0.5156 H   0  0  0  0  0  0  0  0  0  0  0  0
    7.3453    1.6807    0.5526 H   0  0  0  0  0  0  0  0  0  0  0  0
    6.4211    3.0296    1.2600 H   0  0  0  0  0  0  0  0  0  0  0  0
    3.1547    1.7669    0.1440 H   0  0  0  0  0  0  0  0  0  0  0  0
    4.1266    2.6568   -1.0717 H   0  0  0  0  0  0  0  0  0  0  0  0
    4.0169    3.2392    0.6144 H   0  0  0  0  0  0  0  0  0  0  0  0
   -3.2623    0.6730   -1.7089 H   0  0  0  0  0  0  0  0  0  0  0  0
   -2.5170    4.9137    0.7912 H   0  0  0  0  0  0  0  0  0  0  0  0
   -3.2393    2.8476   -2.9168 H   0  0  0  0  0  0  0  0  0  0  0  0
   -2.8662    4.9458   -1.6421 H   0  0  0  0  0  0  0  0  0  0  0  0
  1 23  2  0  0  0  0
  2 24  2  0  0  0  0
  3 26  2  0  0  0  0
  4 10  1  0  0  0  0
  4 11  1  0  0  0  0
  4 17  1  0  0  0  0
  5 15  1  0  0  0  0
  5 16  1  0  0  0  0
  5 23  1  0  0  0  0
  6 24  1  0  0  0  0
  6 26  1  0  0  0  0
  6 45  1  0  0  0  0
  7 23  1  0  0  0  0
  7 29  1  0  0  0  0
  7 30  1  0  0  0  0
  8 25  1  0  0  0  0
  8 28  1  0  0  0  0
  8 31  1  0  0  0  0
  9 27  1  0  0  0  0
  9 28  2  0  0  0  0
 10 12  1  0  0  0  0
 10 13  2  0  0  0  0
 11 15  1  0  0  0  0
 11 35  1  0  0  0  0
 11 36  1  0  0  0  0
 12 14  1  0  0  0  0
 12 19  2  0  0  0  0
 13 16  1  0  0  0  0
 13 20  1  0  0  0  0
 14 17  2  0  0  0  0
 14 18  1  0  0  0  0
 15 37  1  0  0  0  0
 15 38  1  0  0  0  0
 16 39  1  0  0  0  0
 16 40  1  0  0  0  0
 17 41  1  0  0  0  0
 18 21  2  0  0  0  0
 18 24  1  0  0  0  0
 19 22  1  0  0  0  0
 19 42  1  0  0  0  0
 20 22  2  0  0  0  0
 20 43  1  0  0  0  0
 21 25  1  0  0  0  0
 21 26  1  0  0  0  0
 22 44  1  0  0  0  0
 25 27  2  0  0  0  0
 27 46  1  0  0  0  0
 28 32  1  0  0  0  0
 29 47  1  0  0  0  0
 29 48  1  0  0  0  0
 29 49  1  0  0  0  0
 30 50  1  0  0  0  0
 30 51  1  0  0  0  0
 30 52  1  0  0  0  0
 31 33  2  0  0  0  0
 31 53  1  0  0  0  0
 32 34  2  0  0  0  0
 32 54  1  0  0  0  0
 33 34  1  0  0  0  0
 33 55  1  0  0  0  0
 34 56  1  0  0  0  0
M  END
> <PUBCHEM_COMPOUND_CID>
11316975

> <PUBCHEM_CONFORMER_RMSD>
0.8

> <PUBCHEM_CONFORMER_DIVERSEORDER>
9
28
60
41
21
61
58
19
29
43
54
37
53
34
11
59
40
35
32
17
1
42
22
20
44
52
7
31
39
47
57
56
38
5
24
6
23
30
18
12
36
14
33
55
2
51
13
8
49
45
3
4
50
16
27
46
26
15
10
48
25

> <PUBCHEM_MMFF94_PARTIAL_CHARGES>
43
1 -0.57
10 -0.15
11 0.26
13 -0.14
14 -0.05
15 0.3
16 0.44
17 -0.3
18 0.06
19 -0.15
2 -0.57
20 -0.15
21 0.06
22 -0.15
23 0.69
24 0.62
25 -0.2
26 0.62
27 0.08
28 0.14
29 0.3
3 -0.57
30 0.3
31 -0.18
32 -0.11
33 -0.15
34 -0.15
4 0.05
41 0.15
42 0.15
43 0.15
44 0.15
45 0.37
46 0.15
5 -0.66
53 0.15
54 0.15
55 0.15
56 0.15
6 -0.49
7 -0.66
8 0.33
9 -0.57

> <PUBCHEM_EFFECTIVE_ROTOR_COUNT>
5

> <PUBCHEM_PHARMACOPHORE_FEATURES>
12
1 1 acceptor
1 2 acceptor
1 3 acceptor
1 4 cation
1 6 donor
3 8 9 28 cation
5 4 10 12 14 17 rings
5 6 18 21 24 26 rings
5 8 9 25 27 28 rings
6 10 12 13 19 20 22 rings
6 8 28 31 32 33 34 rings
7 4 5 10 11 13 15 16 rings

> <PUBCHEM_HEAVY_ATOM_COUNT>
34

> <PUBCHEM_ATOM_DEF_STEREO_COUNT>
0

> <PUBCHEM_ATOM_UDEF_STEREO_COUNT>
0

> <PUBCHEM_BOND_DEF_STEREO_COUNT>
0

> <PUBCHEM_BOND_UDEF_STEREO_COUNT>
0

> <PUBCHEM_ISOTOPIC_ATOM_COUNT>
0

> <PUBCHEM_COMPONENT_COUNT>
1

> <PUBCHEM_CACTVS_TAUTO_COUNT>
3

> <PUBCHEM_CONFORMER_ID>
00ACAEEF00000009

> <PUBCHEM_MMFF94_ENERGY>
93.6675

> <PUBCHEM_FEATURE_SELFOVERLAP>
61.143

> <PUBCHEM_SHAPE_FINGERPRINT>
10165383 225 17118377175915449693
10369192 42 16916516976967851480
11578080 2 17968918847424034485
11595378 159 18335989739289499714
11796584 16 11818986384204850314
12107183 9 17975403621572167378
12156800 1 16665376400933914509
13583140 156 18130493150931594750
13911987 19 15769786783518814154
13965767 371 17609223350956395909
13994607 96 18059844048389225573
15961568 22 18199196268195225596
17349148 13 17168431565921819242
19309040 13 16557364651470555785
19315092 285 17390189914592017522
20511986 3 17749378240072690787
20600515 1 18128271162907858879
20764821 26 18261121741923570388
21716022 299 15258022648366484679
22121540 332 15193354549676683987
22956985 138 16824176927676084403
23559900 14 17843134614771323326
24771293 8 18059868277206883387
27425 322 17199118712732303705
3117164 225 18118675527226605762
3459 110 18260824904270438684
392239 28 18334577992092419880
445580 44 18040442100655087885
469060 322 17895490205758123857
550186 7 18201729500051643414
57527585 21 17131549436469359073
5951187 136 17264689114545494573
6523845 18 17764903219834744157
9849439 229 17691973661568999137

> <PUBCHEM_SHAPE_MULTIPOLES>
652.21
11.5
4.34
2.29
14.24
2.5
-1.11
4.15
4.31
-4.92
0.08
0.36
0.49
0.25

> <PUBCHEM_SHAPE_SELFOVERLAP>
1469.199

> <PUBCHEM_SHAPE_VOLUME>
344.4

> <PUBCHEM_COORDINATE_TYPE>
2
5
10

$$$$
