49830694
  -OEChem-10062121553D

 35 37  0     0  0  0  0  0  0999 V2000
   -6.8741   -1.3582    0.0002 Cl  0  0  0  0  0  0  0  0  0  0  0  0
   -7.3440    1.8028    0.0004 Cl  0  0  0  0  0  0  0  0  0  0  0  0
    7.0379   -0.8826    0.0017 F   0  0  0  0  0  0  0  0  0  0  0  0
    5.4371   -1.8786    1.0847 F   0  0  0  0  0  0  0  0  0  0  0  0
    5.4390   -1.8788   -1.0841 F   0  0  0  0  0  0  0  0  0  0  0  0
    1.0464   -1.1268   -0.0008 O   0  0  0  0  0  0  0  0  0  0  0  0
   -0.7182    0.4129   -0.0002 N   0  0  0  0  0  0  0  0  0  0  0  0
   -4.0491   -2.1150   -0.0001 N   0  0  0  0  0  0  0  0  0  0  0  0
    1.4576    1.1752   -0.0004 N   0  0  0  0  0  0  0  0  0  0  0  0
    3.5677    0.0789   -0.0008 N   0  0  0  0  0  0  0  0  0  0  0  0
   -3.1503    0.1208    0.0001 C   0  0  0  0  0  0  0  0  0  0  0  0
   -1.8523   -0.4076   -0.0002 C   0  0  0  0  0  0  0  0  0  0  0  0
   -4.2346   -0.7813    0.0001 C   0  0  0  0  0  0  0  0  0  0  0  0
   -3.3805    1.5071    0.0002 C   0  0  0  0  0  0  0  0  0  0  0  0
   -1.6581   -1.7813   -0.0004 C   0  0  0  0  0  0  0  0  0  0  0  0
   -5.5238   -0.2558    0.0002 C   0  0  0  0  0  0  0  0  0  0  0  0
   -4.6803    2.0052    0.0004 C   0  0  0  0  0  0  0  0  0  0  0  0
   -5.7530    1.1223    0.0003 C   0  0  0  0  0  0  0  0  0  0  0  0
   -2.7804   -2.5843   -0.0003 C   0  0  0  0  0  0  0  0  0  0  0  0
    0.6429    0.0317   -0.0005 C   0  0  0  0  0  0  0  0  0  0  0  0
    2.8712    1.2375   -0.0007 C   0  0  0  0  0  0  0  0  0  0  0  0
    4.9152    0.1884   -0.0005 C   0  0  0  0  0  0  0  0  0  0  0  0
    3.4554    2.4940    0.0000 C   0  0  0  0  0  0  0  0  0  0  0  0
    5.5952    1.3956   -0.0002 C   0  0  0  0  0  0  0  0  0  0  0  0
    4.8440    2.5657    0.0002 C   0  0  0  0  0  0  0  0  0  0  0  0
    5.6889   -1.0877    0.0005 C   0  0  0  0  0  0  0  0  0  0  0  0
   -2.5816    2.2413    0.0002 H   0  0  0  0  0  0  0  0  0  0  0  0
   -0.7126   -2.2974   -0.0005 H   0  0  0  0  0  0  0  0  0  0  0  0
   -0.8707    1.4142    0.0001 H   0  0  0  0  0  0  0  0  0  0  0  0
   -4.8360    3.0809    0.0006 H   0  0  0  0  0  0  0  0  0  0  0  0
   -2.6921   -3.6660   -0.0004 H   0  0  0  0  0  0  0  0  0  0  0  0
    0.9805    2.0733   -0.0001 H   0  0  0  0  0  0  0  0  0  0  0  0
    2.8646    3.4041    0.0003 H   0  0  0  0  0  0  0  0  0  0  0  0
    6.6782    1.4509    0.0001 H   0  0  0  0  0  0  0  0  0  0  0  0
    5.3398    3.5318    0.0007 H   0  0  0  0  0  0  0  0  0  0  0  0
  1 16  1  0  0  0  0
  2 18  1  0  0  0  0
  3 26  1  0  0  0  0
  4 26  1  0  0  0  0
  5 26  1  0  0  0  0
  6 20  2  0  0  0  0
  7 12  1  0  0  0  0
  7 20  1  0  0  0  0
  7 29  1  0  0  0  0
  8 13  2  0  0  0  0
  8 19  1  0  0  0  0
  9 20  1  0  0  0  0
  9 21  1  0  0  0  0
  9 32  1  0  0  0  0
 10 21  1  0  0  0  0
 10 22  2  0  0  0  0
 11 12  2  0  0  0  0
 11 13  1  0  0  0  0
 11 14  1  0  0  0  0
 12 15  1  0  0  0  0
 13 16  1  0  0  0  0
 14 17  2  0  0  0  0
 14 27  1  0  0  0  0
 15 19  2  0  0  0  0
 15 28  1  0  0  0  0
 16 18  2  0  0  0  0
 17 18  1  0  0  0  0
 17 30  1  0  0  0  0
 19 31  1  0  0  0  0
 21 23  2  0  0  0  0
 22 24  1  0  0  0  0
 22 26  1  0  0  0  0
 23 25  1  0  0  0  0
 23 33  1  0  0  0  0
 24 25  2  0  0  0  0
 24 34  1  0  0  0  0
 25 35  1  0  0  0  0
M  END
> <PUBCHEM_COMPOUND_CID>
49830694

> <PUBCHEM_CONFORMER_RMSD>
0.8

> <PUBCHEM_CONFORMER_DIVERSEORDER>
1
23
10
19
17
7
13
26
16
20
18
8
4
21
22
14
25
2
12
9
6
11
3
24
15
5

> <PUBCHEM_MMFF94_PARTIAL_CHARGES>
34
1 -0.18
10 -0.62
12 0.12
13 0.31
14 -0.15
15 -0.15
16 0.18
17 -0.15
18 0.18
19 0.16
2 -0.18
20 0.69
21 0.43
22 0.17
23 -0.15
24 -0.15
25 -0.15
26 1.16
27 0.15
28 0.15
29 0.37
3 -0.34
30 0.15
31 0.15
32 0.37
33 0.15
34 0.15
35 0.15
4 -0.34
5 -0.34
6 -0.57
7 -0.55
8 -0.62
9 -0.55

> <PUBCHEM_EFFECTIVE_ROTOR_COUNT>
5

> <PUBCHEM_PHARMACOPHORE_FEATURES>
8
1 10 acceptor
1 6 acceptor
1 7 donor
1 8 acceptor
1 9 donor
6 10 21 22 23 24 25 rings
6 11 13 14 16 17 18 rings
6 8 11 12 13 15 19 rings

> <PUBCHEM_HEAVY_ATOM_COUNT>
26

> <PUBCHEM_ATOM_DEF_STEREO_COUNT>
0

> <PUBCHEM_ATOM_UDEF_STEREO_COUNT>
0

> <PUBCHEM_BOND_DEF_STEREO_COUNT>
0

> <PUBCHEM_BOND_UDEF_STEREO_COUNT>
0

> <PUBCHEM_ISOTOPIC_ATOM_COUNT>
0

> <PUBCHEM_COMPONENT_COUNT>
1

> <PUBCHEM_CACTVS_TAUTO_COUNT>
11

> <PUBCHEM_CONFORMER_ID>
02F85B2600000001

> <PUBCHEM_MMFF94_ENERGY>
73.8185

> <PUBCHEM_FEATURE_SELFOVERLAP>
40.681

> <PUBCHEM_SHAPE_FINGERPRINT>
10411042 1 17762337316927835143
10595046 47 18265895950417894404
10835480 77 18271239525526987096
11315181 36 17632860836861851081
11405975 8 18410011061368805936
11524674 6 17203609302734527319
11719270 70 17918274233910860822
11796584 16 18342740728326935918
12107183 9 18265048029526717768
12166972 35 18408888459733888341
12236239 1 18260547840187801833
13073987 5 18337672026555624112
13167372 99 18413390921126009513
13167823 11 18337951294156722714
13533116 47 18272370893169173432
13785724 45 18052822451745767606
14251764 18 18407758149380169404
14341114 176 18408889567787464765
14933364 13 18409450301479765045
15183329 4 18412267216131655664
15196674 1 18410574023964555268
15419008 42 17985264062728507932
1577012 14 18411701006388130197
17844677 252 18410580604012877240
1813 80 16805320020060247772
19611394 137 17969798552328489371
19958102 18 18334006203365309639
20281389 69 18408604777502151049
21065198 57 18267021833187020248
21236236 1 18340768230515558293
21267235 1 18408327709256675763
21279426 13 18411700963184931508
21315763 28 18411135848842409791
21315764 268 18337104661344895221
21859007 373 17896311416485058389
23536379 177 18410855477339907081
23559900 14 18343014501825515224
23569943 247 17387117685777761874
2838139 119 18411695462075942261
3004659 81 18408887335200659632
335352 9 18410856546818431973
350125 39 18336544932800873353
3545911 37 18410293601666334261
4073 2 18042126625667576642
4197921 191 18335706078069382029
4214541 1 18410856576830455108
5104073 3 18411138069182078184
559249 180 18411416198395322539
59755656 215 18338518542902922182
59755656 520 17168144542469588787
6299153 45 18339646616305842449
9965369 4 18410572864507982401
9995097 60 18413389830404458086
9996256 80 18411981390627471591

> <PUBCHEM_SHAPE_MULTIPOLES>
491.19
20.43
2.75
0.65
5.07
0.04
0
1.59
0
0.16
0
0.25
-0.1
0

> <PUBCHEM_SHAPE_SELFOVERLAP>
1061.69

> <PUBCHEM_SHAPE_VOLUME>
272.4

> <PUBCHEM_COORDINATE_TYPE>
2
5
10

$$$$
