11537005
  -OEChem-10062121563D

 42 44  0     0  0  0  0  0  0999 V2000
    5.6493    2.1287    0.3434 O   0  0  0  0  0  0  0  0  0  0  0  0
    1.4420    0.3742   -2.0677 O   0  0  0  0  0  0  0  0  0  0  0  0
    1.6130   -1.4999   -0.7129 N   0  0  0  0  0  0  0  0  0  0  0  0
   -7.2333    0.4394    0.9360 N   0  0  0  0  0  0  0  0  0  0  0  0
    3.0094   -1.7674   -0.9725 C   0  0  0  0  0  0  0  0  0  0  0  0
    3.9072   -1.0616    0.0023 C   0  0  0  0  0  0  0  0  0  0  0  0
   -0.4854   -0.2825   -0.9047 C   0  0  0  0  0  0  0  0  0  0  0  0
   -3.1628    0.0048   -0.1756 C   0  0  0  0  0  0  0  0  0  0  0  0
    0.9102   -0.4328   -1.2846 C   0  0  0  0  0  0  0  0  0  0  0  0
   -1.0871    0.9756   -0.9404 C   0  0  0  0  0  0  0  0  0  0  0  0
   -1.2227   -1.3970   -0.5045 C   0  0  0  0  0  0  0  0  0  0  0  0
   -2.4257    1.1192   -0.5758 C   0  0  0  0  0  0  0  0  0  0  0  0
   -2.5614   -1.2533   -0.1399 C   0  0  0  0  0  0  0  0  0  0  0  0
   -4.5514    0.1532    0.2033 C   0  0  0  0  0  0  0  0  0  0  0  0
    4.3642    0.2187   -0.2872 C   0  0  0  0  0  0  0  0  0  0  0  0
    4.2716   -1.6954    1.1843 C   0  0  0  0  0  0  0  0  0  0  0  0
    5.1979    0.8747    0.6187 C   0  0  0  0  0  0  0  0  0  0  0  0
    5.1051   -1.0395    2.0900 C   0  0  0  0  0  0  0  0  0  0  0  0
    5.5682    0.2455    1.8074 C   0  0  0  0  0  0  0  0  0  0  0  0
   -4.9970    1.3426    0.7684 C   0  0  0  0  0  0  0  0  0  0  0  0
   -5.4446   -0.8933    0.0037 C   0  0  0  0  0  0  0  0  0  0  0  0
   -6.3356    1.4345    1.1143 C   0  0  0  0  0  0  0  0  0  0  0  0
   -6.7632   -0.7015    0.3837 C   0  0  0  0  0  0  0  0  0  0  0  0
    5.2321    2.7131   -0.8896 C   0  0  0  0  0  0  0  0  0  0  0  0
    3.2521   -1.4740   -2.0007 H   0  0  0  0  0  0  0  0  0  0  0  0
    3.1527   -2.8524   -0.9117 H   0  0  0  0  0  0  0  0  0  0  0  0
    1.1656   -2.0897   -0.0194 H   0  0  0  0  0  0  0  0  0  0  0  0
   -0.5301    1.8559   -1.2511 H   0  0  0  0  0  0  0  0  0  0  0  0
   -0.8013   -2.3977   -0.4863 H   0  0  0  0  0  0  0  0  0  0  0  0
   -2.8596    2.1129   -0.6459 H   0  0  0  0  0  0  0  0  0  0  0  0
   -3.0895   -2.1450    0.1868 H   0  0  0  0  0  0  0  0  0  0  0  0
    4.0501    0.6590   -1.2268 H   0  0  0  0  0  0  0  0  0  0  0  0
    3.9151   -2.6953    1.4155 H   0  0  0  0  0  0  0  0  0  0  0  0
    5.3930   -1.5290    3.0158 H   0  0  0  0  0  0  0  0  0  0  0  0
    6.2170    0.7515    2.5170 H   0  0  0  0  0  0  0  0  0  0  0  0
   -4.3489    2.1866    0.9776 H   0  0  0  0  0  0  0  0  0  0  0  0
   -5.1706   -1.8358   -0.4578 H   0  0  0  0  0  0  0  0  0  0  0  0
   -6.7325    2.3382    1.5651 H   0  0  0  0  0  0  0  0  0  0  0  0
   -7.5016   -1.4840    0.2429 H   0  0  0  0  0  0  0  0  0  0  0  0
    4.1460    2.8517   -0.9225 H   0  0  0  0  0  0  0  0  0  0  0  0
    5.6054    2.1473   -1.7499 H   0  0  0  0  0  0  0  0  0  0  0  0
    5.6826    3.7097   -0.9434 H   0  0  0  0  0  0  0  0  0  0  0  0
  1 17  1  0  0  0  0
  1 24  1  0  0  0  0
  2  9  2  0  0  0  0
  3  5  1  0  0  0  0
  3  9  1  0  0  0  0
  3 27  1  0  0  0  0
  4 22  2  0  0  0  0
  4 23  1  0  0  0  0
  5  6  1  0  0  0  0
  5 25  1  0  0  0  0
  5 26  1  0  0  0  0
  6 15  2  0  0  0  0
  6 16  1  0  0  0  0
  7  9  1  0  0  0  0
  7 10  2  0  0  0  0
  7 11  1  0  0  0  0
  8 12  2  0  0  0  0
  8 13  1  0  0  0  0
  8 14  1  0  0  0  0
 10 12  1  0  0  0  0
 10 28  1  0  0  0  0
 11 13  2  0  0  0  0
 11 29  1  0  0  0  0
 12 30  1  0  0  0  0
 13 31  1  0  0  0  0
 14 20  2  0  0  0  0
 14 21  1  0  0  0  0
 15 17  1  0  0  0  0
 15 32  1  0  0  0  0
 16 18  2  0  0  0  0
 16 33  1  0  0  0  0
 17 19  2  0  0  0  0
 18 19  1  0  0  0  0
 18 34  1  0  0  0  0
 19 35  1  0  0  0  0
 20 22  1  0  0  0  0
 20 36  1  0  0  0  0
 21 23  2  0  0  0  0
 21 37  1  0  0  0  0
 22 38  1  0  0  0  0
 23 39  1  0  0  0  0
 24 40  1  0  0  0  0
 24 41  1  0  0  0  0
 24 42  1  0  0  0  0
M  END
> <PUBCHEM_COMPOUND_CID>
11537005

> <PUBCHEM_CONFORMER_RMSD>
0.8

> <PUBCHEM_CONFORMER_DIVERSEORDER>
1
28
23
13
8
21
6
11
12
9
25
19
20
2
10
5
15
24
7
26
22
27
16
3
4
17
14
18

> <PUBCHEM_MMFF94_PARTIAL_CHARGES>
35
1 -0.36
10 -0.15
11 -0.15
12 -0.15
13 -0.15
15 -0.15
16 -0.15
17 0.08
18 -0.15
19 -0.15
2 -0.57
20 -0.15
21 -0.15
22 0.16
23 0.16
24 0.28
27 0.37
28 0.15
29 0.15
3 -0.73
30 0.15
31 0.15
32 0.15
33 0.15
34 0.15
35 0.15
36 0.15
37 0.15
38 0.15
39 0.15
4 -0.62
5 0.44
6 -0.14
7 0.09
9 0.54

> <PUBCHEM_EFFECTIVE_ROTOR_COUNT>
6

> <PUBCHEM_PHARMACOPHORE_FEATURES>
7
1 1 acceptor
1 2 acceptor
1 3 donor
1 4 acceptor
6 4 14 20 21 22 23 rings
6 6 15 16 17 18 19 rings
6 7 8 10 11 12 13 rings

> <PUBCHEM_HEAVY_ATOM_COUNT>
24

> <PUBCHEM_ATOM_DEF_STEREO_COUNT>
0

> <PUBCHEM_ATOM_UDEF_STEREO_COUNT>
0

> <PUBCHEM_BOND_DEF_STEREO_COUNT>
0

> <PUBCHEM_BOND_UDEF_STEREO_COUNT>
0

> <PUBCHEM_ISOTOPIC_ATOM_COUNT>
0

> <PUBCHEM_COMPONENT_COUNT>
1

> <PUBCHEM_CACTVS_TAUTO_COUNT>
2

> <PUBCHEM_CONFORMER_ID>
00B00A6D00000001

> <PUBCHEM_MMFF94_ENERGY>
81.8572

> <PUBCHEM_FEATURE_SELFOVERLAP>
35.522

> <PUBCHEM_SHAPE_FINGERPRINT>
10 15 18410015446688566747
10378564 45 10303816471232870906
10670039 82 15482406278473638736
10693767 8 9511466589124931492
10730089 47 11169913905019064793
11724838 91 18410568530996737582
11796584 16 12901555640907286072
11991303 11 13542452177552460989
125118 31 18131074779966766769
12596602 18 18334858303438708667
12661589 4 12180427788704411353
12670543 26 9439404623179002519
13533116 47 17458624484851576994
13668630 136 13479132359332801130
13782708 43 13984957250879312697
14251752 14 8286209340298132715
14251764 18 18341332271300988945
14251764 75 18048879886521874116
14341114 328 18409160043906591010
14347332 77 8069759476569058319
14528608 73 13542457657413044079
14931854 50 10015587272487975480
15188451 53 15791721984684354568
15475509 35 16588292849251147218
15475509 8 9583519828614608291
15575132 122 14333132940694959891
16760501 71 18341895229079980113
16992610 120 17679037126644418692
17134984 74 11097866185443604376
17980427 23 18341327898560130479
1813 80 16298386846963427958
18222031 100 13695870290523598598
190975 80 18187930629318005795
19377110 9 18342170089996647543
19958102 18 9727349091921517177
2026 5 14345793843027630809
20567600 234 18413670223012304861
20567600 247 12324242784446473641
21130935 74 18334863788455577347
21315764 119 11455895771143901665
21344244 78 16370724851021655076
21637258 2 14923947864501355979
21641784 216 14979969029602986235
21792934 111 17749390339681886069
21859007 373 17386553662535989077
22061861 79 12901552338478401003
221357 26 12103853358440081962
2215653 11 8574708018123639138
23559900 14 18200325307712651902
2838139 119 16558456500849522001
2916195 48 17775002354569193267
29717793 49 10231757786246739590
3472631 163 14979661235208687400
34797466 226 17131844165798742141
3663271 9 18335422374447224283
4058900 60 12894809012638495869
465052 167 14273462452834228690
5104073 3 18187943802161823473
5718773 13 13479678799796070312
6438161 24 8718553774733374628
6443934 186 18334859458726966288
86090 222 16009595638346354818
8988823 20 15502381149233839382
960060 61 9799405655367565402
9862260 156 13470418734441880412

> <PUBCHEM_SHAPE_MULTIPOLES>
472.21
19.19
2.03
1.53
12.5
0.74
-0.24
5.01
-9.82
-2.54
0.15
-1.72
-0.06
-1.38

> <PUBCHEM_SHAPE_SELFOVERLAP>
1027.799

> <PUBCHEM_SHAPE_VOLUME>
256.2

> <PUBCHEM_COORDINATE_TYPE>
2
5
10

$$$$
