24905231
  -OEChem-10052115163D

 56 59  0     0  0  0  0  0  0999 V2000
    3.9505   -1.9814    0.0449 O   0  0  0  0  0  0  0  0  0  0  0  0
    5.1581   -0.0403   -0.0179 O   0  0  0  0  0  0  0  0  0  0  0  0
   -3.7936   -0.9508   -1.0213 N   0  0  0  0  0  0  0  0  0  0  0  0
   -2.8001   -0.1313   -1.4123 N   0  0  0  0  0  0  0  0  0  0  0  0
   -4.8711   -1.7170    1.0071 N   0  0  0  0  0  0  0  0  0  0  0  0
    2.8149   -0.0453   -0.0864 N   0  0  0  0  0  0  0  0  0  0  0  0
   -3.8732   -0.7121    2.9933 N   0  0  0  0  0  0  0  0  0  0  0  0
    1.9046    4.0296   -0.3198 N   0  0  0  0  0  0  0  0  0  0  0  0
   -2.0574    0.8333    2.8835 N   0  0  0  0  0  0  0  0  0  0  0  0
   -4.5517   -1.6746   -2.0142 C   0  0  0  0  0  0  0  0  0  0  0  0
   -2.3293    0.3590   -0.2603 C   0  0  0  0  0  0  0  0  0  0  0  0
   -3.0142   -0.1406    0.8631 C   0  0  0  0  0  0  0  0  0  0  0  0
   -3.9646   -0.9939    0.3305 C   0  0  0  0  0  0  0  0  0  0  0  0
   -1.2374    1.2911   -0.2747 C   0  0  0  0  0  0  0  0  0  0  0  0
   -3.6653   -2.6386   -2.8068 C   0  0  0  0  0  0  0  0  0  0  0  0
   -5.3004   -0.7254   -2.9531 C   0  0  0  0  0  0  0  0  0  0  0  0
    1.1467    1.7440   -0.2267 C   0  0  0  0  0  0  0  0  0  0  0  0
    5.1724   -2.7253    0.1179 C   0  0  0  0  0  0  0  0  0  0  0  0
    0.0759    0.8342   -0.2124 C   0  0  0  0  0  0  0  0  0  0  0  0
   -2.9860   -0.0107    2.2476 C   0  0  0  0  0  0  0  0  0  0  0  0
   -1.4858    2.6560   -0.3512 C   0  0  0  0  0  0  0  0  0  0  0  0
    0.9020    3.1311   -0.3042 C   0  0  0  0  0  0  0  0  0  0  0  0
    2.4782    1.3113   -0.1649 C   0  0  0  0  0  0  0  0  0  0  0  0
   -0.4210    3.5602   -0.3653 C   0  0  0  0  0  0  0  0  0  0  0  0
    5.9282   -2.2968    1.3748 C   0  0  0  0  0  0  0  0  0  0  0  0
    4.8059   -4.2061    0.1897 C   0  0  0  0  0  0  0  0  0  0  0  0
    5.9940   -2.4354   -1.1375 C   0  0  0  0  0  0  0  0  0  0  0  0
    3.5134    2.2349   -0.1808 C   0  0  0  0  0  0  0  0  0  0  0  0
   -4.7481   -1.5104    2.3361 C   0  0  0  0  0  0  0  0  0  0  0  0
    4.0788   -0.6194   -0.0200 C   0  0  0  0  0  0  0  0  0  0  0  0
    3.1757    3.5708   -0.2587 C   0  0  0  0  0  0  0  0  0  0  0  0
   -5.3001   -2.2736   -1.4814 H   0  0  0  0  0  0  0  0  0  0  0  0
   -2.9129   -2.1046   -3.3977 H   0  0  0  0  0  0  0  0  0  0  0  0
   -4.2680   -3.2404   -3.4952 H   0  0  0  0  0  0  0  0  0  0  0  0
   -3.1360   -3.3232   -2.1348 H   0  0  0  0  0  0  0  0  0  0  0  0
   -4.6109   -0.1178   -3.5496 H   0  0  0  0  0  0  0  0  0  0  0  0
   -5.9410   -0.0411   -2.3856 H   0  0  0  0  0  0  0  0  0  0  0  0
   -5.9367   -1.2880   -3.6444 H   0  0  0  0  0  0  0  0  0  0  0  0
    0.2295   -0.2394   -0.1529 H   0  0  0  0  0  0  0  0  0  0  0  0
   -2.5027    3.0383   -0.4004 H   0  0  0  0  0  0  0  0  0  0  0  0
   -0.6420    4.6243   -0.4255 H   0  0  0  0  0  0  0  0  0  0  0  0
    6.4474   -1.3388    1.2904 H   0  0  0  0  0  0  0  0  0  0  0  0
    5.2518   -2.2242    2.2344 H   0  0  0  0  0  0  0  0  0  0  0  0
    6.7054   -3.0301    1.6214 H   0  0  0  0  0  0  0  0  0  0  0  0
    4.2211   -4.5043   -0.6881 H   0  0  0  0  0  0  0  0  0  0  0  0
    4.1765   -4.4081    1.0641 H   0  0  0  0  0  0  0  0  0  0  0  0
    5.6938   -4.8441    0.2473 H   0  0  0  0  0  0  0  0  0  0  0  0
    5.3656   -2.4757   -2.0348 H   0  0  0  0  0  0  0  0  0  0  0  0
    6.4959   -1.4647   -1.1401 H   0  0  0  0  0  0  0  0  0  0  0  0
    6.7911   -3.1797   -1.2526 H   0  0  0  0  0  0  0  0  0  0  0  0
    2.0588   -0.7196   -0.0748 H   0  0  0  0  0  0  0  0  0  0  0  0
    4.5673    2.0131   -0.1380 H   0  0  0  0  0  0  0  0  0  0  0  0
   -5.4441   -2.0574    2.9632 H   0  0  0  0  0  0  0  0  0  0  0  0
   -1.3842    1.3677    2.3545 H   0  0  0  0  0  0  0  0  0  0  0  0
   -2.0714    0.8985    3.8924 H   0  0  0  0  0  0  0  0  0  0  0  0
    3.9417    4.3393   -0.2748 H   0  0  0  0  0  0  0  0  0  0  0  0
  1 18  1  0  0  0  0
  1 30  1  0  0  0  0
  2 30  2  0  0  0  0
  3  4  1  0  0  0  0
  3 10  1  0  0  0  0
  3 13  1  0  0  0  0
  4 11  2  0  0  0  0
  5 13  2  0  0  0  0
  5 29  1  0  0  0  0
  6 23  1  0  0  0  0
  6 30  1  0  0  0  0
  6 51  1  0  0  0  0
  7 20  1  0  0  0  0
  7 29  2  0  0  0  0
  8 22  2  0  0  0  0
  8 31  1  0  0  0  0
  9 20  1  0  0  0  0
  9 54  1  0  0  0  0
  9 55  1  0  0  0  0
 10 15  1  0  0  0  0
 10 16  1  0  0  0  0
 10 32  1  0  0  0  0
 11 12  1  0  0  0  0
 11 14  1  0  0  0  0
 12 13  1  0  0  0  0
 12 20  2  0  0  0  0
 14 19  2  0  0  0  0
 14 21  1  0  0  0  0
 15 33  1  0  0  0  0
 15 34  1  0  0  0  0
 15 35  1  0  0  0  0
 16 36  1  0  0  0  0
 16 37  1  0  0  0  0
 16 38  1  0  0  0  0
 17 19  1  0  0  0  0
 17 22  1  0  0  0  0
 17 23  2  0  0  0  0
 18 25  1  0  0  0  0
 18 26  1  0  0  0  0
 18 27  1  0  0  0  0
 19 39  1  0  0  0  0
 21 24  2  0  0  0  0
 21 40  1  0  0  0  0
 22 24  1  0  0  0  0
 23 28  1  0  0  0  0
 24 41  1  0  0  0  0
 25 42  1  0  0  0  0
 25 43  1  0  0  0  0
 25 44  1  0  0  0  0
 26 45  1  0  0  0  0
 26 46  1  0  0  0  0
 26 47  1  0  0  0  0
 27 48  1  0  0  0  0
 27 49  1  0  0  0  0
 27 50  1  0  0  0  0
 28 31  2  0  0  0  0
 28 52  1  0  0  0  0
 29 53  1  0  0  0  0
 31 56  1  0  0  0  0
M  END
> <PUBCHEM_COMPOUND_CID>
24905231

> <PUBCHEM_CONFORMER_RMSD>
0.8

> <PUBCHEM_CONFORMER_DIVERSEORDER>
1
7
33
10
8
39
41
9
6
37
3
25
30
5
17
22
35
19
49
45
26
18
36
44
27
43
48
14
21
24
46
20
23
11
29
34
32
47
15
28
50
40
4
13
42
38
31
2
16
12

> <PUBCHEM_MMFF94_PARTIAL_CHARGES>
33
1 -0.43
10 0.26
11 0.23
13 0.11
14 0.05
18 0.28
19 -0.15
2 -0.57
20 0.41
21 -0.15
22 0.31
23 0.12
24 -0.15
28 -0.15
29 0.47
3 0.31
30 0.78
31 0.16
39 0.15
4 -0.71
40 0.15
41 0.15
5 -0.57
51 0.37
52 0.15
53 0.15
54 0.4
55 0.4
56 0.15
6 -0.55
7 -0.62
8 -0.62
9 -0.9

> <PUBCHEM_EFFECTIVE_ROTOR_COUNT>
6

> <PUBCHEM_PHARMACOPHORE_FEATURES>
14
1 2 acceptor
1 4 acceptor
1 6 donor
1 8 acceptor
1 9 cation
1 9 donor
3 10 15 16 hydrophobe
3 3 5 13 cation
3 5 7 29 cation
4 18 25 26 27 hydrophobe
5 3 4 11 12 13 rings
6 14 17 19 21 22 24 rings
6 5 7 12 13 20 29 rings
6 8 17 22 23 28 31 rings

> <PUBCHEM_HEAVY_ATOM_COUNT>
31

> <PUBCHEM_ATOM_DEF_STEREO_COUNT>
0

> <PUBCHEM_ATOM_UDEF_STEREO_COUNT>
0

> <PUBCHEM_BOND_DEF_STEREO_COUNT>
0

> <PUBCHEM_BOND_UDEF_STEREO_COUNT>
0

> <PUBCHEM_ISOTOPIC_ATOM_COUNT>
0

> <PUBCHEM_COMPONENT_COUNT>
1

> <PUBCHEM_CACTVS_TAUTO_COUNT>
24

> <PUBCHEM_CONFORMER_ID>
017C060F00000001

> <PUBCHEM_MMFF94_ENERGY>
95.3332

> <PUBCHEM_FEATURE_SELFOVERLAP>
71.356

> <PUBCHEM_SHAPE_FINGERPRINT>
10319926 262 15195298511988440892
10483366 6 18052793894544699141
10622 236 17700672202845812279
10928967 22 18342185414746447550
11135926 11 18191590963619854804
11991303 11 17681277654860283661
12107183 9 18196113065871430545
12218070 45 17702358789754468662
12236239 1 17629220470169695545
12342043 65 17459770283431449691
12422481 6 17702955708039127230
12559416 39 18116973543077802858
12623949 98 16811546722170569835
12633257 1 16773809107719324577
1361 87 17967822634495074690
13911987 19 17684655715432203220
14114206 34 17459750320223360796
14674994 50 18056754321868136905
14844126 61 18049998901067600744
14950920 106 16917055643112995202
15361156 5 18262243226872519036
15484559 13 11833979667910513681
16628084 112 17104802531980674861
16728300 4 18269855198091559195
19301676 85 17687738346603735710
19315092 285 17488161854902586194
20775530 9 18411421666273416264
21033650 10 15502370123694438325
21133665 82 17182216921136791462
21796203 349 18195558993710023762
23559900 14 17313374669015460228
23569914 152 17831826128936134831
25025965 108 18051667990117126298
314194 84 18410856590295430476
345986 75 18059591186437643096
44880168 125 17558280825806453630
46194498 28 16807026539294504884
4756261 7 9293282942658381533
484985 159 17823147748177507963
5309563 4 18335430032189692874
613672 6 18261098682638881178
6431902 208 18261958432266117226
70251023 43 18337941359575639717
7970288 3 18335993037730016098
86090 222 17604442906548808258

> <PUBCHEM_SHAPE_MULTIPOLES>
591.36
13.97
4.9
2.41
9.19
1.91
0.59
-16.31
-0.71
6.88
-1.12
-5.8
-1.76
-1.41

> <PUBCHEM_SHAPE_SELFOVERLAP>
1298.906

> <PUBCHEM_SHAPE_VOLUME>
317.8

> <PUBCHEM_COORDINATE_TYPE>
2
5
10

$$$$
