177458
  -OEChem-10062122033D

 34 36  0     0  0  0  0  0  0999 V2000
    2.7544   -2.4342   -0.0005 O   0  0  0  0  0  0  0  0  0  0  0  0
    0.2065   -2.5066    0.0038 O   0  0  0  0  0  0  0  0  0  0  0  0
   -0.1280    2.8271    0.0014 O   0  0  0  0  0  0  0  0  0  0  0  0
   -2.3422   -2.7537   -0.0001 O   0  0  0  0  0  0  0  0  0  0  0  0
    4.9937   -0.9075   -0.0026 O   0  0  0  0  0  0  0  0  0  0  0  0
   -4.9097    1.2271   -0.0010 O   0  0  0  0  0  0  0  0  0  0  0  0
    1.2668    0.9371    0.0012 C   0  0  0  0  0  0  0  0  0  0  0  0
    1.3548   -0.4566    0.0006 C   0  0  0  0  0  0  0  0  0  0  0  0
   -1.1862   -0.6169    0.0008 C   0  0  0  0  0  0  0  0  0  0  0  0
   -1.2742    0.7768    0.0012 C   0  0  0  0  0  0  0  0  0  0  0  0
    0.1315   -1.2845    0.0012 C   0  0  0  0  0  0  0  0  0  0  0  0
   -0.0509    1.6047    0.0013 C   0  0  0  0  0  0  0  0  0  0  0  0
    2.4341    1.7103    0.0007 C   0  0  0  0  0  0  0  0  0  0  0  0
    2.6097   -1.0771   -0.0006 C   0  0  0  0  0  0  0  0  0  0  0  0
    3.6828    1.0880   -0.0008 C   0  0  0  0  0  0  0  0  0  0  0  0
   -2.3533   -1.3902   -0.0004 C   0  0  0  0  0  0  0  0  0  0  0  0
    3.7703   -0.3027   -0.0015 C   0  0  0  0  0  0  0  0  0  0  0  0
   -2.5292    1.3971    0.0006 C   0  0  0  0  0  0  0  0  0  0  0  0
   -3.6897    0.6228   -0.0007 C   0  0  0  0  0  0  0  0  0  0  0  0
   -3.6021   -0.7679   -0.0014 C   0  0  0  0  0  0  0  0  0  0  0  0
    4.9161    1.9302   -0.0007 C   0  0  0  0  0  0  0  0  0  0  0  0
   -6.0552    0.3768   -0.0023 C   0  0  0  0  0  0  0  0  0  0  0  0
    2.3748    2.7960    0.0013 H   0  0  0  0  0  0  0  0  0  0  0  0
   -2.6181    2.4807    0.0009 H   0  0  0  0  0  0  0  0  0  0  0  0
   -4.4763   -1.4106   -0.0022 H   0  0  0  0  0  0  0  0  0  0  0  0
    5.5180    1.7234   -0.8918 H   0  0  0  0  0  0  0  0  0  0  0  0
    4.6824    3.0002   -0.0033 H   0  0  0  0  0  0  0  0  0  0  0  0
    5.5154    1.7267    0.8930 H   0  0  0  0  0  0  0  0  0  0  0  0
    1.8932   -2.8767   -0.0049 H   0  0  0  0  0  0  0  0  0  0  0  0
   -3.2532   -3.0930   -0.0010 H   0  0  0  0  0  0  0  0  0  0  0  0
    4.8599   -1.8711   -0.0029 H   0  0  0  0  0  0  0  0  0  0  0  0
   -6.1058   -0.2301   -0.9128 H   0  0  0  0  0  0  0  0  0  0  0  0
   -6.9379    1.0249   -0.0025 H   0  0  0  0  0  0  0  0  0  0  0  0
   -6.1071   -0.2312    0.9073 H   0  0  0  0  0  0  0  0  0  0  0  0
  1 14  1  0  0  0  0
  1 29  1  0  0  0  0
  2 11  2  0  0  0  0
  3 12  2  0  0  0  0
  4 16  1  0  0  0  0
  4 30  1  0  0  0  0
  5 17  1  0  0  0  0
  5 31  1  0  0  0  0
  6 19  1  0  0  0  0
  6 22  1  0  0  0  0
  7  8  2  0  0  0  0
  7 12  1  0  0  0  0
  7 13  1  0  0  0  0
  8 11  1  0  0  0  0
  8 14  1  0  0  0  0
  9 10  2  0  0  0  0
  9 11  1  0  0  0  0
  9 16  1  0  0  0  0
 10 12  1  0  0  0  0
 10 18  1  0  0  0  0
 13 15  2  0  0  0  0
 13 23  1  0  0  0  0
 14 17  2  0  0  0  0
 15 17  1  0  0  0  0
 15 21  1  0  0  0  0
 16 20  2  0  0  0  0
 18 19  2  0  0  0  0
 18 24  1  0  0  0  0
 19 20  1  0  0  0  0
 20 25  1  0  0  0  0
 21 26  1  0  0  0  0
 21 27  1  0  0  0  0
 21 28  1  0  0  0  0
 22 32  1  0  0  0  0
 22 33  1  0  0  0  0
 22 34  1  0  0  0  0
M  END
> <PUBCHEM_COMPOUND_CID>
177458

> <PUBCHEM_CONFORMER_RMSD>
0.6

> <PUBCHEM_CONFORMER_DIVERSEORDER>
1

> <PUBCHEM_MMFF94_PARTIAL_CHARGES>
28
1 -0.53
10 0.09
11 0.4
12 0.4
13 -0.15
14 0.08
15 -0.14
16 0.08
17 0.08
18 -0.15
19 0.08
2 -0.57
20 -0.15
21 0.14
22 0.28
23 0.15
24 0.15
25 0.15
29 0.45
3 -0.57
30 0.45
31 0.45
4 -0.53
5 -0.53
6 -0.36
7 0.09
8 0.09
9 0.09

> <PUBCHEM_EFFECTIVE_ROTOR_COUNT>
1

> <PUBCHEM_PHARMACOPHORE_FEATURES>
9
1 1 donor
1 2 acceptor
1 3 acceptor
1 4 donor
1 5 donor
1 6 acceptor
6 7 8 13 14 15 17 rings
6 7 8 9 10 11 12 rings
6 9 10 16 18 19 20 rings

> <PUBCHEM_HEAVY_ATOM_COUNT>
22

> <PUBCHEM_ATOM_DEF_STEREO_COUNT>
0

> <PUBCHEM_ATOM_UDEF_STEREO_COUNT>
0

> <PUBCHEM_BOND_DEF_STEREO_COUNT>
0

> <PUBCHEM_BOND_UDEF_STEREO_COUNT>
0

> <PUBCHEM_ISOTOPIC_ATOM_COUNT>
0

> <PUBCHEM_COMPONENT_COUNT>
1

> <PUBCHEM_CACTVS_TAUTO_COUNT>
219

> <PUBCHEM_CONFORMER_ID>
0002B53200000001

> <PUBCHEM_MMFF94_ENERGY>
77.7266

> <PUBCHEM_FEATURE_SELFOVERLAP>
45.72

> <PUBCHEM_SHAPE_FINGERPRINT>
10411042 1 17762056532333174186
10616163 171 18339364196304574342
10906281 52 18270981084607057997
10967382 1 18410573963718864642
11132069 177 18410007762543915088
11471102 20 18411135831404006348
11578080 2 17058352919993304115
12011746 2 18411703153544256581
12236239 1 17918274242927848257
12403814 3 17748821921696747309
12788726 201 17632025160606586817
12838862 33 18338497699553488272
13140716 1 18410006650247696874
138480 1 17689997834588624611
13862211 1 18410851036755114471
14790565 3 18339085878445779041
15099037 51 18410573977046839357
15196674 1 18410856594015391174
15442244 35 18267021644398402386
15536298 74 18342176674392410996
16945 1 18194402191091226434
1813 80 17022904553339154460
19141452 34 18412544336227754063
19591789 44 18265896848113466925
200 152 17988921189185170669
20642791 178 17971200471612487964
20645477 70 18342458101676264223
21267235 1 18339088102837359502
21279426 13 18122906430357596789
21421861 104 17969210162640214978
2334 1 18338799021542080930
23402539 116 18271800241806595062
23463225 33 18409167709953696436
23558518 356 17682960255806017889
23559900 14 18341893013573031664
2748010 2 18410857684979314990
3004659 81 18333452024098875796
335352 9 18410856543008715902
34934 24 18411133666677081634
350125 39 18337671923993633380
3545911 37 18410294717809198580
3680242 22 18263642866208391722
474 4 17749394827379092284
495365 180 17417799682425837792
5104073 3 18410009974668227738
59755656 215 18338803321253010398
69090 78 18411697677930471791
7832392 63 18340201989736518999
9709674 26 18412549816411338670
9981440 41 17254836897718444897

> <PUBCHEM_SHAPE_MULTIPOLES>
417.53
10
2.65
0.59
3.71
0.6
0
-2.27
-0.01
-0.69
0
0
-0.02
0

> <PUBCHEM_SHAPE_SELFOVERLAP>
941.016

> <PUBCHEM_SHAPE_VOLUME>
219

> <PUBCHEM_COORDINATE_TYPE>
2
5
10

$$$$
