24757938
  -OEChem-10062122013D

 56 60  0     0  0  0  0  0  0999 V2000
    8.3613   -4.3855    0.5739 Cl  0  0  0  0  0  0  0  0  0  0  0  0
   -2.5400    1.7622   -0.6091 O   0  0  0  0  0  0  0  0  0  0  0  0
   -5.2093   -2.2443   -2.2488 O   0  0  0  0  0  0  0  0  0  0  0  0
   -6.6452   -3.1229   -0.0376 O   0  0  0  0  0  0  0  0  0  0  0  0
    3.5226    0.3385    1.6138 O   0  0  0  0  0  0  0  0  0  0  0  0
   -4.7524    0.3356    2.6208 N   0  0  0  0  0  0  0  0  0  0  0  0
    4.7316    0.1996   -0.3923 N   0  0  0  0  0  0  0  0  0  0  0  0
    1.6087    1.8276   -0.1956 C   0  0  0  0  0  0  0  0  0  0  0  0
    0.9325    2.9541   -0.7216 C   0  0  0  0  0  0  0  0  0  0  0  0
    3.0063    1.8656   -0.0633 C   0  0  0  0  0  0  0  0  0  0  0  0
   -1.1857    1.7837   -0.4734 C   0  0  0  0  0  0  0  0  0  0  0  0
   -4.1265    0.1591    0.3004 C   0  0  0  0  0  0  0  0  0  0  0  0
   -0.4652    2.9162   -0.8541 C   0  0  0  0  0  0  0  0  0  0  0  0
    0.8674    0.6963    0.1824 C   0  0  0  0  0  0  0  0  0  0  0  0
   -3.2849    1.2698    0.4493 C   0  0  0  0  0  0  0  0  0  0  0  0
    1.6738    4.0854   -1.0998 C   0  0  0  0  0  0  0  0  0  0  0  0
   -0.5207    0.6760    0.0438 C   0  0  0  0  0  0  0  0  0  0  0  0
   -4.8517   -0.2804    1.4277 C   0  0  0  0  0  0  0  0  0  0  0  0
    3.7269    2.9979   -0.4441 C   0  0  0  0  0  0  0  0  0  0  0  0
   -4.2542   -0.5079   -0.9298 C   0  0  0  0  0  0  0  0  0  0  0  0
    3.0619    4.1057   -0.9613 C   0  0  0  0  0  0  0  0  0  0  0  0
    3.7735    0.7437    0.4705 C   0  0  0  0  0  0  0  0  0  0  0  0
   -5.0974   -1.6088   -1.0499 C   0  0  0  0  0  0  0  0  0  0  0  0
   -5.6875   -1.3838    1.2793 C   0  0  0  0  0  0  0  0  0  0  0  0
   -5.8148   -2.0471    0.0563 C   0  0  0  0  0  0  0  0  0  0  0  0
   -3.1806    1.9066    1.6774 C   0  0  0  0  0  0  0  0  0  0  0  0
   -3.9291    1.4042    2.7224 C   0  0  0  0  0  0  0  0  0  0  0  0
    5.5985   -0.8967   -0.1617 C   0  0  0  0  0  0  0  0  0  0  0  0
    6.4959   -1.2964   -1.1519 C   0  0  0  0  0  0  0  0  0  0  0  0
    5.5553   -1.5759    1.0559 C   0  0  0  0  0  0  0  0  0  0  0  0
   -4.4371   -1.7278   -3.3315 C   0  0  0  0  0  0  0  0  0  0  0  0
    7.3502   -2.3755   -0.9245 C   0  0  0  0  0  0  0  0  0  0  0  0
    6.4094   -2.6549    1.2832 C   0  0  0  0  0  0  0  0  0  0  0  0
   -8.0004   -2.8656   -0.4002 C   0  0  0  0  0  0  0  0  0  0  0  0
    7.3070   -3.0546    0.2932 C   0  0  0  0  0  0  0  0  0  0  0  0
   -1.0006    3.7742   -1.2567 H   0  0  0  0  0  0  0  0  0  0  0  0
    1.3388   -0.2017    0.5717 H   0  0  0  0  0  0  0  0  0  0  0  0
    1.1750    4.9628   -1.5061 H   0  0  0  0  0  0  0  0  0  0  0  0
   -1.0536   -0.2276    0.3274 H   0  0  0  0  0  0  0  0  0  0  0  0
    4.8083    3.0376   -0.3379 H   0  0  0  0  0  0  0  0  0  0  0  0
   -3.6740   -0.1279   -1.7641 H   0  0  0  0  0  0  0  0  0  0  0  0
    3.6231    4.9877   -1.2560 H   0  0  0  0  0  0  0  0  0  0  0  0
   -6.2566   -1.7419    2.1360 H   0  0  0  0  0  0  0  0  0  0  0  0
   -2.5481    2.7747    1.8261 H   0  0  0  0  0  0  0  0  0  0  0  0
   -3.8901    1.8625    3.7051 H   0  0  0  0  0  0  0  0  0  0  0  0
    4.8241    0.6277   -1.3114 H   0  0  0  0  0  0  0  0  0  0  0  0
    6.5399   -0.7755   -2.1050 H   0  0  0  0  0  0  0  0  0  0  0  0
    4.8893   -1.3267    1.8696 H   0  0  0  0  0  0  0  0  0  0  0  0
    8.0445   -2.6759   -1.7050 H   0  0  0  0  0  0  0  0  0  0  0  0
    6.3657   -3.1758    2.2365 H   0  0  0  0  0  0  0  0  0  0  0  0
   -4.7388   -0.7075   -3.5922 H   0  0  0  0  0  0  0  0  0  0  0  0
   -3.3624   -1.8097   -3.1364 H   0  0  0  0  0  0  0  0  0  0  0  0
   -4.6491   -2.3536   -4.2048 H   0  0  0  0  0  0  0  0  0  0  0  0
   -8.4826   -2.2276    0.3472 H   0  0  0  0  0  0  0  0  0  0  0  0
   -8.0528   -2.3946   -1.3868 H   0  0  0  0  0  0  0  0  0  0  0  0
   -8.5316   -3.8205   -0.4400 H   0  0  0  0  0  0  0  0  0  0  0  0
  1 35  1  0  0  0  0
  2 11  1  0  0  0  0
  2 15  1  0  0  0  0
  3 23  1  0  0  0  0
  3 31  1  0  0  0  0
  4 25  1  0  0  0  0
  4 34  1  0  0  0  0
  5 22  2  0  0  0  0
  6 18  2  0  0  0  0
  6 27  1  0  0  0  0
  7 22  1  0  0  0  0
  7 28  1  0  0  0  0
  7 46  1  0  0  0  0
  8  9  2  0  0  0  0
  8 10  1  0  0  0  0
  8 14  1  0  0  0  0
  9 13  1  0  0  0  0
  9 16  1  0  0  0  0
 10 19  2  0  0  0  0
 10 22  1  0  0  0  0
 11 13  2  0  0  0  0
 11 17  1  0  0  0  0
 12 15  2  0  0  0  0
 12 18  1  0  0  0  0
 12 20  1  0  0  0  0
 13 36  1  0  0  0  0
 14 17  2  0  0  0  0
 14 37  1  0  0  0  0
 15 26  1  0  0  0  0
 16 21  2  0  0  0  0
 16 38  1  0  0  0  0
 17 39  1  0  0  0  0
 18 24  1  0  0  0  0
 19 21  1  0  0  0  0
 19 40  1  0  0  0  0
 20 23  2  0  0  0  0
 20 41  1  0  0  0  0
 21 42  1  0  0  0  0
 23 25  1  0  0  0  0
 24 25  2  0  0  0  0
 24 43  1  0  0  0  0
 26 27  2  0  0  0  0
 26 44  1  0  0  0  0
 27 45  1  0  0  0  0
 28 29  2  0  0  0  0
 28 30  1  0  0  0  0
 29 32  1  0  0  0  0
 29 47  1  0  0  0  0
 30 33  2  0  0  0  0
 30 48  1  0  0  0  0
 31 51  1  0  0  0  0
 31 52  1  0  0  0  0
 31 53  1  0  0  0  0
 32 35  2  0  0  0  0
 32 49  1  0  0  0  0
 33 35  1  0  0  0  0
 33 50  1  0  0  0  0
 34 54  1  0  0  0  0
 34 55  1  0  0  0  0
 34 56  1  0  0  0  0
M  END
> <PUBCHEM_COMPOUND_CID>
24757938

> <PUBCHEM_CONFORMER_RMSD>
1

> <PUBCHEM_CONFORMER_DIVERSEORDER>
5
39
20
56
58
15
62
33
38
48
64
17
60
44
28
18
43
67
63
40
31
19
51
8
55
61
24
59
36
23
29
26
16
66
13
53
32
35
50
65
52
9
46
21
4
11
2
47
49
27
37
6
45
41
22
25
1
42
12
7
3
30
14
34
10
54
57

> <PUBCHEM_MMFF94_PARTIAL_CHARGES>
47
1 -0.18
10 0.09
11 0.08
13 -0.15
14 -0.15
15 0.08
16 -0.15
17 -0.15
18 0.31
19 -0.15
2 -0.17
20 -0.15
21 -0.15
22 0.54
23 0.08
24 -0.15
25 0.08
26 -0.15
27 0.16
28 0.12
29 -0.15
3 -0.36
30 -0.15
31 0.28
32 -0.15
33 -0.15
34 0.28
35 0.18
36 0.15
37 0.15
38 0.15
39 0.15
4 -0.36
40 0.15
41 0.15
42 0.15
43 0.15
44 0.15
45 0.15
46 0.37
47 0.15
48 0.15
49 0.15
5 -0.57
50 0.15
6 -0.62
7 -0.55

> <PUBCHEM_EFFECTIVE_ROTOR_COUNT>
7

> <PUBCHEM_PHARMACOPHORE_FEATURES>
11
1 2 acceptor
1 3 acceptor
1 4 acceptor
1 5 acceptor
1 6 acceptor
1 7 donor
6 12 18 20 23 24 25 rings
6 28 29 30 32 33 35 rings
6 6 12 15 18 26 27 rings
6 8 9 10 16 19 21 rings
6 8 9 11 13 14 17 rings

> <PUBCHEM_HEAVY_ATOM_COUNT>
35

> <PUBCHEM_ATOM_DEF_STEREO_COUNT>
0

> <PUBCHEM_ATOM_UDEF_STEREO_COUNT>
0

> <PUBCHEM_BOND_DEF_STEREO_COUNT>
0

> <PUBCHEM_BOND_UDEF_STEREO_COUNT>
0

> <PUBCHEM_ISOTOPIC_ATOM_COUNT>
0

> <PUBCHEM_COMPONENT_COUNT>
1

> <PUBCHEM_CACTVS_TAUTO_COUNT>
2

> <PUBCHEM_CONFORMER_ID>
0179C6B200000005

> <PUBCHEM_MMFF94_ENERGY>
146.4614

> <PUBCHEM_FEATURE_SELFOVERLAP>
55.887

> <PUBCHEM_SHAPE_FINGERPRINT>
10319926 262 16702034057799268141
10622 236 18270675489099203589
11059845 2 17629219125196424209
11062273 23 17761768474015695968
11227688 84 18115580431705525474
11621639 307 8718546056387480883
117089 54 18336550430581266482
11828042 74 17970062249496532821
11991303 11 17244129436996589429
12120059 9 18188751874504553746
12422481 6 17632297843937573838
13540713 4 18261939775065924796
1361 4 18193276523281910095
1361 87 17095537222123355497
13690498 29 17749673974035603564
13782708 43 18340764845981200066
14068700 675 18342463604136188088
14289278 72 16988294126937070340
14950920 106 17418369194709778336
15021287 119 18412266120925531574
15064981 194 12468361259032037175
15131766 46 9511464399081649843
15320294 125 17846781849506335223
15361156 5 17895205358900121013
16067689 391 17679595441563054658
16067689 68 17915749669657065202
16096371 109 11815629540972567540
16994733 274 11819284386168463570
17492 89 18408603677669244188
19246450 95 17979655437258437425
19301676 85 18261113040784247555
19303781 99 18338783581478096070
19841028 212 18338234989864036995
20028762 73 18413111679590360338
20775438 99 18043529636985826018
208703 8 18408035225762249563
21814621 53 15697173820134205958
23522609 53 18050042993577492572
23569914 152 17755544232672559245
23569943 247 18336549304888398482
24983565 74 18195238047816220119
25025965 108 17972867070038846626
25269216 80 13407085833958338945
255183 451 18334577953917918316
32027 91 18333731338227112160
3504750 166 18059852853309319087
393628 194 10015281539061574394
406291 66 18413105078320877407
44880568 143 16661192785076004125
474113 269 18200868574490045927
5104073 3 17632580469681176720
5718773 13 18408884019095919686
6058803 2 18268452237544082809
6201460 15 18054497269072585798
636775 72 9221784892902379830
6691757 9 17915186707119909841
6700243 42 17839487500890521780
6712543 237 16128375991069076431
7970288 3 18334854962255040066
9555976 147 17631749174698054129

> <PUBCHEM_SHAPE_MULTIPOLES>
688.71
23.13
5.37
2.04
14.84
0.79
-0.12
-35.74
1
6.2
-1.46
-3.63
-0.5
-3.96

> <PUBCHEM_SHAPE_SELFOVERLAP>
1530.614

> <PUBCHEM_SHAPE_VOLUME>
368.5

> <PUBCHEM_COORDINATE_TYPE>
2
5
10

$$$$
