44364157
  -OEChem-10062122013D

 49 56  0     1  0  0  0  0  0999 V2000
    2.3017   -3.9758   -0.0252 O   0  0  0  0  0  0  0  0  0  0  0  0
   -2.3007   -3.9764   -0.0245 O   0  0  0  0  0  0  0  0  0  0  0  0
    0.0001    3.0496   -0.9236 N   0  0  0  0  0  0  0  0  0  0  0  0
    1.4772    1.4588   -0.0445 N   0  0  0  0  0  0  0  0  0  0  0  0
   -1.4775    1.4584   -0.0454 N   0  0  0  0  0  0  0  0  0  0  0  0
    0.0006   -4.3568   -0.0233 N   0  0  0  0  0  0  0  0  0  0  0  0
    1.1503    2.8726   -0.0378 C   0  0  2  0  0  0  0  0  0  0  0  0
   -1.1511    2.8725   -0.0392 C   0  0  1  0  0  0  0  0  0  0  0  0
    0.7586    3.3694    1.3498 C   0  0  0  0  0  0  0  0  0  0  0  0
   -0.7613    3.3700    1.3486 C   0  0  0  0  0  0  0  0  0  0  0  0
    0.7115    0.3247   -0.0358 C   0  0  0  0  0  0  0  0  0  0  0  0
   -0.7116    0.3245   -0.0360 C   0  0  0  0  0  0  0  0  0  0  0  0
    1.3348   -0.9839   -0.0285 C   0  0  0  0  0  0  0  0  0  0  0  0
   -1.3345   -0.9841   -0.0284 C   0  0  0  0  0  0  0  0  0  0  0  0
    2.7697    0.9276   -0.0084 C   0  0  0  0  0  0  0  0  0  0  0  0
   -2.7699    0.9269   -0.0093 C   0  0  0  0  0  0  0  0  0  0  0  0
    2.7206   -0.5010   -0.0131 C   0  0  0  0  0  0  0  0  0  0  0  0
   -2.7204   -0.5015   -0.0130 C   0  0  0  0  0  0  0  0  0  0  0  0
    0.0004    4.3822   -1.5319 C   0  0  0  0  0  0  0  0  0  0  0  0
    0.6908   -2.2162   -0.0303 C   0  0  0  0  0  0  0  0  0  0  0  0
   -0.6902   -2.2163   -0.0301 C   0  0  0  0  0  0  0  0  0  0  0  0
    4.0053    1.6073    0.0341 C   0  0  0  0  0  0  0  0  0  0  0  0
   -4.0056    1.6064    0.0325 C   0  0  0  0  0  0  0  0  0  0  0  0
    1.1474   -3.5979   -0.0259 C   0  0  0  0  0  0  0  0  0  0  0  0
   -1.1465   -3.5982   -0.0254 C   0  0  0  0  0  0  0  0  0  0  0  0
    3.9581   -1.1938    0.0086 C   0  0  0  0  0  0  0  0  0  0  0  0
   -3.9577   -1.1946    0.0097 C   0  0  0  0  0  0  0  0  0  0  0  0
    5.1945    0.8788    0.0569 C   0  0  0  0  0  0  0  0  0  0  0  0
   -5.1946    0.8778    0.0561 C   0  0  0  0  0  0  0  0  0  0  0  0
    5.1733   -0.5051    0.0411 C   0  0  0  0  0  0  0  0  0  0  0  0
   -5.1732   -0.5061    0.0421 C   0  0  0  0  0  0  0  0  0  0  0  0
    2.0278    3.4068   -0.4155 H   0  0  0  0  0  0  0  0  0  0  0  0
   -2.0284    3.4061   -0.4184 H   0  0  0  0  0  0  0  0  0  0  0  0
    1.1183    4.3937    1.5042 H   0  0  0  0  0  0  0  0  0  0  0  0
    1.1576    2.7493    2.1600 H   0  0  0  0  0  0  0  0  0  0  0  0
   -1.1622    2.7509    2.1586 H   0  0  0  0  0  0  0  0  0  0  0  0
   -1.1205    4.3947    1.5015 H   0  0  0  0  0  0  0  0  0  0  0  0
   -0.8774    4.5048   -2.1762 H   0  0  0  0  0  0  0  0  0  0  0  0
    0.8788    4.5048   -2.1752 H   0  0  0  0  0  0  0  0  0  0  0  0
    0.0000    5.1915   -0.7931 H   0  0  0  0  0  0  0  0  0  0  0  0
    4.0508    2.6922    0.0510 H   0  0  0  0  0  0  0  0  0  0  0  0
   -4.0513    2.6913    0.0483 H   0  0  0  0  0  0  0  0  0  0  0  0
    3.9879   -2.2777    0.0047 H   0  0  0  0  0  0  0  0  0  0  0  0
   -3.9873   -2.2785    0.0070 H   0  0  0  0  0  0  0  0  0  0  0  0
    0.0008   -5.3706   -0.0203 H   0  0  0  0  0  0  0  0  0  0  0  0
    6.1450    1.4046    0.0873 H   0  0  0  0  0  0  0  0  0  0  0  0
   -6.1453    1.4034    0.0861 H   0  0  0  0  0  0  0  0  0  0  0  0
    6.1062   -1.0618    0.0587 H   0  0  0  0  0  0  0  0  0  0  0  0
   -6.1060   -1.0631    0.0606 H   0  0  0  0  0  0  0  0  0  0  0  0
  1 24  2  0  0  0  0
  2 25  2  0  0  0  0
  3  7  1  0  0  0  0
  3  8  1  0  0  0  0
  3 19  1  0  0  0  0
  4  7  1  0  0  0  0
  4 11  1  0  0  0  0
  4 15  1  0  0  0  0
  5  8  1  0  0  0  0
  5 12  1  0  0  0  0
  5 16  1  0  0  0  0
  6 24  1  0  0  0  0
  6 25  1  0  0  0  0
  6 45  1  0  0  0  0
  7  9  1  0  0  0  0
  7 32  1  0  0  0  0
  8 10  1  0  0  0  0
  8 33  1  0  0  0  0
  9 10  1  0  0  0  0
  9 34  1  0  0  0  0
  9 35  1  0  0  0  0
 10 36  1  0  0  0  0
 10 37  1  0  0  0  0
 11 12  2  0  0  0  0
 11 13  1  0  0  0  0
 12 14  1  0  0  0  0
 13 17  1  0  0  0  0
 13 20  2  0  0  0  0
 14 18  1  0  0  0  0
 14 21  2  0  0  0  0
 15 17  1  0  0  0  0
 15 22  2  0  0  0  0
 16 18  1  0  0  0  0
 16 23  2  0  0  0  0
 17 26  2  0  0  0  0
 18 27  2  0  0  0  0
 19 38  1  0  0  0  0
 19 39  1  0  0  0  0
 19 40  1  0  0  0  0
 20 21  1  0  0  0  0
 20 24  1  0  0  0  0
 21 25  1  0  0  0  0
 22 28  1  0  0  0  0
 22 41  1  0  0  0  0
 23 29  1  0  0  0  0
 23 42  1  0  0  0  0
 26 30  1  0  0  0  0
 26 43  1  0  0  0  0
 27 31  1  0  0  0  0
 27 44  1  0  0  0  0
 28 30  2  0  0  0  0
 28 46  1  0  0  0  0
 29 31  2  0  0  0  0
 29 47  1  0  0  0  0
 30 48  1  0  0  0  0
 31 49  1  0  0  0  0
M  END
> <PUBCHEM_COMPOUND_CID>
44364157

> <PUBCHEM_CONFORMER_RMSD>
0.6

> <PUBCHEM_CONFORMER_DIVERSEORDER>
1

> <PUBCHEM_MMFF94_PARTIAL_CHARGES>
36
1 -0.57
11 -0.05
12 -0.05
13 -0.01
14 -0.01
15 -0.15
16 -0.15
19 0.27
2 -0.57
20 0.09
21 0.09
22 -0.15
23 -0.15
24 0.54
25 0.54
26 -0.15
27 -0.15
28 -0.15
29 -0.15
3 -0.81
30 -0.15
31 -0.15
4 -0.04
41 0.15
42 0.15
43 0.15
44 0.15
45 0.37
46 0.15
47 0.15
48 0.15
49 0.15
5 -0.04
6 -0.49
7 0.53
8 0.53

> <PUBCHEM_EFFECTIVE_ROTOR_COUNT>
0.8

> <PUBCHEM_PHARMACOPHORE_FEATURES>
14
1 1 acceptor
1 2 acceptor
1 3 cation
1 4 cation
1 5 cation
1 6 donor
5 3 7 8 9 10 rings
5 4 11 13 15 17 rings
5 5 12 14 16 18 rings
5 6 20 21 24 25 rings
6 11 12 13 14 20 21 rings
6 15 17 22 26 28 30 rings
6 16 18 23 27 29 31 rings
7 3 4 5 7 8 11 12 rings

> <PUBCHEM_HEAVY_ATOM_COUNT>
31

> <PUBCHEM_ATOM_DEF_STEREO_COUNT>
2

> <PUBCHEM_ATOM_UDEF_STEREO_COUNT>
0

> <PUBCHEM_BOND_DEF_STEREO_COUNT>
0

> <PUBCHEM_BOND_UDEF_STEREO_COUNT>
0

> <PUBCHEM_ISOTOPIC_ATOM_COUNT>
0

> <PUBCHEM_COMPONENT_COUNT>
1

> <PUBCHEM_CACTVS_TAUTO_COUNT>
2

> <PUBCHEM_CONFORMER_ID>
02A4F17D00000001

> <PUBCHEM_MMFF94_ENERGY>
127.5728

> <PUBCHEM_FEATURE_SELFOVERLAP>
72.955

> <PUBCHEM_SHAPE_FINGERPRINT>
10190108 129 17835278603852695177
10411042 1 17618223252951989782
10675989 125 17541650626858462669
10906281 52 18269294454770216860
10930396 42 18051376774269691888
10940486 97 17975133455001760180
10967382 1 18410856551113470319
1100329 8 18267867361775924409
11445158 3 17896607369817155205
11513181 2 17915457190810521151
11578080 2 16770693241968860650
12788726 201 18343311340522976144
12838862 33 18338778074897232369
13140716 1 18268709596172456786
13402501 40 18411136939399891737
138480 1 17329992391605415566
13911987 19 18335141998549800348
14178342 30 17546713215656676184
14223421 5 17977102362166723484
14466204 15 18338232781728529538
14790565 3 18410863161021075352
15042514 8 18409728500024234906
15927050 60 17764873889044663644
16728300 4 17535158096363670522
19591789 44 18410572902824980295
19930381 70 18266177240711030747
20028762 73 18129379479060680887
20600515 1 18340777034429018892
20642791 178 18262251013917531069
20642791 35 17980206283771789335
20739085 24 18192174649422154089
20775438 99 16905204251948318559
20905425 154 18053102822102844086
21033648 29 18272078440008602737
21421861 104 17901107421363740923
22113638 7 18337107972616357228
23559900 14 17763456618667048112
283562 15 18340770317210801064
3178227 256 18337123362322949139
335352 9 18410855503093704927
350125 39 18050570638592954082
3882209 13 16831179662110951606
392239 28 18341618057633684882
469060 322 18265344923167534952
484989 97 18121214548889166759
5486654 2 18411142437375022044
59755656 215 18339647733245577438

> <PUBCHEM_SHAPE_MULTIPOLES>
606.3
8.2
5.89
0.83
0
1.89
-0.02
0.03
-0.18
0
0.29
0
-0.84
0

> <PUBCHEM_SHAPE_SELFOVERLAP>
1431.436

> <PUBCHEM_SHAPE_VOLUME>
303.7

> <PUBCHEM_COORDINATE_TYPE>
2
5
10

$$$$
