68783839
  -OEChem-10062121563D

 43 46  0     1  0  0  0  0  0999 V2000
    2.4364   -3.7974   -0.3381 Br  0  0  0  0  0  0  0  0  0  0  0  0
    4.9207    0.4399    0.3561 O   0  0  0  0  0  0  0  0  0  0  0  0
    1.5473   -0.8180    0.0387 N   0  0  0  0  0  0  0  0  0  0  0  0
    3.6151   -0.5762    1.9552 N   0  0  0  0  0  0  0  0  0  0  0  0
   -0.7638   -1.1474   -0.0137 N   0  0  0  0  0  0  0  0  0  0  0  0
   -1.6678   -3.3627   -0.3011 N   0  0  0  0  0  0  0  0  0  0  0  0
   -3.0821   -1.5048   -0.0696 N   0  0  0  0  0  0  0  0  0  0  0  0
   -3.7648    1.9611    0.3710 N   0  0  0  0  0  0  0  0  0  0  0  0
   -5.0405    1.5423    0.3111 N   0  0  0  0  0  0  0  0  0  0  0  0
    1.1685    1.3143   -1.1394 C   0  0  2  0  0  0  0  0  0  0  0  0
    3.0458    2.2919   -0.4120 C   0  0  1  0  0  0  0  0  0  0  0  0
    1.4104    0.6090    0.2206 C   0  0  2  0  0  0  0  0  0  0  0  0
    2.7189    1.2949    0.7301 C   0  0  1  0  0  0  0  0  0  0  0  0
    2.5994    1.5105   -1.6538 C   0  0  0  0  0  0  0  0  0  0  0  0
    0.8374    2.7616   -0.8499 C   0  0  0  0  0  0  0  0  0  0  0  0
    1.9633    3.3480   -0.4149 C   0  0  0  0  0  0  0  0  0  0  0  0
    3.8671    0.3632    0.9834 C   0  0  0  0  0  0  0  0  0  0  0  0
    0.4726   -1.6840   -0.0768 C   0  0  0  0  0  0  0  0  0  0  0  0
    0.7159   -3.0315   -0.2480 C   0  0  0  0  0  0  0  0  0  0  0  0
   -1.7733   -2.0309   -0.1311 C   0  0  0  0  0  0  0  0  0  0  0  0
   -0.4037   -3.8313   -0.3553 C   0  0  0  0  0  0  0  0  0  0  0  0
   -3.5762   -0.1975    0.0954 C   0  0  0  0  0  0  0  0  0  0  0  0
   -2.8490    0.9580    0.2470 C   0  0  0  0  0  0  0  0  0  0  0  0
   -4.9189    0.2229    0.1426 C   0  0  0  0  0  0  0  0  0  0  0  0
   -3.4790    3.3642    0.5524 C   0  0  0  0  0  0  0  0  0  0  0  0
    0.4947    0.8248   -1.8442 H   0  0  0  0  0  0  0  0  0  0  0  0
    4.0611    2.6882   -0.4629 H   0  0  0  0  0  0  0  0  0  0  0  0
    0.6051    0.8246    0.9353 H   0  0  0  0  0  0  0  0  0  0  0  0
    2.5248    1.8379    1.6654 H   0  0  0  0  0  0  0  0  0  0  0  0
    2.6523    2.0978   -2.5801 H   0  0  0  0  0  0  0  0  0  0  0  0
    3.1439    0.5727   -1.8049 H   0  0  0  0  0  0  0  0  0  0  0  0
   -0.1357    3.2194   -0.9264 H   0  0  0  0  0  0  0  0  0  0  0  0
    2.0658    4.3660   -0.0750 H   0  0  0  0  0  0  0  0  0  0  0  0
    2.4204   -1.1566   -0.3540 H   0  0  0  0  0  0  0  0  0  0  0  0
    2.7319   -0.6174    2.4537 H   0  0  0  0  0  0  0  0  0  0  0  0
    4.3146   -1.2657    2.2090 H   0  0  0  0  0  0  0  0  0  0  0  0
   -0.3287   -4.9057   -0.4924 H   0  0  0  0  0  0  0  0  0  0  0  0
   -3.7704   -2.2487   -0.1681 H   0  0  0  0  0  0  0  0  0  0  0  0
   -1.7898    1.1648    0.2791 H   0  0  0  0  0  0  0  0  0  0  0  0
   -5.8156   -0.3750    0.0616 H   0  0  0  0  0  0  0  0  0  0  0  0
   -3.8752    3.9090   -0.3081 H   0  0  0  0  0  0  0  0  0  0  0  0
   -3.9610    3.6978    1.4747 H   0  0  0  0  0  0  0  0  0  0  0  0
   -2.3985    3.5110    0.6230 H   0  0  0  0  0  0  0  0  0  0  0  0
  1 19  1  0  0  0  0
  2 17  2  0  0  0  0
  3 12  1  0  0  0  0
  3 18  1  0  0  0  0
  3 34  1  0  0  0  0
  4 17  1  0  0  0  0
  4 35  1  0  0  0  0
  4 36  1  0  0  0  0
  5 18  2  0  0  0  0
  5 20  1  0  0  0  0
  6 20  2  0  0  0  0
  6 21  1  0  0  0  0
  7 20  1  0  0  0  0
  7 22  1  0  0  0  0
  7 38  1  0  0  0  0
  8  9  1  0  0  0  0
  8 23  1  0  0  0  0
  8 25  1  0  0  0  0
  9 24  2  0  0  0  0
 10 12  1  0  0  0  0
 10 14  1  0  0  0  0
 10 15  1  0  0  0  0
 10 26  1  0  0  0  0
 11 13  1  0  0  0  0
 11 14  1  0  0  0  0
 11 16  1  0  0  0  0
 11 27  1  0  0  0  0
 12 13  1  0  0  0  0
 12 28  1  0  0  0  0
 13 17  1  0  0  0  0
 13 29  1  0  0  0  0
 14 30  1  0  0  0  0
 14 31  1  0  0  0  0
 15 16  2  0  0  0  0
 15 32  1  0  0  0  0
 16 33  1  0  0  0  0
 18 19  1  0  0  0  0
 19 21  2  0  0  0  0
 21 37  1  0  0  0  0
 22 23  2  0  0  0  0
 22 24  1  0  0  0  0
 23 39  1  0  0  0  0
 24 40  1  0  0  0  0
 25 41  1  0  0  0  0
 25 42  1  0  0  0  0
 25 43  1  0  0  0  0
M  END
> <PUBCHEM_COMPOUND_CID>
68783839

> <PUBCHEM_CONFORMER_RMSD>
0.8

> <PUBCHEM_CONFORMER_DIVERSEORDER>
1
8
54
32
19
45
58
33
65
68
51
62
60
52
40
25
50
7
55
69
59
23
17
10
31
53
36
49
13
6
35
21
14
38
70
5
43
61
39
12
11
48
63
30
15
28
29
56
64
41
24
3
9
22
44
16
42
20
2
27
46
67
47
66
26
18
57
37
34
4

> <PUBCHEM_MMFF94_PARTIAL_CHARGES>
33
1 -0.11
10 0.14
11 0.14
12 0.37
13 0.06
15 -0.29
16 -0.29
17 0.57
18 0.41
19 0.11
2 -0.57
20 0.72
21 0.16
22 0.08
23 -0.3
24 0.14
25 0.26
3 -0.87
32 0.15
33 0.15
34 0.4
35 0.37
36 0.37
37 0.15
38 0.4
39 0.15
4 -0.8
40 0.15
5 -0.62
6 -0.62
7 -0.58
8 0.31
9 -0.71

> <PUBCHEM_EFFECTIVE_ROTOR_COUNT>
5.6

> <PUBCHEM_PHARMACOPHORE_FEATURES>
10
1 1 hydrophobe
1 2 acceptor
1 3 donor
1 4 donor
1 7 donor
1 9 acceptor
4 5 6 7 20 cation
5 8 9 22 23 24 rings
6 5 6 18 19 20 21 rings
7 10 11 12 13 14 15 16 rings

> <PUBCHEM_HEAVY_ATOM_COUNT>
25

> <PUBCHEM_ATOM_DEF_STEREO_COUNT>
4

> <PUBCHEM_ATOM_UDEF_STEREO_COUNT>
0

> <PUBCHEM_BOND_DEF_STEREO_COUNT>
0

> <PUBCHEM_BOND_UDEF_STEREO_COUNT>
0

> <PUBCHEM_ISOTOPIC_ATOM_COUNT>
0

> <PUBCHEM_COMPONENT_COUNT>
1

> <PUBCHEM_CACTVS_TAUTO_COUNT>
18

> <PUBCHEM_CONFORMER_ID>
04198EDF00000001

> <PUBCHEM_MMFF94_ENERGY>
88.1149

> <PUBCHEM_FEATURE_SELFOVERLAP>
50.749

> <PUBCHEM_SHAPE_FINGERPRINT>
11370993 70 18412259536930856769
11513181 2 18059569131522089390
11582403 64 16844140502903476266
11725454 13 16916204702479766858
12107183 9 18336817642013142522
12173636 292 17979635959169571567
12403260 363 18267293421128215511
12422481 6 18049415099327922762
12788726 201 17762904659519327735
12978246 48 18409733980296957785
13140716 1 18263923422062041971
138480 1 17977953384541071095
13965767 371 18261660554234049664
14117953 113 18335978671713069357
14466204 15 18411696591251284560
14790565 3 18336553793683012788
15256400 18 18411699885274617064
15420108 30 18198886042301325015
15442244 35 18119804957458908628
1601671 61 18408322168801487938
16110190 28 18263342786425222690
17093844 170 18341336596190741926
17492 89 17975975681088224610
17818456 19 18338791338003688194
19591789 44 18050569539139244822
20715895 44 18263634075386743541
20739085 24 18191586346297389522
20775438 99 15682765132601341679
21860390 5 17911240521010829295
21864079 5 18193563487057552445
22113638 7 18337105782605555557
22749437 52 18411702088909701849
23419403 2 16835120934069596410
352729 6 18266744773526568623
474 4 18409164398950837491
513532 50 17988368052831088382
5895379 119 18195807594975466904
6287921 2 18197783206948584527
6328613 192 18263365949062997868
6371009 1 18339346548785160429
7064713 232 18340758278164262961
7097593 13 18115570669382193874
7164475 11 17907857654080874054
9981440 41 18337953506080854459

> <PUBCHEM_SHAPE_MULTIPOLES>
479.69
8.49
5.27
1.05
6.95
3.04
0.06
-4.69
2.19
-0.73
-1.01
-1.08
-0.34
-0.89

> <PUBCHEM_SHAPE_SELFOVERLAP>
1039.44

> <PUBCHEM_SHAPE_VOLUME>
268.2

> <PUBCHEM_COORDINATE_TYPE>
2
5
10

$$$$
