49830931
  -OEChem-10062121533D

 49 50  0     0  0  0  0  0  0999 V2000
    3.5791   -1.6480   -0.2312 O   0  0  0  0  0  0  0  0  0  0  0  0
   -3.5910    2.3837   -0.6330 O   0  0  0  0  0  0  0  0  0  0  0  0
   -4.3913   -2.7198    1.2928 O   0  0  0  0  0  0  0  0  0  0  0  0
   -0.5221    2.4471   -0.6890 O   0  0  0  0  0  0  0  0  0  0  0  0
   -0.6928    0.2108   -1.2798 N   0  0  0  0  0  0  0  0  0  0  0  0
    1.8385   -0.1536   -0.4762 N   0  0  0  0  0  0  0  0  0  0  0  0
    4.1869    2.9518    1.1205 N   0  0  0  0  0  0  0  0  0  0  0  0
    6.3628    0.0639    1.1749 N   0  0  0  0  0  0  0  0  0  0  0  0
   -3.0502    0.0490   -0.6872 C   0  0  0  0  0  0  0  0  0  0  0  0
   -2.0459    0.2671   -1.7703 C   0  0  0  0  0  0  0  0  0  0  0  0
    2.6743   -2.5954   -0.7849 C   0  0  0  0  0  0  0  0  0  0  0  0
   -3.7790    1.1178   -0.1655 C   0  0  0  0  0  0  0  0  0  0  0  0
   -3.2558   -1.2406   -0.1970 C   0  0  0  0  0  0  0  0  0  0  0  0
    1.3673    1.1053   -0.3314 C   0  0  0  0  0  0  0  0  0  0  0  0
    3.1130   -0.3672   -0.0791 C   0  0  0  0  0  0  0  0  0  0  0  0
   -0.0344    1.3230   -0.7725 C   0  0  0  0  0  0  0  0  0  0  0  0
   -4.1903   -1.4615    0.8147 C   0  0  0  0  0  0  0  0  0  0  0  0
   -4.7134    0.8970    0.8464 C   0  0  0  0  0  0  0  0  0  0  0  0
    3.9342    0.6137    0.4533 C   0  0  0  0  0  0  0  0  0  0  0  0
    3.4139    1.8963    0.5867 C   0  0  0  0  0  0  0  0  0  0  0  0
    2.1068    2.1551    0.1891 C   0  0  0  0  0  0  0  0  0  0  0  0
   -4.9190   -0.3926    1.3364 C   0  0  0  0  0  0  0  0  0  0  0  0
    1.8669   -3.2316    0.3364 C   0  0  0  0  0  0  0  0  0  0  0  0
    3.4569   -3.6310   -1.5778 C   0  0  0  0  0  0  0  0  0  0  0  0
   -4.3787    3.4158   -0.0425 C   0  0  0  0  0  0  0  0  0  0  0  0
    5.2756    0.3101    0.8519 C   0  0  0  0  0  0  0  0  0  0  0  0
   -3.6123   -3.7661    0.7143 C   0  0  0  0  0  0  0  0  0  0  0  0
   -2.1988    1.2205   -2.2879 H   0  0  0  0  0  0  0  0  0  0  0  0
   -2.1483   -0.5131   -2.5341 H   0  0  0  0  0  0  0  0  0  0  0  0
    1.9909   -2.1423   -1.5145 H   0  0  0  0  0  0  0  0  0  0  0  0
   -0.2109   -0.6835   -1.3040 H   0  0  0  0  0  0  0  0  0  0  0  0
   -2.6619   -2.0345   -0.6381 H   0  0  0  0  0  0  0  0  0  0  0  0
   -5.3155    1.6768    1.2997 H   0  0  0  0  0  0  0  0  0  0  0  0
    1.6888    3.1521    0.2884 H   0  0  0  0  0  0  0  0  0  0  0  0
   -5.6481   -0.5598    2.1247 H   0  0  0  0  0  0  0  0  0  0  0  0
    1.1816   -3.9917   -0.0516 H   0  0  0  0  0  0  0  0  0  0  0  0
    1.2769   -2.4846    0.8772 H   0  0  0  0  0  0  0  0  0  0  0  0
    2.5276   -3.7024    1.0728 H   0  0  0  0  0  0  0  0  0  0  0  0
    4.0284   -3.1474   -2.3775 H   0  0  0  0  0  0  0  0  0  0  0  0
    2.7942   -4.3785   -2.0244 H   0  0  0  0  0  0  0  0  0  0  0  0
    4.1839   -4.1443   -0.9387 H   0  0  0  0  0  0  0  0  0  0  0  0
    5.1401    2.7972    1.4189 H   0  0  0  0  0  0  0  0  0  0  0  0
    3.7831    3.8753    1.2063 H   0  0  0  0  0  0  0  0  0  0  0  0
   -5.4474    3.2659   -0.2301 H   0  0  0  0  0  0  0  0  0  0  0  0
   -4.1538    3.5361    1.0227 H   0  0  0  0  0  0  0  0  0  0  0  0
   -4.0992    4.3540   -0.5332 H   0  0  0  0  0  0  0  0  0  0  0  0
   -3.8351   -3.8924   -0.3506 H   0  0  0  0  0  0  0  0  0  0  0  0
   -2.5426   -3.6225    0.9014 H   0  0  0  0  0  0  0  0  0  0  0  0
   -3.9011   -4.6971    1.2132 H   0  0  0  0  0  0  0  0  0  0  0  0
  1 11  1  0  0  0  0
  1 15  1  0  0  0  0
  2 12  1  0  0  0  0
  2 25  1  0  0  0  0
  3 17  1  0  0  0  0
  3 27  1  0  0  0  0
  4 16  2  0  0  0  0
  5 10  1  0  0  0  0
  5 16  1  0  0  0  0
  5 31  1  0  0  0  0
  6 14  2  0  0  0  0
  6 15  1  0  0  0  0
  7 20  1  0  0  0  0
  7 42  1  0  0  0  0
  7 43  1  0  0  0  0
  8 26  3  0  0  0  0
  9 10  1  0  0  0  0
  9 12  2  0  0  0  0
  9 13  1  0  0  0  0
 10 28  1  0  0  0  0
 10 29  1  0  0  0  0
 11 23  1  0  0  0  0
 11 24  1  0  0  0  0
 11 30  1  0  0  0  0
 12 18  1  0  0  0  0
 13 17  2  0  0  0  0
 13 32  1  0  0  0  0
 14 16  1  0  0  0  0
 14 21  1  0  0  0  0
 15 19  2  0  0  0  0
 17 22  1  0  0  0  0
 18 22  2  0  0  0  0
 18 33  1  0  0  0  0
 19 20  1  0  0  0  0
 19 26  1  0  0  0  0
 20 21  2  0  0  0  0
 21 34  1  0  0  0  0
 22 35  1  0  0  0  0
 23 36  1  0  0  0  0
 23 37  1  0  0  0  0
 23 38  1  0  0  0  0
 24 39  1  0  0  0  0
 24 40  1  0  0  0  0
 24 41  1  0  0  0  0
 25 44  1  0  0  0  0
 25 45  1  0  0  0  0
 25 46  1  0  0  0  0
 27 47  1  0  0  0  0
 27 48  1  0  0  0  0
 27 49  1  0  0  0  0
M  END
> <PUBCHEM_COMPOUND_CID>
49830931

> <PUBCHEM_CONFORMER_RMSD>
1

> <PUBCHEM_CONFORMER_DIVERSEORDER>
3
70
15
89
80
67
64
36
34
45
72
12
84
26
68
79
27
10
1
74
52
60
87
73
40
76
6
25
82
17
61
53
41
14
55
50
83
65
63
88
18
57
20
75
81
66
2
9
28
11
54
39
85
69
56
30
51
31
35
47
32
58
4
7
59
33
43
86
5
21
77
62
49
44
48
38
46
16
24
19
42
71
13
78
8
22
23
29
37

> <PUBCHEM_MMFF94_PARTIAL_CHARGES>
32
1 -0.36
10 0.44
11 0.28
12 0.08
13 -0.15
14 0.4
15 0.39
16 0.54
17 0.08
18 -0.15
19 0.07
2 -0.36
20 0.1
21 -0.15
22 -0.15
25 0.28
26 0.48
27 0.28
3 -0.36
31 0.37
32 0.15
33 0.15
34 0.15
35 0.15
4 -0.57
42 0.4
43 0.4
5 -0.73
6 -0.62
7 -0.9
8 -0.56
9 -0.14

> <PUBCHEM_EFFECTIVE_ROTOR_COUNT>
8

> <PUBCHEM_PHARMACOPHORE_FEATURES>
12
1 1 acceptor
1 2 acceptor
1 3 acceptor
1 4 acceptor
1 5 donor
1 6 acceptor
1 7 cation
1 7 donor
1 8 acceptor
3 11 23 24 hydrophobe
6 6 14 15 19 20 21 rings
6 9 12 13 17 18 22 rings

> <PUBCHEM_HEAVY_ATOM_COUNT>
27

> <PUBCHEM_ATOM_DEF_STEREO_COUNT>
0

> <PUBCHEM_ATOM_UDEF_STEREO_COUNT>
0

> <PUBCHEM_BOND_DEF_STEREO_COUNT>
0

> <PUBCHEM_BOND_UDEF_STEREO_COUNT>
0

> <PUBCHEM_ISOTOPIC_ATOM_COUNT>
0

> <PUBCHEM_COMPONENT_COUNT>
1

> <PUBCHEM_CACTVS_TAUTO_COUNT>
4

> <PUBCHEM_CONFORMER_ID>
02F85C1300000003

> <PUBCHEM_MMFF94_ENERGY>
94.8847

> <PUBCHEM_FEATURE_SELFOVERLAP>
60.948

> <PUBCHEM_SHAPE_FINGERPRINT>
10864689 126 18049446933298868662
1100329 8 15887153744414639661
11370993 144 18341616949986205573
11552529 35 18130508647405492943
12107183 9 17626393324715243625
12422481 6 18269536296553884250
12596602 18 17203611522889701235
12892183 10 18342181106804162765
13402501 40 18333733528766350506
13533116 47 18413388727151562759
13583140 156 18202278126236280537
13911882 115 18412830170712769358
14178342 30 18334859450142183253
14790565 3 18268708493210731476
16126227 98 17545884188950009632
16994733 274 14404316505152776130
17349148 13 14996278089925443064
17780758 139 18334008419642378057
17913733 40 17989199357174363218
1813 80 16950575367445028285
20739085 24 18336263535398143340
21065198 57 18410858728973223317
21065199 12 18411703201200632493
21197605 99 18123192565284951554
21673915 165 18265053716011072443
23559900 14 18268427936786725148
3117164 225 18055648221971291921
3178227 256 18413106178712804488
3737641 26 18270967834759635166
4073 2 18409166584735782824
5104073 3 18339079263826177025
6371380 46 17904763280573203317
6823239 73 18339931394376602062
7097593 13 18337963376084304005
9709674 26 18411136901051251927

> <PUBCHEM_SHAPE_MULTIPOLES>
512.25
12.94
4.45
1.31
1.84
2.57
0.16
-0.12
-5.14
-0.58
-0.04
-0.17
0.35
2.99

> <PUBCHEM_SHAPE_SELFOVERLAP>
1081.315

> <PUBCHEM_SHAPE_VOLUME>
285.3

> <PUBCHEM_COORDINATE_TYPE>
2
5
10

$$$$
