17754438
  -OEChem-10052120443D

 44 48  0     0  0  0  0  0  0999 V2000
    2.4850    3.9815    0.1409 O   0  0  0  0  0  0  0  0  0  0  0  0
   -0.8132   -2.5505    0.7790 N   0  0  0  0  0  0  0  0  0  0  0  0
    4.1711    1.6410    0.4259 N   0  0  0  0  0  0  0  0  0  0  0  0
    1.1998   -1.2135    0.4128 N   0  0  0  0  0  0  0  0  0  0  0  0
   -1.2924   -3.7271    0.3287 N   0  0  0  0  0  0  0  0  0  0  0  0
    5.0717    1.1320   -0.4321 N   0  0  0  0  0  0  0  0  0  0  0  0
    1.7747   -3.4517   -1.3341 N   0  0  0  0  0  0  0  0  0  0  0  0
   -0.3992   -4.2317   -0.5223 N   0  0  0  0  0  0  0  0  0  0  0  0
   -5.0851    1.8650   -0.8433 N   0  0  0  0  0  0  0  0  0  0  0  0
   -1.5795   -1.7493    1.7395 C   0  0  0  0  0  0  0  0  0  0  0  0
   -2.4954   -0.7901    1.0585 C   0  0  0  0  0  0  0  0  0  0  0  0
    0.3981   -2.2730    0.2284 C   0  0  0  0  0  0  0  0  0  0  0  0
    3.2590   -0.2397   -0.2083 C   0  0  0  0  0  0  0  0  0  0  0  0
   -2.0563    0.4916    0.7397 C   0  0  0  0  0  0  0  0  0  0  0  0
    2.3257   -1.3227   -0.3290 C   0  0  0  0  0  0  0  0  0  0  0  0
   -2.9165    1.3990    0.0984 C   0  0  0  0  0  0  0  0  0  0  0  0
    0.6429   -3.3548   -0.5962 C   0  0  0  0  0  0  0  0  0  0  0  0
   -3.7930   -1.1699    0.7386 C   0  0  0  0  0  0  0  0  0  0  0  0
    3.0673    0.8579    0.5949 C   0  0  0  0  0  0  0  0  0  0  0  0
   -4.2353    1.0204   -0.2292 C   0  0  0  0  0  0  0  0  0  0  0  0
    4.4296    2.9066    1.0694 C   0  0  0  0  0  0  0  0  0  0  0  0
   -4.6480   -0.2675    0.1010 C   0  0  0  0  0  0  0  0  0  0  0  0
    4.5090   -0.0168   -0.8163 C   0  0  0  0  0  0  0  0  0  0  0  0
    2.6015   -2.3946   -1.1662 C   0  0  0  0  0  0  0  0  0  0  0  0
   -2.5004    2.6952   -0.2339 C   0  0  0  0  0  0  0  0  0  0  0  0
    3.8970    4.0875    0.2690 C   0  0  0  0  0  0  0  0  0  0  0  0
   -3.3738    3.5678   -0.8668 C   0  0  0  0  0  0  0  0  0  0  0  0
   -4.6444    3.1074   -1.1470 C   0  0  0  0  0  0  0  0  0  0  0  0
   -0.8570   -1.2307    2.3809 H   0  0  0  0  0  0  0  0  0  0  0  0
   -2.1287   -2.4481    2.3821 H   0  0  0  0  0  0  0  0  0  0  0  0
   -1.0407    0.7929    0.9900 H   0  0  0  0  0  0  0  0  0  0  0  0
   -4.1563   -2.1659    0.9777 H   0  0  0  0  0  0  0  0  0  0  0  0
    2.2636    1.1491    1.2587 H   0  0  0  0  0  0  0  0  0  0  0  0
    3.9512    2.8677    2.0550 H   0  0  0  0  0  0  0  0  0  0  0  0
    5.5109    2.9961    1.2206 H   0  0  0  0  0  0  0  0  0  0  0  0
   -5.6598   -0.5893   -0.1390 H   0  0  0  0  0  0  0  0  0  0  0  0
    5.0445   -0.6340   -1.5239 H   0  0  0  0  0  0  0  0  0  0  0  0
    3.5130   -2.4588   -1.7518 H   0  0  0  0  0  0  0  0  0  0  0  0
   -1.4925    3.0320   -0.0016 H   0  0  0  0  0  0  0  0  0  0  0  0
    4.1295    5.0262    0.7811 H   0  0  0  0  0  0  0  0  0  0  0  0
    4.3341    4.1125   -0.7347 H   0  0  0  0  0  0  0  0  0  0  0  0
   -3.0686    4.5735   -1.1310 H   0  0  0  0  0  0  0  0  0  0  0  0
   -5.3705    3.7449   -1.6406 H   0  0  0  0  0  0  0  0  0  0  0  0
    2.1864    4.7525   -0.3708 H   0  0  0  0  0  0  0  0  0  0  0  0
  1 26  1  0  0  0  0
  1 44  1  0  0  0  0
  2  5  1  0  0  0  0
  2 10  1  0  0  0  0
  2 12  1  0  0  0  0
  3  6  1  0  0  0  0
  3 19  1  0  0  0  0
  3 21  1  0  0  0  0
  4 12  2  0  0  0  0
  4 15  1  0  0  0  0
  5  8  2  0  0  0  0
  6 23  2  0  0  0  0
  7 17  2  0  0  0  0
  7 24  1  0  0  0  0
  8 17  1  0  0  0  0
  9 20  1  0  0  0  0
  9 28  2  0  0  0  0
 10 11  1  0  0  0  0
 10 29  1  0  0  0  0
 10 30  1  0  0  0  0
 11 14  2  0  0  0  0
 11 18  1  0  0  0  0
 12 17  1  0  0  0  0
 13 15  1  0  0  0  0
 13 19  2  0  0  0  0
 13 23  1  0  0  0  0
 14 16  1  0  0  0  0
 14 31  1  0  0  0  0
 15 24  2  0  0  0  0
 16 20  2  0  0  0  0
 16 25  1  0  0  0  0
 18 22  2  0  0  0  0
 18 32  1  0  0  0  0
 19 33  1  0  0  0  0
 20 22  1  0  0  0  0
 21 26  1  0  0  0  0
 21 34  1  0  0  0  0
 21 35  1  0  0  0  0
 22 36  1  0  0  0  0
 23 37  1  0  0  0  0
 24 38  1  0  0  0  0
 25 27  2  0  0  0  0
 25 39  1  0  0  0  0
 26 40  1  0  0  0  0
 26 41  1  0  0  0  0
 27 28  1  0  0  0  0
 27 42  1  0  0  0  0
 28 43  1  0  0  0  0
M  END
> <PUBCHEM_COMPOUND_CID>
17754438

> <PUBCHEM_CONFORMER_RMSD>
0.8

> <PUBCHEM_CONFORMER_DIVERSEORDER>
1
26
130
100
48
167
59
129
47
126
148
174
118
32
166
133
49
108
161
36
114
82
160
181
138
84
145
144
131
151
53
159
81
135
162
119
25
142
127
177
41
87
150
46
45
179
104
165
44
168
128
140
137
117
158
139
78
107
7
136
13
124
141
111
176
16
153
103
97
91
56
31
154
178
85
143
157
95
98
116
3
58
50
80
146
66
94
42
15
170
115
109
106
70
155
101
156
76
69
110
23
65
163
33
180
29
28
86
83
173
88
43
164
175
64
30
54
75
172
73
120
62
19
10
14
35
123
21
63
113
89
67
169
72
11
147
105
5
152
134
38
79
27
39
71
92
2
132
102
68
77
122
61
6
171
9
99
74
4
93
125
60
121
96
20
40
12
34
112
90
57
37
55
8
24
149
17
51
22
52
18

> <PUBCHEM_MMFF94_PARTIAL_CHARGES>
37
1 -0.68
10 0.4
11 -0.14
12 0.11
13 -0.05
14 -0.15
15 0.36
17 0.48
18 -0.15
19 -0.3
2 0.31
20 0.31
21 0.26
22 -0.15
23 0.14
24 0.16
25 -0.15
26 0.28
27 -0.15
28 0.16
3 0.31
31 0.15
32 0.15
33 0.15
36 0.15
37 0.15
38 0.15
39 0.15
4 -0.57
42 0.15
43 0.15
44 0.4
5 -0.42
6 -0.71
7 -0.57
8 -0.23
9 -0.62

> <PUBCHEM_EFFECTIVE_ROTOR_COUNT>
5

> <PUBCHEM_PHARMACOPHORE_FEATURES>
11
1 1 acceptor
1 1 donor
1 6 acceptor
1 9 acceptor
3 2 4 12 cation
3 7 8 17 cation
5 2 5 8 12 17 rings
5 3 6 13 19 23 rings
6 11 14 16 18 20 22 rings
6 4 7 12 15 17 24 rings
6 9 16 20 25 27 28 rings

> <PUBCHEM_HEAVY_ATOM_COUNT>
28

> <PUBCHEM_ATOM_DEF_STEREO_COUNT>
0

> <PUBCHEM_ATOM_UDEF_STEREO_COUNT>
0

> <PUBCHEM_BOND_DEF_STEREO_COUNT>
0

> <PUBCHEM_BOND_UDEF_STEREO_COUNT>
0

> <PUBCHEM_ISOTOPIC_ATOM_COUNT>
0

> <PUBCHEM_COMPONENT_COUNT>
1

> <PUBCHEM_CACTVS_TAUTO_COUNT>
1

> <PUBCHEM_CONFORMER_ID>
010EE94600000001

> <PUBCHEM_MMFF94_ENERGY>
59.5213

> <PUBCHEM_FEATURE_SELFOVERLAP>
56.101

> <PUBCHEM_SHAPE_FINGERPRINT>
10439779 11 17759508981123286122
10871710 139 17473829905871449938
11370993 70 18410011018023454889
12100795 323 18266458909056553060
12769317 202 18270676468014117376
133061 13 17839723091861768272
13402501 40 18408324363124094524
13561361 72 18122340443852033392
13590594 115 16897653381497994115
1361 2 18340195375998924197
14251764 38 18264485100800108835
14347329 18 17969246489552667302
14468879 13 18260838072565912827
14957384 54 18337103575197710738
15961568 22 17330561354940325948
16067690 210 17753877621784124008
16992787 43 18410569592771590261
1768 85 18267035951293564713
17974551 9 17385721340591601682
17980427 23 17613400421627565659
18681886 176 17907848510111948947
19246450 95 18196064804051230736
20398071 114 18408602539470982817
21033648 144 18270407229668342634
21049683 118 16590565428238521057
21388113 180 18410854382155278228
21859007 373 18411976988766138680
21860390 5 18053945048189101390
23227448 37 18196936797321406178
23466295 7 11345843973061214705
23559900 14 18051405176365946043
238 59 18129662972038640582
2838139 119 18409161130090432518
325973 47 18337675333502152780
3298306 158 18412541002895613664
376196 1 18334573491188395811
46194498 28 18057895641013625335
508706 21 18196367241940697624
6036956 94 17756142650540777061
6608658 132 17042049529608081484
7399639 24 18336562563985216891
7808743 9 18194680599873004576
9981440 41 18186523181230416859

> <PUBCHEM_SHAPE_MULTIPOLES>
530.51
10.85
6.17
1.16
0.39
0.56
-0.08
11.19
1.45
-2.1
0.89
0.17
-0.25
3.23

> <PUBCHEM_SHAPE_SELFOVERLAP>
1189.35

> <PUBCHEM_SHAPE_VOLUME>
280.1

> <PUBCHEM_COORDINATE_TYPE>
2
5
10

$$$$
