9797847
  -OEChem-10062121583D

 38 43  0     0  0  0  0  0  0999 V2000
   -2.2971    3.1270    0.0963 O   0  0  0  0  0  0  0  0  0  0  0  0
    2.1954    2.9322   -0.6359 O   0  0  0  0  0  0  0  0  0  0  0  0
   -1.8902   -2.0611   -0.1169 N   0  0  0  0  0  0  0  0  0  0  0  0
   -0.0044    3.3893   -0.1110 N   0  0  0  0  0  0  0  0  0  0  0  0
   -1.5984    0.1413    0.0278 C   0  0  0  0  0  0  0  0  0  0  0  0
   -0.9220   -1.0802   -0.0803 C   0  0  0  0  0  0  0  0  0  0  0  0
    1.3331   -0.0337   -0.0178 C   0  0  0  0  0  0  0  0  0  0  0  0
    0.5046   -1.1850   -0.1263 C   0  0  0  0  0  0  0  0  0  0  0  0
   -0.7799    1.2749    0.0222 C   0  0  0  0  0  0  0  0  0  0  0  0
    0.6239    1.1923   -0.0413 C   0  0  0  0  0  0  0  0  0  0  0  0
   -3.0072   -0.1441    0.0799 C   0  0  0  0  0  0  0  0  0  0  0  0
   -3.1489   -1.5287   -0.0128 C   0  0  0  0  0  0  0  0  0  0  0  0
    2.7685   -0.2568    0.1028 C   0  0  0  0  0  0  0  0  0  0  0  0
   -1.1679    2.6857    0.0213 C   0  0  0  0  0  0  0  0  0  0  0  0
    1.0589   -2.4663   -0.2831 C   0  0  0  0  0  0  0  0  0  0  0  0
    1.0920    2.5819   -0.2624 C   0  0  0  0  0  0  0  0  0  0  0  0
    3.2941   -1.5635   -0.0975 C   0  0  0  0  0  0  0  0  0  0  0  0
    2.4350   -2.6404   -0.3103 C   0  0  0  0  0  0  0  0  0  0  0  0
   -4.1888    0.6225    0.1946 C   0  0  0  0  0  0  0  0  0  0  0  0
   -4.3891   -2.1795    0.0021 C   0  0  0  0  0  0  0  0  0  0  0  0
    3.7174    0.7249    0.4799 C   0  0  0  0  0  0  0  0  0  0  0  0
    4.6777   -1.8079   -0.0500 C   0  0  0  0  0  0  0  0  0  0  0  0
   -5.4386   -0.0109    0.2108 C   0  0  0  0  0  0  0  0  0  0  0  0
   -5.5355   -1.3938    0.1151 C   0  0  0  0  0  0  0  0  0  0  0  0
    5.0922    0.4722    0.5401 C   0  0  0  0  0  0  0  0  0  0  0  0
    5.5754   -0.7919    0.2526 C   0  0  0  0  0  0  0  0  0  0  0  0
   -1.7034   -3.0508   -0.1926 H   0  0  0  0  0  0  0  0  0  0  0  0
    0.4365   -3.3498   -0.4007 H   0  0  0  0  0  0  0  0  0  0  0  0
    0.0288    4.3988   -0.2001 H   0  0  0  0  0  0  0  0  0  0  0  0
    2.8263   -3.6463   -0.4528 H   0  0  0  0  0  0  0  0  0  0  0  0
   -4.1615    1.7024    0.2775 H   0  0  0  0  0  0  0  0  0  0  0  0
   -4.4600   -3.2597   -0.0730 H   0  0  0  0  0  0  0  0  0  0  0  0
    3.4029    1.7107    0.8020 H   0  0  0  0  0  0  0  0  0  0  0  0
    5.0704   -2.8077   -0.2281 H   0  0  0  0  0  0  0  0  0  0  0  0
   -6.3409    0.5882    0.3005 H   0  0  0  0  0  0  0  0  0  0  0  0
   -6.5129   -1.8686    0.1294 H   0  0  0  0  0  0  0  0  0  0  0  0
    5.7760    1.2650    0.8287 H   0  0  0  0  0  0  0  0  0  0  0  0
    6.6403   -0.9968    0.2976 H   0  0  0  0  0  0  0  0  0  0  0  0
  1 14  2  0  0  0  0
  2 16  2  0  0  0  0
  3  6  1  0  0  0  0
  3 12  1  0  0  0  0
  3 27  1  0  0  0  0
  4 14  1  0  0  0  0
  4 16  1  0  0  0  0
  4 29  1  0  0  0  0
  5  6  2  0  0  0  0
  5  9  1  0  0  0  0
  5 11  1  0  0  0  0
  6  8  1  0  0  0  0
  7  8  2  0  0  0  0
  7 10  1  0  0  0  0
  7 13  1  0  0  0  0
  8 15  1  0  0  0  0
  9 10  2  0  0  0  0
  9 14  1  0  0  0  0
 10 16  1  0  0  0  0
 11 12  1  0  0  0  0
 11 19  2  0  0  0  0
 12 20  2  0  0  0  0
 13 17  1  0  0  0  0
 13 21  2  0  0  0  0
 15 18  2  0  0  0  0
 15 28  1  0  0  0  0
 17 18  1  0  0  0  0
 17 22  2  0  0  0  0
 18 30  1  0  0  0  0
 19 23  1  0  0  0  0
 19 31  1  0  0  0  0
 20 24  1  0  0  0  0
 20 32  1  0  0  0  0
 21 25  1  0  0  0  0
 21 33  1  0  0  0  0
 22 26  1  0  0  0  0
 22 34  1  0  0  0  0
 23 24  2  0  0  0  0
 23 35  1  0  0  0  0
 24 36  1  0  0  0  0
 25 26  2  0  0  0  0
 25 37  1  0  0  0  0
 26 38  1  0  0  0  0
M  END
> <PUBCHEM_COMPOUND_CID>
9797847

> <PUBCHEM_CONFORMER_RMSD>
0.6

> <PUBCHEM_CONFORMER_DIVERSEORDER>
1

> <PUBCHEM_MMFF94_PARTIAL_CHARGES>
32
1 -0.57
10 0.09
12 -0.15
14 0.54
15 -0.15
16 0.54
18 -0.15
19 -0.15
2 -0.57
20 -0.15
21 -0.15
22 -0.15
23 -0.15
24 -0.15
25 -0.15
26 -0.15
27 0.27
28 0.15
29 0.37
3 0.03
30 0.15
31 0.15
32 0.15
33 0.15
34 0.15
35 0.15
36 0.15
37 0.15
38 0.15
4 -0.49
6 -0.15
9 0.09

> <PUBCHEM_EFFECTIVE_ROTOR_COUNT>
0.2

> <PUBCHEM_PHARMACOPHORE_FEATURES>
11
1 1 acceptor
1 2 acceptor
1 3 cation
1 3 donor
1 4 donor
5 3 5 6 11 12 rings
5 4 9 10 14 16 rings
6 11 12 19 20 23 24 rings
6 13 17 21 22 25 26 rings
6 5 6 7 8 9 10 rings
6 7 8 13 15 17 18 rings

> <PUBCHEM_HEAVY_ATOM_COUNT>
26

> <PUBCHEM_ATOM_DEF_STEREO_COUNT>
0

> <PUBCHEM_ATOM_UDEF_STEREO_COUNT>
0

> <PUBCHEM_BOND_DEF_STEREO_COUNT>
0

> <PUBCHEM_BOND_UDEF_STEREO_COUNT>
0

> <PUBCHEM_ISOTOPIC_ATOM_COUNT>
0

> <PUBCHEM_COMPONENT_COUNT>
1

> <PUBCHEM_CACTVS_TAUTO_COUNT>
12

> <PUBCHEM_CONFORMER_ID>
009580D700000001

> <PUBCHEM_MMFF94_ENERGY>
91.6214

> <PUBCHEM_FEATURE_SELFOVERLAP>
56.123

> <PUBCHEM_SHAPE_FINGERPRINT>
10050765 1 18122344576401933958
10411042 1 18410012139004637903
10616163 171 18339923697757810126
10670039 82 18263380122639100502
10688039 33 18113617876279760277
10906281 52 18263945339332926994
10967382 1 18266741466053214279
1100329 8 18265613371608526634
11578080 2 16952798463581058087
12236239 1 17775286084113889175
12293681 4 18187936096452840267
12403259 226 18268426829260110778
12553582 1 18338221722024049283
12623949 98 17560252340138398814
12788726 201 18261670359549136314
13004483 165 18337660911017251426
13140716 1 18266740379426501546
13402501 40 18411698785758019994
138480 1 14735637350811440733
13862211 1 18410570695259750131
140371 6 18409459076203250919
14223421 5 18197498433210364606
14787075 74 18186803612281971962
14790565 3 17544198641497200484
14955137 171 18340209690586422626
15042514 8 18121496852329809066
15131766 46 14762905733739634586
15196674 1 18411699885074449354
15352361 1 18410292514649159827
15927050 60 17620757619285804868
1601671 61 18412825797955741282
16087824 20 18193840345789315581
17349148 13 17894917304243950470
17492 89 18193834834808256666
1813 80 17676205779719698988
19591789 44 18339079401222957965
20028762 73 18201153359816351879
20642791 13 18340207379914986353
20642791 178 18190469431119544228
20739085 24 18262240056965283565
21033648 29 17703210859029308267
21236236 1 18341611452005963113
21267235 1 18411145731224768626
21421861 104 18043809779821535794
21641784 216 18041858228650271436
221490 88 18191312774224436731
22182313 1 18199469870232651878
23402539 116 18413101758236901815
23557571 272 18199474277243650190
23559900 14 18339634633689756817
23845131 108 17332814850807748841
24771293 8 18128808828188127912
3004659 81 18113618997688074494
335352 9 18410292506713366317
34934 24 18411131399288173543
350125 39 18413107265081041184
5104073 3 18198613342744193026
5283173 99 18042676218046191877
59755656 215 18338238168018549270
6443956 14 18409168843672192365
9709674 26 17982731874876216486
9777508 108 17980195279939256032

> <PUBCHEM_SHAPE_MULTIPOLES>
513.37
10.75
3.57
0.65
1.49
2.27
-0.01
-5.06
-1.41
0.01
0.43
-0.13
0.02
0.05

> <PUBCHEM_SHAPE_SELFOVERLAP>
1212.786

> <PUBCHEM_SHAPE_VOLUME>
258.8

> <PUBCHEM_COORDINATE_TYPE>
2
5
10

$$$$
