25065806
  -OEChem-10062122023D

 54 57  0     0  0  0  0  0  0999 V2000
    8.2393   -0.1785    0.1060 P   0  0  0  0  0  0  0  0  0  0  0  0
    9.0849    0.9973    0.5219 O   0  0  0  0  0  0  0  0  0  0  0  0
   -2.2245    0.3514   -0.1417 N   0  0  0  0  0  0  0  0  0  0  0  0
    2.3654    0.8075   -0.2608 N   0  0  0  0  0  0  0  0  0  0  0  0
   -0.5185    1.7160   -0.5850 N   0  0  0  0  0  0  0  0  0  0  0  0
   -1.0033   -1.6383    0.5294 N   0  0  0  0  0  0  0  0  0  0  0  0
    1.4079   -1.2754    0.4255 N   0  0  0  0  0  0  0  0  0  0  0  0
    6.5009    0.1134   -0.0024 C   0  0  0  0  0  0  0  0  0  0  0  0
    8.8228   -0.8127   -1.4717 C   0  0  0  0  0  0  0  0  0  0  0  0
    8.5301   -1.5557    1.2243 C   0  0  0  0  0  0  0  0  0  0  0  0
    5.9953    1.3970    0.2031 C   0  0  0  0  0  0  0  0  0  0  0  0
    5.6337   -0.9395   -0.2938 C   0  0  0  0  0  0  0  0  0  0  0  0
    3.7551    0.5749   -0.1742 C   0  0  0  0  0  0  0  0  0  0  0  0
    4.6223    1.6279    0.1172 C   0  0  0  0  0  0  0  0  0  0  0  0
    4.2608   -0.7088   -0.3797 C   0  0  0  0  0  0  0  0  0  0  0  0
   -0.0440    0.4956   -0.1744 C   0  0  0  0  0  0  0  0  0  0  0  0
   -1.0904   -0.3684    0.1059 C   0  0  0  0  0  0  0  0  0  0  0  0
    1.2445    0.0005   -0.0002 C   0  0  0  0  0  0  0  0  0  0  0  0
   -6.0034    0.2250   -0.0676 C   0  0  0  0  0  0  0  0  0  0  0  0
   -6.6915   -0.3154   -1.1539 C   0  0  0  0  0  0  0  0  0  0  0  0
   -6.6323    0.3324    1.1727 C   0  0  0  0  0  0  0  0  0  0  0  0
   -3.5288   -0.0820   -0.0066 C   0  0  0  0  0  0  0  0  0  0  0  0
   -4.6115    0.6809   -0.2301 C   0  0  0  0  0  0  0  0  0  0  0  0
   -1.8294    1.5961   -0.5546 C   0  0  0  0  0  0  0  0  0  0  0  0
   -8.0083   -0.7485   -0.9999 C   0  0  0  0  0  0  0  0  0  0  0  0
   -7.9492   -0.1007    1.3268 C   0  0  0  0  0  0  0  0  0  0  0  0
   -6.0527   -0.4486   -2.4995 C   0  0  0  0  0  0  0  0  0  0  0  0
   -5.9281    0.9027    2.3623 C   0  0  0  0  0  0  0  0  0  0  0  0
   -8.6373   -0.6413    0.2405 C   0  0  0  0  0  0  0  0  0  0  0  0
    0.2904   -2.0047    0.6604 C   0  0  0  0  0  0  0  0  0  0  0  0
    9.8918   -1.0371   -1.4159 H   0  0  0  0  0  0  0  0  0  0  0  0
    8.2941   -1.7295   -1.7464 H   0  0  0  0  0  0  0  0  0  0  0  0
    8.6651   -0.0702   -2.2588 H   0  0  0  0  0  0  0  0  0  0  0  0
    9.6019   -1.7628    1.2936 H   0  0  0  0  0  0  0  0  0  0  0  0
    8.1594   -1.3147    2.2245 H   0  0  0  0  0  0  0  0  0  0  0  0
    8.0302   -2.4633    0.8759 H   0  0  0  0  0  0  0  0  0  0  0  0
    6.6610    2.2245    0.4300 H   0  0  0  0  0  0  0  0  0  0  0  0
    6.0172   -1.9406   -0.4664 H   0  0  0  0  0  0  0  0  0  0  0  0
    4.2408    2.6326    0.2803 H   0  0  0  0  0  0  0  0  0  0  0  0
    3.6225   -1.5462   -0.6424 H   0  0  0  0  0  0  0  0  0  0  0  0
    2.1289    1.7790   -0.4442 H   0  0  0  0  0  0  0  0  0  0  0  0
   -3.6534   -1.1118    0.3182 H   0  0  0  0  0  0  0  0  0  0  0  0
   -4.5375    1.7161   -0.5493 H   0  0  0  0  0  0  0  0  0  0  0  0
   -2.5107    2.3908   -0.8268 H   0  0  0  0  0  0  0  0  0  0  0  0
   -8.5598   -1.1731   -1.8347 H   0  0  0  0  0  0  0  0  0  0  0  0
   -8.4548   -0.0263    2.2860 H   0  0  0  0  0  0  0  0  0  0  0  0
   -5.6911    0.5220   -2.8552 H   0  0  0  0  0  0  0  0  0  0  0  0
   -5.2187   -1.1570   -2.4605 H   0  0  0  0  0  0  0  0  0  0  0  0
   -6.7593   -0.8195   -3.2503 H   0  0  0  0  0  0  0  0  0  0  0  0
   -5.1037    0.2510    2.6696 H   0  0  0  0  0  0  0  0  0  0  0  0
   -5.5406    1.9033    2.1428 H   0  0  0  0  0  0  0  0  0  0  0  0
   -6.6002    1.0050    3.2217 H   0  0  0  0  0  0  0  0  0  0  0  0
   -9.6625   -0.9791    0.3606 H   0  0  0  0  0  0  0  0  0  0  0  0
    0.4588   -3.0212    0.9997 H   0  0  0  0  0  0  0  0  0  0  0  0
  1  2  2  0  0  0  0
  1  8  1  0  0  0  0
  1  9  1  0  0  0  0
  1 10  1  0  0  0  0
  3 17  1  0  0  0  0
  3 22  1  0  0  0  0
  3 24  1  0  0  0  0
  4 13  1  0  0  0  0
  4 18  1  0  0  0  0
  4 41  1  0  0  0  0
  5 16  1  0  0  0  0
  5 24  2  0  0  0  0
  6 17  2  0  0  0  0
  6 30  1  0  0  0  0
  7 18  1  0  0  0  0
  7 30  2  0  0  0  0
  8 11  2  0  0  0  0
  8 12  1  0  0  0  0
  9 31  1  0  0  0  0
  9 32  1  0  0  0  0
  9 33  1  0  0  0  0
 10 34  1  0  0  0  0
 10 35  1  0  0  0  0
 10 36  1  0  0  0  0
 11 14  1  0  0  0  0
 11 37  1  0  0  0  0
 12 15  2  0  0  0  0
 12 38  1  0  0  0  0
 13 14  2  0  0  0  0
 13 15  1  0  0  0  0
 14 39  1  0  0  0  0
 15 40  1  0  0  0  0
 16 17  1  0  0  0  0
 16 18  2  0  0  0  0
 19 20  2  0  0  0  0
 19 21  1  0  0  0  0
 19 23  1  0  0  0  0
 20 25  1  0  0  0  0
 20 27  1  0  0  0  0
 21 26  2  0  0  0  0
 21 28  1  0  0  0  0
 22 23  2  0  0  0  0
 22 42  1  0  0  0  0
 23 43  1  0  0  0  0
 24 44  1  0  0  0  0
 25 29  2  0  0  0  0
 25 45  1  0  0  0  0
 26 29  1  0  0  0  0
 26 46  1  0  0  0  0
 27 47  1  0  0  0  0
 27 48  1  0  0  0  0
 27 49  1  0  0  0  0
 28 50  1  0  0  0  0
 28 51  1  0  0  0  0
 28 52  1  0  0  0  0
 29 53  1  0  0  0  0
 30 54  1  0  0  0  0
M  END
> <PUBCHEM_COMPOUND_CID>
25065806

> <PUBCHEM_CONFORMER_RMSD>
0.8

> <PUBCHEM_CONFORMER_DIVERSEORDER>
1
45
29
47
19
52
63
20
67
54
6
27
40
44
60
2
65
28
18
43
16
4
56
9
25
8
26
14
68
7
12
32
42
22
15
39
57
17
66
58
5
55
11
48
10
35
23
31
36
33
34
61
50
59
13
51
3
30
41
24
37
64
46
21
53
69
38
49
62

> <PUBCHEM_MMFF94_PARTIAL_CHARGES>
40
1 0.84
11 -0.15
12 -0.15
13 0.1
14 -0.15
15 -0.15
16 0.23
17 0.11
18 0.41
19 0.03
2 -0.7
20 -0.14
21 -0.14
22 -0.18
23 -0.18
24 0.04
25 -0.15
26 -0.15
27 0.14
28 0.14
29 -0.15
3 0.33
30 0.47
37 0.15
38 0.15
39 0.15
4 -0.6
40 0.15
41 0.4
42 0.15
43 0.15
44 0.15
45 0.15
46 0.15
5 -0.57
53 0.15
54 0.15
6 -0.57
7 -0.62
8 -0.14

> <PUBCHEM_EFFECTIVE_ROTOR_COUNT>
5

> <PUBCHEM_PHARMACOPHORE_FEATURES>
10
1 2 acceptor
1 4 cation
1 4 donor
3 3 5 24 cation
3 3 6 17 cation
3 6 7 30 cation
5 3 5 16 17 24 rings
6 19 20 21 25 26 29 rings
6 6 7 16 17 18 30 rings
6 8 11 12 13 14 15 rings

> <PUBCHEM_HEAVY_ATOM_COUNT>
30

> <PUBCHEM_ATOM_DEF_STEREO_COUNT>
0

> <PUBCHEM_ATOM_UDEF_STEREO_COUNT>
0

> <PUBCHEM_BOND_DEF_STEREO_COUNT>
1

> <PUBCHEM_BOND_UDEF_STEREO_COUNT>
0

> <PUBCHEM_ISOTOPIC_ATOM_COUNT>
0

> <PUBCHEM_COMPONENT_COUNT>
1

> <PUBCHEM_CACTVS_TAUTO_COUNT>
3

> <PUBCHEM_CONFORMER_ID>
017E794E00000001

> <PUBCHEM_MMFF94_ENERGY>
83.0468

> <PUBCHEM_FEATURE_SELFOVERLAP>
51.352

> <PUBCHEM_SHAPE_FINGERPRINT>
10 15 17167863105604264109
10050765 1 18046059350873715093
10076449 9 18334296465486612908
10299344 5 17703790323295233111
11135926 11 18335696135937510367
11315181 36 17775004601454157105
11456790 92 18272653437682685328
11719270 70 16588019108898788811
12082328 90 16081361934632411031
12089408 11 17418093226076091980
12104220 1 18342460344667180937
12236239 1 18059859463723059657
13885169 127 16702024162489523549
14251764 18 18408323268413310120
14251764 46 18410573989451693195
14849402 71 17988644172459224657
14856354 85 16917065590863589421
14937079 2 18187930625034335308
15131766 46 15480389911867339728
15183329 4 18341889697304410879
15301273 46 16008746897058166834
15328684 2 17631455561785354931
15419008 47 17313095372120335357
15461852 350 14201402690412400385
15510794 2 17167863062670344331
15840311 113 15068631505080371270
15849732 13 16877944949139372350
19841028 212 15285907032499691320
21267235 1 18261115162560608708
21792961 116 17313099726815492073
22224240 67 18335702762733892323
23516275 137 16701201728157095215
23559900 14 18338230579322799656
249057 3 18187085087601132420
335352 9 18334016112255482662
335507 130 17203327836442228557
4625314 4 14490478599026217474
5283156 175 13901912190105944742
5758199 1 18342741823474667675
67123 10 17275103942581704648

> <PUBCHEM_SHAPE_MULTIPOLES>
590.46
32.06
1.51
1.4
16.15
0.04
-0.01
-4.11
1.7
1.13
0.12
-2.27
-0.17
-1.45

> <PUBCHEM_SHAPE_SELFOVERLAP>
1268.825

> <PUBCHEM_SHAPE_VOLUME>
329

> <PUBCHEM_COORDINATE_TYPE>
2
5
10

$$$$
