44355299
  -OEChem-10062121583D

 72 78  0     1  0  0  0  0  0999 V2000
   -4.0959    0.1207   -0.9495 O   0  0  0  0  0  0  0  0  0  0  0  0
   -3.5765   -2.9146   -0.1873 O   0  0  0  0  0  0  0  0  0  0  0  0
   -5.1977   -1.9321    1.7838 O   0  0  0  0  0  0  0  0  0  0  0  0
   -6.9465    0.3324    1.3297 O   0  0  0  0  0  0  0  0  0  0  0  0
   -7.5609    2.4810   -0.3541 O   0  0  0  0  0  0  0  0  0  0  0  0
    2.8511    3.0581    0.7231 O   0  0  0  0  0  0  0  0  0  0  0  0
    4.5917   -1.2434    0.6450 O   0  0  0  0  0  0  0  0  0  0  0  0
   -3.8372    4.6241   -0.4146 O   0  0  0  0  0  0  0  0  0  0  0  0
    0.8645   -6.9844   -0.6215 O   0  0  0  0  0  0  0  0  0  0  0  0
    7.9264    0.5669    0.6699 O   0  0  0  0  0  0  0  0  0  0  0  0
    6.2838    3.4339   -1.9628 O   0  0  0  0  0  0  0  0  0  0  0  0
   -1.7160    0.2260   -0.4265 N   0  0  0  0  0  0  0  0  0  0  0  0
   -0.6717   -2.3521   -0.4731 N   0  0  0  0  0  0  0  0  0  0  0  0
    4.0730    1.0491    0.7651 N   0  0  0  0  0  0  0  0  0  0  0  0
    5.3224    1.5406    1.0528 N   0  0  0  0  0  0  0  0  0  0  0  0
   -2.8987   -0.6637   -0.7398 C   0  0  1  0  0  0  0  0  0  0  0  0
   -3.2086   -1.6587    0.3824 C   0  0  1  0  0  0  0  0  0  0  0  0
   -4.3850   -1.0120    1.0878 C   0  0  1  0  0  0  0  0  0  0  0  0
   -5.1229   -0.3532   -0.0635 C   0  0  1  0  0  0  0  0  0  0  0  0
   -0.4017    0.0085   -0.1950 C   0  0  0  0  0  0  0  0  0  0  0  0
    0.5226    1.0704    0.0842 C   0  0  0  0  0  0  0  0  0  0  0  0
   -1.7777    1.6063   -0.3064 C   0  0  0  0  0  0  0  0  0  0  0  0
    0.1237   -1.2888   -0.2184 C   0  0  0  0  0  0  0  0  0  0  0  0
   -0.4801    2.1420   -0.0061 C   0  0  0  0  0  0  0  0  0  0  0  0
   -6.0057    0.8047    0.3673 C   0  0  1  0  0  0  0  0  0  0  0  0
    1.8846    0.9211    0.3317 C   0  0  0  0  0  0  0  0  0  0  0  0
    1.5298   -1.4164    0.0393 C   0  0  0  0  0  0  0  0  0  0  0  0
    2.4070   -0.3693    0.3084 C   0  0  0  0  0  0  0  0  0  0  0  0
    1.5541   -2.8801   -0.0964 C   0  0  0  0  0  0  0  0  0  0  0  0
   -2.9042    2.4317   -0.4440 C   0  0  0  0  0  0  0  0  0  0  0  0
    0.2457   -3.3892   -0.3964 C   0  0  0  0  0  0  0  0  0  0  0  0
    2.9642    1.8521    0.6288 C   0  0  0  0  0  0  0  0  0  0  0  0
   -6.7759    1.3849   -0.8113 C   0  0  0  0  0  0  0  0  0  0  0  0
   -0.3814    3.5462    0.1467 C   0  0  0  0  0  0  0  0  0  0  0  0
    3.8336   -0.2955    0.5899 C   0  0  0  0  0  0  0  0  0  0  0  0
   -2.7520    3.8094   -0.2834 C   0  0  0  0  0  0  0  0  0  0  0  0
   -1.5108    4.3600    0.0074 C   0  0  0  0  0  0  0  0  0  0  0  0
    2.6039   -3.8238    0.0145 C   0  0  0  0  0  0  0  0  0  0  0  0
    0.0093   -4.7611   -0.5733 C   0  0  0  0  0  0  0  0  0  0  0  0
    6.0479    1.8220   -0.1788 C   0  0  0  0  0  0  0  0  0  0  0  0
    2.3573   -5.1893   -0.1638 C   0  0  0  0  0  0  0  0  0  0  0  0
    1.0791   -5.6488   -0.4531 C   0  0  0  0  0  0  0  0  0  0  0  0
    7.5482    1.8207    0.1147 C   0  0  0  0  0  0  0  0  0  0  0  0
    5.5835    3.1639   -0.7536 C   0  0  0  0  0  0  0  0  0  0  0  0
   -2.6652   -1.1133   -1.7113 H   0  0  0  0  0  0  0  0  0  0  0  0
   -2.4151   -1.8369    1.1135 H   0  0  0  0  0  0  0  0  0  0  0  0
   -4.0207   -0.2511    1.7896 H   0  0  0  0  0  0  0  0  0  0  0  0
   -5.7259   -1.1016   -0.5954 H   0  0  0  0  0  0  0  0  0  0  0  0
   -5.4238    1.5942    0.8546 H   0  0  0  0  0  0  0  0  0  0  0  0
   -1.6047   -2.4564   -0.8145 H   0  0  0  0  0  0  0  0  0  0  0  0
   -3.8887    2.1110   -0.7202 H   0  0  0  0  0  0  0  0  0  0  0  0
   -3.8804   -3.4842    0.5398 H   0  0  0  0  0  0  0  0  0  0  0  0
   -4.6389   -2.3700    2.4482 H   0  0  0  0  0  0  0  0  0  0  0  0
   -6.1077    1.7457   -1.5983 H   0  0  0  0  0  0  0  0  0  0  0  0
   -7.4625    0.6432   -1.2331 H   0  0  0  0  0  0  0  0  0  0  0  0
    0.5713    4.0135    0.3740 H   0  0  0  0  0  0  0  0  0  0  0  0
   -1.4064    5.4355    0.1298 H   0  0  0  0  0  0  0  0  0  0  0  0
   -7.5120    1.0836    1.5784 H   0  0  0  0  0  0  0  0  0  0  0  0
    3.6160   -3.5034    0.2395 H   0  0  0  0  0  0  0  0  0  0  0  0
   -0.9916   -5.1184   -0.7992 H   0  0  0  0  0  0  0  0  0  0  0  0
    5.8127    0.8270    1.5920 H   0  0  0  0  0  0  0  0  0  0  0  0
    5.8801    1.0268   -0.9192 H   0  0  0  0  0  0  0  0  0  0  0  0
    3.1819   -5.8923   -0.0729 H   0  0  0  0  0  0  0  0  0  0  0  0
   -8.0430    2.8271   -1.1245 H   0  0  0  0  0  0  0  0  0  0  0  0
   -4.6229    4.0844   -0.6071 H   0  0  0  0  0  0  0  0  0  0  0  0
    7.8157    2.6087    0.8279 H   0  0  0  0  0  0  0  0  0  0  0  0
    8.1274    1.9721   -0.8020 H   0  0  0  0  0  0  0  0  0  0  0  0
    4.5269    3.1510   -1.0236 H   0  0  0  0  0  0  0  0  0  0  0  0
    5.7665    3.9874   -0.0546 H   0  0  0  0  0  0  0  0  0  0  0  0
   -0.0771   -7.1310   -0.8161 H   0  0  0  0  0  0  0  0  0  0  0  0
    8.8829    0.6073    0.8402 H   0  0  0  0  0  0  0  0  0  0  0  0
    5.9690    4.2939   -2.2897 H   0  0  0  0  0  0  0  0  0  0  0  0
  1 16  1  0  0  0  0
  1 19  1  0  0  0  0
  2 17  1  0  0  0  0
  2 52  1  0  0  0  0
  3 18  1  0  0  0  0
  3 53  1  0  0  0  0
  4 25  1  0  0  0  0
  4 58  1  0  0  0  0
  5 33  1  0  0  0  0
  5 64  1  0  0  0  0
  6 32  2  0  0  0  0
  7 35  2  0  0  0  0
  8 36  1  0  0  0  0
  8 65  1  0  0  0  0
  9 42  1  0  0  0  0
  9 70  1  0  0  0  0
 10 43  1  0  0  0  0
 10 71  1  0  0  0  0
 11 44  1  0  0  0  0
 11 72  1  0  0  0  0
 12 16  1  0  0  0  0
 12 20  1  0  0  0  0
 12 22  1  0  0  0  0
 13 23  1  0  0  0  0
 13 31  1  0  0  0  0
 13 50  1  0  0  0  0
 14 15  1  0  0  0  0
 14 32  1  0  0  0  0
 14 35  1  0  0  0  0
 15 40  1  0  0  0  0
 15 61  1  0  0  0  0
 16 17  1  0  0  0  0
 16 45  1  0  0  0  0
 17 18  1  0  0  0  0
 17 46  1  0  0  0  0
 18 19  1  0  0  0  0
 18 47  1  0  0  0  0
 19 25  1  0  0  0  0
 19 48  1  0  0  0  0
 20 21  1  0  0  0  0
 20 23  2  0  0  0  0
 21 24  1  0  0  0  0
 21 26  2  0  0  0  0
 22 24  2  0  0  0  0
 22 30  1  0  0  0  0
 23 27  1  0  0  0  0
 24 34  1  0  0  0  0
 25 33  1  0  0  0  0
 25 49  1  0  0  0  0
 26 28  1  0  0  0  0
 26 32  1  0  0  0  0
 27 28  2  0  0  0  0
 27 29  1  0  0  0  0
 28 35  1  0  0  0  0
 29 31  2  0  0  0  0
 29 38  1  0  0  0  0
 30 36  2  0  0  0  0
 30 51  1  0  0  0  0
 31 39  1  0  0  0  0
 33 54  1  0  0  0  0
 33 55  1  0  0  0  0
 34 37  2  0  0  0  0
 34 56  1  0  0  0  0
 36 37  1  0  0  0  0
 37 57  1  0  0  0  0
 38 41  2  0  0  0  0
 38 59  1  0  0  0  0
 39 42  2  0  0  0  0
 39 60  1  0  0  0  0
 40 43  1  0  0  0  0
 40 44  1  0  0  0  0
 40 62  1  0  0  0  0
 41 42  1  0  0  0  0
 41 63  1  0  0  0  0
 43 66  1  0  0  0  0
 43 67  1  0  0  0  0
 44 68  1  0  0  0  0
 44 69  1  0  0  0  0
M  END
> <PUBCHEM_COMPOUND_CID>
44355299

> <PUBCHEM_CONFORMER_RMSD>
1

> <PUBCHEM_CONFORMER_DIVERSEORDER>
1
4
3
5
6
2

> <PUBCHEM_MMFF94_PARTIAL_CHARGES>
58
1 -0.56
10 -0.68
11 -0.68
12 -0.04
13 -0.05
14 -0.11
15 -0.64
16 0.54
17 0.28
18 0.28
19 0.28
2 -0.68
20 -0.05
21 -0.01
22 -0.15
23 -0.05
25 0.28
26 0.09
27 -0.01
28 0.09
3 -0.68
30 -0.15
31 -0.15
32 0.54
33 0.28
34 -0.15
35 0.54
36 0.08
37 -0.15
38 -0.15
39 -0.15
4 -0.68
40 0.27
41 -0.15
42 0.08
43 0.28
44 0.28
5 -0.68
50 0.27
51 0.15
52 0.4
53 0.4
56 0.15
57 0.15
58 0.4
59 0.15
6 -0.57
60 0.15
61 0.36
63 0.15
64 0.4
65 0.45
7 -0.57
70 0.45
71 0.4
72 0.4
8 -0.53
9 -0.53

> <PUBCHEM_EFFECTIVE_ROTOR_COUNT>
8.2

> <PUBCHEM_PHARMACOPHORE_FEATURES>
28
1 1 acceptor
1 10 acceptor
1 10 donor
1 11 acceptor
1 11 donor
1 12 cation
1 13 cation
1 13 donor
1 15 donor
1 2 acceptor
1 2 donor
1 3 acceptor
1 3 donor
1 4 acceptor
1 4 donor
1 5 acceptor
1 5 donor
1 6 acceptor
1 7 acceptor
1 8 donor
1 9 donor
5 1 16 17 18 19 rings
5 12 20 21 22 24 rings
5 13 23 27 29 31 rings
5 14 26 28 32 35 rings
6 20 21 23 26 27 28 rings
6 22 24 30 34 36 37 rings
6 29 31 38 39 41 42 rings

> <PUBCHEM_HEAVY_ATOM_COUNT>
44

> <PUBCHEM_ATOM_DEF_STEREO_COUNT>
4

> <PUBCHEM_ATOM_UDEF_STEREO_COUNT>
1

> <PUBCHEM_BOND_DEF_STEREO_COUNT>
0

> <PUBCHEM_BOND_UDEF_STEREO_COUNT>
0

> <PUBCHEM_ISOTOPIC_ATOM_COUNT>
0

> <PUBCHEM_COMPONENT_COUNT>
1

> <PUBCHEM_CACTVS_TAUTO_COUNT>
209

> <PUBCHEM_CONFORMER_ID>
02A4CEE300000001

> <PUBCHEM_MMFF94_ENERGY>
169.8673

> <PUBCHEM_FEATURE_SELFOVERLAP>
142.618

> <PUBCHEM_SHAPE_FINGERPRINT>
10010297 198 18270955727209891991
10050765 1 18051126995872088733
10190108 129 18195555673441620289
10290309 65 18411132498736004151
10906281 52 18410016524873518669
1100329 8 17906452486704580506
11062273 19 18052535470362111614
11135926 11 18410002235227038549
11136131 41 18263637385978529546
11445158 3 17750797847123649317
12058002 1 17460059355609174669
12677640 9 17909549798613797915
12788726 201 18190167066070434520
13140716 1 18339639053037440055
13757389 114 18051704527107267302
13911987 19 18264191668697769767
140371 6 18261402122363602053
14040221 97 18113899334314557317
14747282 125 17910123743440833180
14790565 3 18267022941077456164
15200665 1 18266457801419078570
15297060 5 18343024436169351512
15320467 1 18339637846135480823
15439362 3 17906165149504647708
15815584 197 18341347660058775215
15890870 6 18410853282944188044
15968369 26 18048020892714007814
19311894 1 17979346783759818302
19315958 150 18265617590221459681
21033648 29 18200018689712274472
21133410 127 18115025208404305476
21133410 32 16524192368454908411
21703447 108 18119808006923210131
21796203 349 17684400586210926441
22223350 30 17695907014013800352
22311459 1 18411695491988147989
23559900 14 17835790907229800187
24771750 20 18265341603864164350
350125 39 18411134762305725112
4403749 210 18194392514408713185
4461854 278 18051149261120267003
5265222 85 18194688287611477468
6700243 42 17406030665340381412
6703917 75 18340497729038669676

> <PUBCHEM_SHAPE_MULTIPOLES>
821.01
15.67
7.97
0.97
1.48
10.46
-0.03
-14.67
-1.24
3.72
1.98
-0.08
-0.16
0.44

> <PUBCHEM_SHAPE_SELFOVERLAP>
1853.437

> <PUBCHEM_SHAPE_VOLUME>
430.2

> <PUBCHEM_COORDINATE_TYPE>
2
5
10

$$$$
