613127
  -OEChem-10062121583D

 37 40  0     1  0  0  0  0  0999 V2000
   -3.4630    0.0030    2.7570 Cl  0  0  0  0  0  0  0  0  0  0  0  0
    6.4695   -2.9281    0.0877 Cl  0  0  0  0  0  0  0  0  0  0  0  0
   -7.4074   -1.4814   -0.5909 Cl  0  0  0  0  0  0  0  0  0  0  0  0
    0.2120    3.3871   -0.1653 O   0  0  0  0  0  0  0  0  0  0  0  0
    2.8325    2.6994    0.0140 O   0  0  0  0  0  0  0  0  0  0  0  0
    1.6551   -1.1579   -0.1780 N   0  0  0  0  0  0  0  0  0  0  0  0
   -1.7350    0.3883    0.2208 C   0  0  1  0  0  0  0  0  0  0  0  0
   -0.7252   -0.6479   -0.2905 C   0  0  0  0  0  0  0  0  0  0  0  0
   -1.4833    1.7357   -0.4528 C   0  0  0  0  0  0  0  0  0  0  0  0
    0.7046   -0.1584   -0.2086 C   0  0  0  0  0  0  0  0  0  0  0  0
    1.0214    1.1532   -0.1533 C   0  0  0  0  0  0  0  0  0  0  0  0
   -0.0580    2.1883   -0.2277 C   0  0  0  0  0  0  0  0  0  0  0  0
   -3.1673   -0.0816    0.0494 C   0  0  0  0  0  0  0  0  0  0  0  0
    2.4712    1.5301   -0.0440 C   0  0  0  0  0  0  0  0  0  0  0  0
    3.0230   -0.8912   -0.0800 C   0  0  0  0  0  0  0  0  0  0  0  0
    3.4718    0.4347   -0.0095 C   0  0  0  0  0  0  0  0  0  0  0  0
   -4.0092   -0.2788    1.1441 C   0  0  0  0  0  0  0  0  0  0  0  0
   -3.6369   -0.3171   -1.2429 C   0  0  0  0  0  0  0  0  0  0  0  0
    3.9615   -1.9282   -0.0489 C   0  0  0  0  0  0  0  0  0  0  0  0
    4.8362    0.7233    0.0897 C   0  0  0  0  0  0  0  0  0  0  0  0
   -5.3205   -0.7118    0.9464 C   0  0  0  0  0  0  0  0  0  0  0  0
   -4.9480   -0.7498   -1.4405 C   0  0  0  0  0  0  0  0  0  0  0  0
    5.3245   -1.6433    0.0504 C   0  0  0  0  0  0  0  0  0  0  0  0
   -5.7898   -0.9473   -0.3459 C   0  0  0  0  0  0  0  0  0  0  0  0
    5.7603   -0.3205    0.1193 C   0  0  0  0  0  0  0  0  0  0  0  0
   -1.4990    0.5333    1.2805 H   0  0  0  0  0  0  0  0  0  0  0  0
   -0.9240   -0.9309   -1.3319 H   0  0  0  0  0  0  0  0  0  0  0  0
   -0.8377   -1.5625    0.3079 H   0  0  0  0  0  0  0  0  0  0  0  0
   -2.1543    2.4919   -0.0271 H   0  0  0  0  0  0  0  0  0  0  0  0
   -1.6537    1.7043   -1.5349 H   0  0  0  0  0  0  0  0  0  0  0  0
    1.3445   -2.1196   -0.2287 H   0  0  0  0  0  0  0  0  0  0  0  0
   -3.0034   -0.1695   -2.1130 H   0  0  0  0  0  0  0  0  0  0  0  0
    3.6235   -2.9611   -0.1026 H   0  0  0  0  0  0  0  0  0  0  0  0
    5.1952    1.7471    0.1445 H   0  0  0  0  0  0  0  0  0  0  0  0
   -5.9785   -0.8662    1.7989 H   0  0  0  0  0  0  0  0  0  0  0  0
   -5.3005   -0.9290   -2.4530 H   0  0  0  0  0  0  0  0  0  0  0  0
    6.8193   -0.0876    0.1967 H   0  0  0  0  0  0  0  0  0  0  0  0
  1 17  1  0  0  0  0
  2 23  1  0  0  0  0
  3 24  1  0  0  0  0
  4 12  2  0  0  0  0
  5 14  2  0  0  0  0
  6 10  1  0  0  0  0
  6 15  1  0  0  0  0
  6 31  1  0  0  0  0
  7  8  1  0  0  0  0
  7  9  1  0  0  0  0
  7 13  1  0  0  0  0
  7 26  1  0  0  0  0
  8 10  1  0  0  0  0
  8 27  1  0  0  0  0
  8 28  1  0  0  0  0
  9 12  1  0  0  0  0
  9 29  1  0  0  0  0
  9 30  1  0  0  0  0
 10 11  2  0  0  0  0
 11 12  1  0  0  0  0
 11 14  1  0  0  0  0
 13 17  2  0  0  0  0
 13 18  1  0  0  0  0
 14 16  1  0  0  0  0
 15 16  2  0  0  0  0
 15 19  1  0  0  0  0
 16 20  1  0  0  0  0
 17 21  1  0  0  0  0
 18 22  2  0  0  0  0
 18 32  1  0  0  0  0
 19 23  2  0  0  0  0
 19 33  1  0  0  0  0
 20 25  2  0  0  0  0
 20 34  1  0  0  0  0
 21 24  2  0  0  0  0
 21 35  1  0  0  0  0
 22 24  1  0  0  0  0
 22 36  1  0  0  0  0
 23 25  1  0  0  0  0
 25 37  1  0  0  0  0
M  END
> <PUBCHEM_COMPOUND_CID>
613127

> <PUBCHEM_CONFORMER_RMSD>
0.6

> <PUBCHEM_CONFORMER_DIVERSEORDER>
1
3
4
5
10
2
9
6
8
7

> <PUBCHEM_MMFF94_PARTIAL_CHARGES>
32
1 -0.18
10 -0.04
11 0.03
12 0.49
13 -0.14
14 0.47
15 0.1
16 0.09
17 0.18
18 -0.15
19 -0.15
2 -0.18
20 -0.15
21 -0.15
22 -0.15
23 0.18
24 0.18
25 -0.15
3 -0.18
31 0.4
32 0.15
33 0.15
34 0.15
35 0.15
36 0.15
37 0.15
4 -0.57
5 -0.57
6 -0.6
7 0.14
8 0.14
9 0.06

> <PUBCHEM_EFFECTIVE_ROTOR_COUNT>
1.6

> <PUBCHEM_PHARMACOPHORE_FEATURES>
8
1 4 acceptor
1 5 acceptor
1 6 cation
1 6 donor
6 13 17 18 21 22 24 rings
6 15 16 19 20 23 25 rings
6 6 10 11 14 15 16 rings
6 7 8 9 10 11 12 rings

> <PUBCHEM_HEAVY_ATOM_COUNT>
25

> <PUBCHEM_ATOM_DEF_STEREO_COUNT>
0

> <PUBCHEM_ATOM_UDEF_STEREO_COUNT>
1

> <PUBCHEM_BOND_DEF_STEREO_COUNT>
0

> <PUBCHEM_BOND_UDEF_STEREO_COUNT>
0

> <PUBCHEM_ISOTOPIC_ATOM_COUNT>
0

> <PUBCHEM_COMPONENT_COUNT>
1

> <PUBCHEM_CACTVS_TAUTO_COUNT>
29

> <PUBCHEM_CONFORMER_ID>
00095B0700000001

> <PUBCHEM_MMFF94_ENERGY>
69.4067

> <PUBCHEM_FEATURE_SELFOVERLAP>
40.644

> <PUBCHEM_SHAPE_FINGERPRINT>
10411042 1 18338795620524068596
10673678 19 16734692977145703052
10688039 33 18187364311767677532
11796584 16 16732985361639210682
12107183 9 16840252402023018771
12166972 35 18201998880584941297
12236239 1 17917714617136455515
12422481 6 17417254217205235566
12516196 113 18411697699062416893
12596602 18 17346599689924297762
12623949 98 17703238300013524398
12760667 363 18335986367877374522
13533116 47 18271805773714150105
13544653 18 18334581230481936813
13668630 136 18333449859341010731
13685833 64 18335421279283512135
13782708 43 17531816886901541027
13862211 1 18411135814472225950
13911852 28 18339079277054385430
13914758 101 18412545389090996505
14739800 52 16557895896302108240
14849402 71 17345745426042054592
15183329 4 14779545664882815815
15196674 1 18338515240737826532
17349148 13 18059862796069029171
17492 89 18122341273282199382
17857418 61 18272931635150792807
17870717 6 16732706052006622099
1813 80 18270696302036174501
18222031 100 18411130342414501816
19301676 85 16537072911156538927
19489759 90 16660359277741559007
200 152 18342735221972770397
20028762 73 18201718444474059774
20645477 70 18261669363127395869
21033648 29 17968079959028623701
21267235 1 18340770356477293486
21279426 13 18188198819776370693
21315764 119 15285631054374210986
21641784 216 18041295287387492268
21682296 61 18409733923966536495
221357 26 18260541234601999349
23402539 116 18341048532285741125
23522609 53 18125192427033948832
23559900 14 17023188274921221093
2871803 45 18113614569434237560
3004659 81 17967248685335662086
314194 84 18410858754827306146
345986 75 18130782317861943296
34797466 226 16443350930851191469
4015057 19 18262518229797556177
46194498 28 17458902750981426309
465052 167 18342459248817738678
5104073 3 18269269072304698104
57527295 17 17749657490720735059
59755656 215 17313097549547103075
59755656 520 8790881874596601065
7970288 3 18410852131814292542
8863177 126 17969233398445421939

> <PUBCHEM_SHAPE_MULTIPOLES>
503.38
16.44
2.58
1.23
4.25
1.14
-0.8
-13.13
0.45
-3.41
0.26
2.36
-0.12
-0.52

> <PUBCHEM_SHAPE_SELFOVERLAP>
1091.35

> <PUBCHEM_SHAPE_VOLUME>
277.7

> <PUBCHEM_COORDINATE_TYPE>
2
5
10

$$$$
