44368815
  -OEChem-10062121593D

 55 59  0     0  0  0  0  0  0999 V2000
    3.1996    2.3208   -1.6996 O   0  0  0  0  0  0  0  0  0  0  0  0
    1.7100    1.4379   -0.1089 N   0  0  0  0  0  0  0  0  0  0  0  0
    3.3084   -1.1222   -0.1093 N   0  0  0  0  0  0  0  0  0  0  0  0
   -4.7208    2.1530    2.0732 N   0  0  0  0  0  0  0  0  0  0  0  0
   -0.6723   -4.0844   -0.5674 N   0  0  0  0  0  0  0  0  0  0  0  0
   -3.1484    1.5015    0.3546 C   0  0  0  0  0  0  0  0  0  0  0  0
   -3.8568    0.3170    0.1215 C   0  0  0  0  0  0  0  0  0  0  0  0
   -1.9467    1.8662   -0.3707 C   0  0  0  0  0  0  0  0  0  0  0  0
   -5.0154    0.0539    0.8809 C   0  0  0  0  0  0  0  0  0  0  0  0
    0.4590    1.8274   -0.5886 C   0  0  0  0  0  0  0  0  0  0  0  0
   -0.6964    1.4764    0.1094 C   0  0  0  0  0  0  0  0  0  0  0  0
    4.2682   -0.1942    0.3530 C   0  0  0  0  0  0  0  0  0  0  0  0
    4.1276    1.1694    0.0962 C   0  0  0  0  0  0  0  0  0  0  0  0
   -2.0416    2.6069   -1.5489 C   0  0  0  0  0  0  0  0  0  0  0  0
   -3.4474   -0.6151   -0.8460 C   0  0  0  0  0  0  0  0  0  0  0  0
   -3.6170    2.3714    1.3273 C   0  0  0  0  0  0  0  0  0  0  0  0
    3.1622   -2.4288    0.4505 C   0  0  0  0  0  0  0  0  0  0  0  0
    2.9678    1.6962   -0.6699 C   0  0  0  0  0  0  0  0  0  0  0  0
    0.3642    2.5681   -1.7667 C   0  0  0  0  0  0  0  0  0  0  0  0
   -5.7406   -1.1290    0.6618 C   0  0  0  0  0  0  0  0  0  0  0  0
   -0.8860    2.9579   -2.2468 C   0  0  0  0  0  0  0  0  0  0  0  0
   -5.3913    1.0037    1.8329 C   0  0  0  0  0  0  0  0  0  0  0  0
    5.3673   -0.6582    1.0757 C   0  0  0  0  0  0  0  0  0  0  0  0
    5.0859    2.0694    0.5620 C   0  0  0  0  0  0  0  0  0  0  0  0
    1.8211   -3.0078    0.0945 C   0  0  0  0  0  0  0  0  0  0  0  0
   -4.1756   -1.7876   -1.0551 C   0  0  0  0  0  0  0  0  0  0  0  0
   -5.3197   -2.0440   -0.3030 C   0  0  0  0  0  0  0  0  0  0  0  0
    6.3258    0.2417    1.5418 C   0  0  0  0  0  0  0  0  0  0  0  0
    6.1852    1.6055    1.2849 C   0  0  0  0  0  0  0  0  0  0  0  0
    0.6761   -2.5734    0.7531 C   0  0  0  0  0  0  0  0  0  0  0  0
    1.7207   -3.9799   -0.8948 C   0  0  0  0  0  0  0  0  0  0  0  0
   -0.5355   -3.1381    0.3883 C   0  0  0  0  0  0  0  0  0  0  0  0
    0.4624   -4.4815   -1.1858 C   0  0  0  0  0  0  0  0  0  0  0  0
   -0.6197    0.8971    1.0278 H   0  0  0  0  0  0  0  0  0  0  0  0
   -3.0084    2.9184   -1.9372 H   0  0  0  0  0  0  0  0  0  0  0  0
   -2.5614   -0.4611   -1.4568 H   0  0  0  0  0  0  0  0  0  0  0  0
   -3.1073    3.3048    1.5508 H   0  0  0  0  0  0  0  0  0  0  0  0
    3.2327   -2.4076    1.5463 H   0  0  0  0  0  0  0  0  0  0  0  0
    3.9624   -3.0887    0.0932 H   0  0  0  0  0  0  0  0  0  0  0  0
    1.6956    0.9069    0.7596 H   0  0  0  0  0  0  0  0  0  0  0  0
    2.6002   -0.7772   -0.7480 H   0  0  0  0  0  0  0  0  0  0  0  0
    1.2101    2.8783   -2.3635 H   0  0  0  0  0  0  0  0  0  0  0  0
   -6.6360   -1.3448    1.2403 H   0  0  0  0  0  0  0  0  0  0  0  0
   -0.9612    3.5345   -3.1643 H   0  0  0  0  0  0  0  0  0  0  0  0
   -6.2734    0.8627    2.4515 H   0  0  0  0  0  0  0  0  0  0  0  0
    5.5189   -1.7129    1.2856 H   0  0  0  0  0  0  0  0  0  0  0  0
    4.9876    3.1350    0.3711 H   0  0  0  0  0  0  0  0  0  0  0  0
   -3.8482   -2.5020   -1.8051 H   0  0  0  0  0  0  0  0  0  0  0  0
   -5.8841   -2.9572   -0.4675 H   0  0  0  0  0  0  0  0  0  0  0  0
    7.1832   -0.1192    2.1023 H   0  0  0  0  0  0  0  0  0  0  0  0
    6.9315    2.3061    1.6477 H   0  0  0  0  0  0  0  0  0  0  0  0
    0.7182   -1.8156    1.5281 H   0  0  0  0  0  0  0  0  0  0  0  0
    2.5919   -4.3411   -1.4306 H   0  0  0  0  0  0  0  0  0  0  0  0
   -1.4576   -2.8334    0.8721 H   0  0  0  0  0  0  0  0  0  0  0  0
    0.3302   -5.2407   -1.9496 H   0  0  0  0  0  0  0  0  0  0  0  0
  1 18  2  0  0  0  0
  2 10  1  0  0  0  0
  2 18  1  0  0  0  0
  2 40  1  0  0  0  0
  3 12  1  0  0  0  0
  3 17  1  0  0  0  0
  3 41  1  0  0  0  0
  4 16  1  0  0  0  0
  4 22  2  0  0  0  0
  5 32  2  0  0  0  0
  5 33  1  0  0  0  0
  6  7  1  0  0  0  0
  6  8  1  0  0  0  0
  6 16  2  0  0  0  0
  7  9  1  0  0  0  0
  7 15  2  0  0  0  0
  8 11  2  0  0  0  0
  8 14  1  0  0  0  0
  9 20  2  0  0  0  0
  9 22  1  0  0  0  0
 10 11  1  0  0  0  0
 10 19  2  0  0  0  0
 11 34  1  0  0  0  0
 12 13  1  0  0  0  0
 12 23  2  0  0  0  0
 13 18  1  0  0  0  0
 13 24  2  0  0  0  0
 14 21  2  0  0  0  0
 14 35  1  0  0  0  0
 15 26  1  0  0  0  0
 15 36  1  0  0  0  0
 16 37  1  0  0  0  0
 17 25  1  0  0  0  0
 17 38  1  0  0  0  0
 17 39  1  0  0  0  0
 19 21  1  0  0  0  0
 19 42  1  0  0  0  0
 20 27  1  0  0  0  0
 20 43  1  0  0  0  0
 21 44  1  0  0  0  0
 22 45  1  0  0  0  0
 23 28  1  0  0  0  0
 23 46  1  0  0  0  0
 24 29  1  0  0  0  0
 24 47  1  0  0  0  0
 25 30  2  0  0  0  0
 25 31  1  0  0  0  0
 26 27  2  0  0  0  0
 26 48  1  0  0  0  0
 27 49  1  0  0  0  0
 28 29  2  0  0  0  0
 28 50  1  0  0  0  0
 29 51  1  0  0  0  0
 30 32  1  0  0  0  0
 30 52  1  0  0  0  0
 31 33  2  0  0  0  0
 31 53  1  0  0  0  0
 32 54  1  0  0  0  0
 33 55  1  0  0  0  0
M  END
> <PUBCHEM_COMPOUND_CID>
44368815

> <PUBCHEM_CONFORMER_RMSD>
1

> <PUBCHEM_CONFORMER_DIVERSEORDER>
1
119
7
126
43
89
141
100
129
56
150
84
161
77
152
134
66
62
75
124
112
131
109
87
130
125
99
153
120
111
24
121
65
97
70
158
49
34
48
61
98
72
138
132
26
59
143
137
92
80
96
91
57
71
118
90
133
154
156
42
73
142
29
104
115
146
148
86
69
20
28
37
47
31
55
160
11
94
40
15
51
74
27
67
88
106
114
83
46
36
3
32
127
44
105
82
95
147
22
14
116
101
13
159
117
76
135
145
102
107
52
4
68
149
60
113
58
122
85
64
9
39
136
12
17
54
19
103
78
108
139
81
5
128
30
157
144
8
16
151
155
140
21
79
38
33
123
6
63
23
50
10
35
2
110
41
53
45
93
18
25

> <PUBCHEM_MMFF94_PARTIAL_CHARGES>
49
1 -0.57
10 0.12
11 -0.15
12 0.1
13 0.09
14 -0.15
15 -0.15
16 0.16
17 0.51
18 0.54
19 -0.15
2 -0.55
20 -0.15
21 -0.15
22 0.16
23 -0.15
24 -0.15
25 -0.14
26 -0.15
27 -0.15
28 -0.15
29 -0.15
3 -0.87
30 -0.15
31 -0.15
32 0.16
33 0.16
34 0.15
35 0.15
36 0.15
37 0.15
4 -0.62
40 0.37
41 0.4
42 0.15
43 0.15
44 0.15
45 0.15
46 0.15
47 0.15
48 0.15
49 0.15
5 -0.62
50 0.15
51 0.15
52 0.15
53 0.15
54 0.15
55 0.15

> <PUBCHEM_EFFECTIVE_ROTOR_COUNT>
7

> <PUBCHEM_PHARMACOPHORE_FEATURES>
11
1 1 acceptor
1 2 donor
1 3 cation
1 3 donor
1 4 acceptor
1 5 acceptor
6 12 13 23 24 28 29 rings
6 4 6 7 9 16 22 rings
6 5 25 30 31 32 33 rings
6 7 9 15 20 26 27 rings
6 8 10 11 14 19 21 rings

> <PUBCHEM_HEAVY_ATOM_COUNT>
33

> <PUBCHEM_ATOM_DEF_STEREO_COUNT>
0

> <PUBCHEM_ATOM_UDEF_STEREO_COUNT>
0

> <PUBCHEM_BOND_DEF_STEREO_COUNT>
0

> <PUBCHEM_BOND_UDEF_STEREO_COUNT>
0

> <PUBCHEM_ISOTOPIC_ATOM_COUNT>
0

> <PUBCHEM_COMPONENT_COUNT>
1

> <PUBCHEM_CACTVS_TAUTO_COUNT>
7

> <PUBCHEM_CONFORMER_ID>
02A503AF00000001

> <PUBCHEM_MMFF94_ENERGY>
123.6157

> <PUBCHEM_FEATURE_SELFOVERLAP>
55.851

> <PUBCHEM_SHAPE_FINGERPRINT>
10815517 723 18337944697287455646
10864689 126 17616536159848602326
10939801 23 18120090843604753592
11513181 2 18060425707015194967
12166972 35 12468651516183003384
12422481 6 18262518091635747336
12596602 18 17632300068419805808
12655364 74 16189424437641236736
12788726 201 17472997562663430838
13583140 156 17917698072664891113
14394314 77 18341896316292463817
14395042 24 18265614480596754411
14747281 78 16661460967434693535
14784336 7 17912636110799566335
14840074 17 18260550047426452068
14904385 31 18338527450933989626
15001296 14 18190742122866691082
15297060 5 18059580216880172402
15361156 5 17677628470546930572
15968369 153 17984143930936784727
16067690 210 16128106533178446323
16112460 7 18266178520954540216
19301679 30 17968675843319265617
1979834 28 18264223438455150880
20028762 73 18341333387217513574
20764821 26 18043837456896609287
21133410 38 18202284667872535415
21133410 90 17271732985723007971
21197605 99 18337394941046708826
21315764 371 18130799948924369016
22113638 7 18119245305539503510
229767 44 18337950207218961826
25019877 29 17988924534638329694
338550 245 18407761456177849044
3633792 109 18194958549299185077
373842 8 18189619512905525115
392239 28 18334288751909828962
437795 96 17972870363502373085
4403749 210 18190718943714899348
463206 1 18264209273868974547
50080093 196 18335697252328710291
563151 248 17846491552629998478
6287921 2 18268717116956071679
9982175 49 18189901005045904093

> <PUBCHEM_SHAPE_MULTIPOLES>
653.33
13.88
5.35
1.68
3.73
5.5
0.13
-3.31
-7.94
0.58
2.17
-0.73
-1.19
-0.86

> <PUBCHEM_SHAPE_SELFOVERLAP>
1457.089

> <PUBCHEM_SHAPE_VOLUME>
343.7

> <PUBCHEM_COORDINATE_TYPE>
2
5
10

$$$$
