44440254
  -OEChem-10062121573D

 54 58  0     0  0  0  0  0  0999 V2000
   -1.5855   -1.8035    0.7223 S   0  0  0  0  0  0  0  0  0  0  0  0
    8.2313   -1.0301   -0.3843 O   0  0  0  0  0  0  0  0  0  0  0  0
    8.3441   -3.6288   -0.2152 O   0  0  0  0  0  0  0  0  0  0  0  0
   -7.1733    0.2345   -0.0129 O   0  0  0  0  0  0  0  0  0  0  0  0
    1.6570    3.3102    0.0202 N   0  0  0  0  0  0  0  0  0  0  0  0
    0.4334    2.7461    0.1901 N   0  0  0  0  0  0  0  0  0  0  0  0
    5.8889   -0.9533   -0.1350 N   0  0  0  0  0  0  0  0  0  0  0  0
    3.0242    0.0253    0.1017 C   0  0  0  0  0  0  0  0  0  0  0  0
    2.0506    1.1526    0.1275 C   0  0  0  0  0  0  0  0  0  0  0  0
    4.2963    0.8732   -0.0925 C   0  0  0  0  0  0  0  0  0  0  0  0
    2.6296    2.3817   -0.0198 C   0  0  0  0  0  0  0  0  0  0  0  0
    4.0370    2.2710   -0.1620 C   0  0  0  0  0  0  0  0  0  0  0  0
    0.6882    1.4252    0.2544 C   0  0  0  0  0  0  0  0  0  0  0  0
    5.5946    0.4074   -0.1984 C   0  0  0  0  0  0  0  0  0  0  0  0
    5.0325    3.2065   -0.3328 C   0  0  0  0  0  0  0  0  0  0  0  0
   -0.3401    0.4249    0.4346 C   0  0  0  0  0  0  0  0  0  0  0  0
    6.6178    1.3463   -0.3723 C   0  0  0  0  0  0  0  0  0  0  0  0
    6.3399    2.7269   -0.4384 C   0  0  0  0  0  0  0  0  0  0  0  0
   -1.7201    0.7569    0.5593 C   0  0  0  0  0  0  0  0  0  0  0  0
   -0.1263   -0.9340    0.5060 C   0  0  0  0  0  0  0  0  0  0  0  0
    7.1428   -1.5742   -0.2250 C   0  0  0  0  0  0  0  0  0  0  0  0
   -2.5085   -0.3612    0.7208 C   0  0  0  0  0  0  0  0  0  0  0  0
    7.0467   -3.0801   -0.1100 C   0  0  0  0  0  0  0  0  0  0  0  0
   -3.9251   -0.3450    0.8709 C   0  0  0  0  0  0  0  0  0  0  0  0
   -5.1196   -0.3310    0.9967 C   0  0  0  0  0  0  0  0  0  0  0  0
    8.3288   -5.0496   -0.1150 C   0  0  0  0  0  0  0  0  0  0  0  0
   -6.5736   -0.3146    1.1518 C   0  0  0  0  0  0  0  0  0  0  0  0
   -8.4349   -0.2025   -0.3240 C   0  0  0  0  0  0  0  0  0  0  0  0
   -9.3051   -0.6009    0.6909 C   0  0  0  0  0  0  0  0  0  0  0  0
   -8.8485   -0.2489   -1.6552 C   0  0  0  0  0  0  0  0  0  0  0  0
  -10.5889   -1.0456    0.3744 C   0  0  0  0  0  0  0  0  0  0  0  0
  -10.1320   -0.6935   -1.9718 C   0  0  0  0  0  0  0  0  0  0  0  0
  -11.0023   -1.0919   -0.9569 C   0  0  0  0  0  0  0  0  0  0  0  0
    2.8653   -0.6379   -0.7521 H   0  0  0  0  0  0  0  0  0  0  0  0
    3.0577   -0.5132    1.0520 H   0  0  0  0  0  0  0  0  0  0  0  0
    1.7215    4.3182   -0.0562 H   0  0  0  0  0  0  0  0  0  0  0  0
    4.8223    4.2684   -0.3840 H   0  0  0  0  0  0  0  0  0  0  0  0
    7.6634    1.0833   -0.4648 H   0  0  0  0  0  0  0  0  0  0  0  0
    7.1585    3.4295   -0.5740 H   0  0  0  0  0  0  0  0  0  0  0  0
    5.0893   -1.5690   -0.0060 H   0  0  0  0  0  0  0  0  0  0  0  0
   -2.1240    1.7628    0.5327 H   0  0  0  0  0  0  0  0  0  0  0  0
    0.7992   -1.4868    0.4453 H   0  0  0  0  0  0  0  0  0  0  0  0
    6.4093   -3.4560   -0.9181 H   0  0  0  0  0  0  0  0  0  0  0  0
    6.6058   -3.3325    0.8608 H   0  0  0  0  0  0  0  0  0  0  0  0
    7.9297   -5.3595    0.8555 H   0  0  0  0  0  0  0  0  0  0  0  0
    9.3566   -5.4113   -0.2034 H   0  0  0  0  0  0  0  0  0  0  0  0
    7.7334   -5.4829   -0.9245 H   0  0  0  0  0  0  0  0  0  0  0  0
   -6.8476    0.2975    2.0184 H   0  0  0  0  0  0  0  0  0  0  0  0
   -6.8961   -1.3492    1.3268 H   0  0  0  0  0  0  0  0  0  0  0  0
   -9.0329   -0.5543    1.7411 H   0  0  0  0  0  0  0  0  0  0  0  0
   -8.1749    0.0600   -2.4499 H   0  0  0  0  0  0  0  0  0  0  0  0
  -11.2690   -1.3499    1.1646 H   0  0  0  0  0  0  0  0  0  0  0  0
  -10.4541   -0.7292   -3.0084 H   0  0  0  0  0  0  0  0  0  0  0  0
  -12.0022   -1.4367   -1.2033 H   0  0  0  0  0  0  0  0  0  0  0  0
  1 20  1  0  0  0  0
  1 22  1  0  0  0  0
  2 21  2  0  0  0  0
  3 23  1  0  0  0  0
  3 26  1  0  0  0  0
  4 27  1  0  0  0  0
  4 28  1  0  0  0  0
  5  6  1  0  0  0  0
  5 11  1  0  0  0  0
  5 36  1  0  0  0  0
  6 13  2  0  0  0  0
  7 14  1  0  0  0  0
  7 21  1  0  0  0  0
  7 40  1  0  0  0  0
  8  9  1  0  0  0  0
  8 10  1  0  0  0  0
  8 34  1  0  0  0  0
  8 35  1  0  0  0  0
  9 11  2  0  0  0  0
  9 13  1  0  0  0  0
 10 12  2  0  0  0  0
 10 14  1  0  0  0  0
 11 12  1  0  0  0  0
 12 15  1  0  0  0  0
 13 16  1  0  0  0  0
 14 17  2  0  0  0  0
 15 18  2  0  0  0  0
 15 37  1  0  0  0  0
 16 19  1  0  0  0  0
 16 20  2  0  0  0  0
 17 18  1  0  0  0  0
 17 38  1  0  0  0  0
 18 39  1  0  0  0  0
 19 22  2  0  0  0  0
 19 41  1  0  0  0  0
 20 42  1  0  0  0  0
 21 23  1  0  0  0  0
 22 24  1  0  0  0  0
 23 43  1  0  0  0  0
 23 44  1  0  0  0  0
 24 25  3  0  0  0  0
 25 27  1  0  0  0  0
 26 45  1  0  0  0  0
 26 46  1  0  0  0  0
 26 47  1  0  0  0  0
 27 48  1  0  0  0  0
 27 49  1  0  0  0  0
 28 29  2  0  0  0  0
 28 30  1  0  0  0  0
 29 31  1  0  0  0  0
 29 50  1  0  0  0  0
 30 32  2  0  0  0  0
 30 51  1  0  0  0  0
 31 33  2  0  0  0  0
 31 52  1  0  0  0  0
 32 33  1  0  0  0  0
 32 53  1  0  0  0  0
 33 54  1  0  0  0  0
M  END
> <PUBCHEM_COMPOUND_CID>
44440254

> <PUBCHEM_CONFORMER_RMSD>
1

> <PUBCHEM_CONFORMER_DIVERSEORDER>
1
8
41
47
52
28
58
68
18
51
37
38
43
11
23
63
62
39
22
34
49
46
15
6
44
7
66
25
2
20
5
30
4
40
16
31
55
12
35
64
45
32
72
74
73
48
36
14
59
56
21
17
67
60
75
27
69
24
54
19
26
13
65
29
71
10
76
50
9
42
33
53
70
61
57
3

> <PUBCHEM_MMFF94_PARTIAL_CHARGES>
44
1 -0.08
10 -0.14
11 -0.2
12 0.05
13 0.29
14 0.12
15 -0.15
17 -0.15
18 -0.15
19 -0.15
2 -0.57
20 -0.11
21 0.57
22 0.06
23 0.34
24 -0.02
25 -0.2
26 0.28
27 0.48
28 0.08
29 -0.15
3 -0.56
30 -0.15
31 -0.15
32 -0.15
33 -0.15
36 0.27
37 0.15
38 0.15
39 0.15
4 -0.36
40 0.37
41 0.15
42 0.15
5 0.3
50 0.15
51 0.15
52 0.15
53 0.15
54 0.15
6 -0.71
7 -0.55
8 0.32
9 -0.18

> <PUBCHEM_EFFECTIVE_ROTOR_COUNT>
7.2

> <PUBCHEM_PHARMACOPHORE_FEATURES>
11
1 2 acceptor
1 3 acceptor
1 4 acceptor
1 5 donor
1 6 acceptor
1 7 donor
5 1 16 19 20 22 rings
5 5 6 9 11 13 rings
5 8 9 10 11 12 rings
6 10 12 14 15 17 18 rings
6 28 29 30 31 32 33 rings

> <PUBCHEM_HEAVY_ATOM_COUNT>
33

> <PUBCHEM_ATOM_DEF_STEREO_COUNT>
0

> <PUBCHEM_ATOM_UDEF_STEREO_COUNT>
0

> <PUBCHEM_BOND_DEF_STEREO_COUNT>
0

> <PUBCHEM_BOND_UDEF_STEREO_COUNT>
0

> <PUBCHEM_ISOTOPIC_ATOM_COUNT>
0

> <PUBCHEM_COMPONENT_COUNT>
1

> <PUBCHEM_CACTVS_TAUTO_COUNT>
4

> <PUBCHEM_CONFORMER_ID>
02A61ABE00000001

> <PUBCHEM_MMFF94_ENERGY>
100.4581

> <PUBCHEM_FEATURE_SELFOVERLAP>
56.173

> <PUBCHEM_SHAPE_FINGERPRINT>
10411042 1 18265338310167475584
10625338 86 15791998010170604117
10666366 153 17749108894236637343
11409948 35 18409730638300652843
11409948 41 18272645719616294255
11409948 8 11383820594285083887
11672396 167 18339079289955254618
11828042 291 18263059090666304439
11966995 16 18186806847020477246
12089408 11 17917716821024559769
12592606 108 18411983537610089859
13150687 139 18259983795619542443
14117953 113 18343029882784404094
14202775 3 18336552707547235259
14216079 64 18410858737905886914
14400156 413 18337952423497017928
14428016 248 11818994076676185655
14617042 71 8790876393612150418
150020 25 17894908547485953597
15152005 1 17909273486621151854
15152005 77 18200032807792743270
15198563 99 17240763935067344653
15289351 153 18261386742075055617
15392192 104 16128658549015367996
15461852 350 16558762234761973713
15510794 2 17968381242557728699
15840311 113 18114184180713565557
1754911 235 18334287709472083309
18335252 114 18336542811356548225
19315958 150 18262805197726539528
20156587 128 18202279188227073293
2026 5 18341612551713114199
20771845 140 16630528406499195926
21133410 58 18408887365087037506
21792934 111 18409441523363509448
21792938 131 17749942268559153730
21895431 317 18202283554927847791
23524908 199 18335416868304282349
335352 9 18410299129025435196
4353968 344 18271806775327980477
437795 160 16128655250343587763
437795 83 18334566933966000837
474113 269 18340769256322074254
5028188 123 14273747286780988979
58902169 19 18129939105215408085
59682541 35 11959733781017990201
6081469 158 18113618979980613461
9663363 56 18261108591798573304

> <PUBCHEM_SHAPE_MULTIPOLES>
650.42
38.51
3.96
1.05
81.99
2.95
-0.27
27.43
-12.54
-17.31
-0.41
2.98
0.17
-0.13

> <PUBCHEM_SHAPE_SELFOVERLAP>
1423.168

> <PUBCHEM_SHAPE_VOLUME>
354.5

> <PUBCHEM_COORDINATE_TYPE>
2
5
10

$$$$
