45273796
  -OEChem-10062122033D

 36 39  0     0  0  0  0  0  0999 V2000
    4.6236    1.5961    0.9789 O   0  0  0  0  0  0  0  0  0  0  0  0
   -3.4235    2.8812   -0.2040 O   0  0  0  0  0  0  0  0  0  0  0  0
    3.5215   -0.3147    0.1569 N   0  0  0  0  0  0  0  0  0  0  0  0
   -2.8370   -0.6801   -0.0854 N   0  0  0  0  0  0  0  0  0  0  0  0
   -1.4992    1.7227    0.2639 N   0  0  0  0  0  0  0  0  0  0  0  0
    3.6056   -1.1526   -1.0158 C   0  0  0  0  0  0  0  0  0  0  0  0
    4.2780   -0.2533   -2.0336 C   0  0  0  0  0  0  0  0  0  0  0  0
    5.1625    0.6568   -1.1900 C   0  0  0  0  0  0  0  0  0  0  0  0
    2.6819   -0.6667    1.2812 C   0  0  0  0  0  0  0  0  0  0  0  0
    4.4162    0.7522    0.1199 C   0  0  0  0  0  0  0  0  0  0  0  0
    1.2336   -0.6826    0.9241 C   0  0  0  0  0  0  0  0  0  0  0  0
   -1.4689   -0.7279    0.2538 C   0  0  0  0  0  0  0  0  0  0  0  0
   -0.8104    0.5004    0.4260 C   0  0  0  0  0  0  0  0  0  0  0  0
    0.5441    0.5197    0.7620 C   0  0  0  0  0  0  0  0  0  0  0  0
    0.5736   -1.9015    0.7518 C   0  0  0  0  0  0  0  0  0  0  0  0
   -0.7814   -1.9315    0.4157 C   0  0  0  0  0  0  0  0  0  0  0  0
   -3.5004    0.5221   -0.2417 C   0  0  0  0  0  0  0  0  0  0  0  0
   -2.8475    1.8030   -0.0702 C   0  0  0  0  0  0  0  0  0  0  0  0
   -3.7154   -1.7122   -0.3108 C   0  0  0  0  0  0  0  0  0  0  0  0
   -4.8116    0.2379   -0.5695 C   0  0  0  0  0  0  0  0  0  0  0  0
   -4.9454   -1.1690   -0.6132 C   0  0  0  0  0  0  0  0  0  0  0  0
    2.6199   -1.4769   -1.3581 H   0  0  0  0  0  0  0  0  0  0  0  0
    4.2212   -2.0248   -0.7727 H   0  0  0  0  0  0  0  0  0  0  0  0
    3.5222    0.3518   -2.5502 H   0  0  0  0  0  0  0  0  0  0  0  0
    4.8371   -0.8104   -2.7904 H   0  0  0  0  0  0  0  0  0  0  0  0
    6.1415    0.2039   -1.0049 H   0  0  0  0  0  0  0  0  0  0  0  0
    5.2839    1.6425   -1.6455 H   0  0  0  0  0  0  0  0  0  0  0  0
    3.0147   -1.6451    1.6480 H   0  0  0  0  0  0  0  0  0  0  0  0
    2.8521    0.0428    2.1000 H   0  0  0  0  0  0  0  0  0  0  0  0
    1.0617    1.4667    0.8967 H   0  0  0  0  0  0  0  0  0  0  0  0
    1.1067   -2.8411    0.8747 H   0  0  0  0  0  0  0  0  0  0  0  0
   -1.2612   -2.8964    0.2891 H   0  0  0  0  0  0  0  0  0  0  0  0
   -0.9791    2.5850    0.3993 H   0  0  0  0  0  0  0  0  0  0  0  0
   -3.4160   -2.7490   -0.2436 H   0  0  0  0  0  0  0  0  0  0  0  0
   -5.5880    0.9669   -0.7573 H   0  0  0  0  0  0  0  0  0  0  0  0
   -5.8409   -1.7305   -0.8400 H   0  0  0  0  0  0  0  0  0  0  0  0
  1 10  2  0  0  0  0
  2 18  2  0  0  0  0
  3  6  1  0  0  0  0
  3  9  1  0  0  0  0
  3 10  1  0  0  0  0
  4 12  1  0  0  0  0
  4 17  1  0  0  0  0
  4 19  1  0  0  0  0
  5 13  1  0  0  0  0
  5 18  1  0  0  0  0
  5 33  1  0  0  0  0
  6  7  1  0  0  0  0
  6 22  1  0  0  0  0
  6 23  1  0  0  0  0
  7  8  1  0  0  0  0
  7 24  1  0  0  0  0
  7 25  1  0  0  0  0
  8 10  1  0  0  0  0
  8 26  1  0  0  0  0
  8 27  1  0  0  0  0
  9 11  1  0  0  0  0
  9 28  1  0  0  0  0
  9 29  1  0  0  0  0
 11 14  2  0  0  0  0
 11 15  1  0  0  0  0
 12 13  2  0  0  0  0
 12 16  1  0  0  0  0
 13 14  1  0  0  0  0
 14 30  1  0  0  0  0
 15 16  2  0  0  0  0
 15 31  1  0  0  0  0
 16 32  1  0  0  0  0
 17 18  1  0  0  0  0
 17 20  2  0  0  0  0
 19 21  2  0  0  0  0
 19 34  1  0  0  0  0
 20 21  1  0  0  0  0
 20 35  1  0  0  0  0
 21 36  1  0  0  0  0
M  END
> <PUBCHEM_COMPOUND_CID>
45273796

> <PUBCHEM_CONFORMER_RMSD>
0.6

> <PUBCHEM_CONFORMER_DIVERSEORDER>
1
10
7
9
6
13
14
5
15
8
12
2
11
4
3

> <PUBCHEM_MMFF94_PARTIAL_CHARGES>
27
1 -0.57
10 0.57
11 -0.14
12 -0.02
13 0.12
14 -0.15
15 -0.15
16 -0.15
17 -0.24
18 0.71
19 -0.3
2 -0.57
20 -0.15
21 -0.15
3 -0.66
30 0.15
31 0.15
32 0.15
33 0.37
34 0.15
35 0.15
36 0.15
4 0.33
5 -0.55
6 0.3
8 0.06
9 0.44

> <PUBCHEM_EFFECTIVE_ROTOR_COUNT>
2.8

> <PUBCHEM_PHARMACOPHORE_FEATURES>
8
1 1 acceptor
1 2 acceptor
1 4 cation
1 5 donor
5 3 6 7 8 10 rings
5 4 17 19 20 21 rings
6 11 12 13 14 15 16 rings
6 4 5 12 13 17 18 rings

> <PUBCHEM_HEAVY_ATOM_COUNT>
21

> <PUBCHEM_ATOM_DEF_STEREO_COUNT>
0

> <PUBCHEM_ATOM_UDEF_STEREO_COUNT>
0

> <PUBCHEM_BOND_DEF_STEREO_COUNT>
0

> <PUBCHEM_BOND_UDEF_STEREO_COUNT>
0

> <PUBCHEM_ISOTOPIC_ATOM_COUNT>
0

> <PUBCHEM_COMPONENT_COUNT>
1

> <PUBCHEM_CACTVS_TAUTO_COUNT>
4

> <PUBCHEM_CONFORMER_ID>
02B2D2C400000001

> <PUBCHEM_MMFF94_ENERGY>
43.5979

> <PUBCHEM_FEATURE_SELFOVERLAP>
40.723

> <PUBCHEM_SHAPE_FINGERPRINT>
10498660 4 18337386045968705496
10670039 82 18041007198366275996
10906281 52 18338238164261106167
12173636 292 18335697213272181423
12236239 1 17748821916926993562
12390115 104 18057613066894395897
12670546 177 18201722864068331110
128620 24 18410854365048703350
12892183 10 10737587041179265982
12916748 109 18407762551104514939
14251757 17 18202844348843947088
14420673 8 9438864780213638796
14528608 73 18261109690276005212
14739800 52 18263063566190551256
14790565 3 17694506945070778849
15885798 251 11167943558744437042
15961568 22 18263922318958132404
1813 80 13758079614524377784
18186145 218 18202008694394970728
200 152 16056890113297377202
20645477 70 17060629893264282582
20871999 31 18341900679456379424
21033650 10 18265352633081768868
21267235 1 18340486781488532127
22122407 14 15430040945867956157
221357 26 18202281411617119793
22393880 68 18339079276964253684
2297311 6 18272375291289472511
23366157 5 17826509959856375115
235170 7 17846786195559512148
23557571 272 18272090513335478048
23559900 14 18271804687514815528
23596394 208 17846219930134139030
3004659 81 18336546019865936418
3323516 105 17632577141207862438
3472631 163 17895762936513431004
34797466 226 17988644141876747621
351380 3 13254803434302749156
4340502 62 15791729694150781555
46194498 28 17988928928816718500
465052 167 13758078540508246862
474 4 17022907852327529474
4990 188 18131632266394336714
5104073 3 18335134241933536769
5281201 14 17988929968114193388
67856867 119 18188759553474049754
7237137 82 18261382344191945005
9709674 26 18342461490827408134

> <PUBCHEM_SHAPE_MULTIPOLES>
405.49
11.4
2.11
1.22
4.02
0.66
-0.31
1.97
-4.31
-1.75
0.17
1.64
-0.14
0.04

> <PUBCHEM_SHAPE_SELFOVERLAP>
902.39

> <PUBCHEM_SHAPE_VOLUME>
216.1

> <PUBCHEM_COORDINATE_TYPE>
2
5
10

$$$$
