17759555
  -OEChem-10062122013D

 42 45  0     0  0  0  0  0  0999 V2000
   -5.2445   -1.2963    1.4326 Cl  0  0  0  0  0  0  0  0  0  0  0  0
    3.0805    1.4442    2.8053 Cl  0  0  0  0  0  0  0  0  0  0  0  0
    5.1050    1.6935    0.6546 F   0  0  0  0  0  0  0  0  0  0  0  0
   -1.1931   -3.4666   -0.7897 N   0  0  0  0  0  0  0  0  0  0  0  0
   -0.1027    1.5173   -1.2059 N   0  0  0  0  0  0  0  0  0  0  0  0
   -3.8085    1.2129    0.7505 N   0  0  0  0  0  0  0  0  0  0  0  0
    2.1738   -2.3375   -0.6669 N   0  0  0  0  0  0  0  0  0  0  0  0
    2.8475   -3.5722    1.0515 N   0  0  0  0  0  0  0  0  0  0  0  0
   -1.0718    4.9293   -0.5813 N   0  0  0  0  0  0  0  0  0  0  0  0
   -1.9148    0.1447   -0.2891 C   0  0  0  0  0  0  0  0  0  0  0  0
   -1.3540    1.4030   -0.5463 C   0  0  0  0  0  0  0  0  0  0  0  0
   -1.8460   -2.2788   -0.4033 C   0  0  0  0  0  0  0  0  0  0  0  0
   -3.1606    0.0952    0.3707 C   0  0  0  0  0  0  0  0  0  0  0  0
   -1.2666   -1.0420   -0.6713 C   0  0  0  0  0  0  0  0  0  0  0  0
    0.0696   -3.4765   -1.4622 C   0  0  0  0  0  0  0  0  0  0  0  0
   -3.0728   -2.3350    0.2464 C   0  0  0  0  0  0  0  0  0  0  0  0
   -3.7172   -1.1550    0.6262 C   0  0  0  0  0  0  0  0  0  0  0  0
   -2.0192    2.5564   -0.1564 C   0  0  0  0  0  0  0  0  0  0  0  0
    1.2570   -3.3435   -0.5470 C   0  0  0  0  0  0  0  0  0  0  0  0
    1.2159    1.5628   -0.7301 C   0  0  0  0  0  0  0  0  0  0  0  0
   -3.2331    2.4077    0.4833 C   0  0  0  0  0  0  0  0  0  0  0  0
    1.4661    1.4896    0.6402 C   0  0  0  0  0  0  0  0  0  0  0  0
    2.2771    1.6803   -1.6277 C   0  0  0  0  0  0  0  0  0  0  0  0
    1.6940   -4.0927    0.5201 C   0  0  0  0  0  0  0  0  0  0  0  0
    3.1093   -2.5163    0.3138 C   0  0  0  0  0  0  0  0  0  0  0  0
    2.7778    1.5338    1.1130 C   0  0  0  0  0  0  0  0  0  0  0  0
    3.5886    1.7245   -1.1551 C   0  0  0  0  0  0  0  0  0  0  0  0
   -1.4962    3.8662   -0.3909 C   0  0  0  0  0  0  0  0  0  0  0  0
    3.8390    1.6512    0.2152 C   0  0  0  0  0  0  0  0  0  0  0  0
   -0.3150   -0.9762   -1.1856 H   0  0  0  0  0  0  0  0  0  0  0  0
    0.1104   -2.7583   -2.2902 H   0  0  0  0  0  0  0  0  0  0  0  0
    0.1695   -4.4549   -1.9517 H   0  0  0  0  0  0  0  0  0  0  0  0
   -1.6313   -4.3476   -0.5451 H   0  0  0  0  0  0  0  0  0  0  0  0
   -3.5294   -3.2998    0.4578 H   0  0  0  0  0  0  0  0  0  0  0  0
   -0.1954    1.5703   -2.2162 H   0  0  0  0  0  0  0  0  0  0  0  0
   -3.8102    3.2653    0.8175 H   0  0  0  0  0  0  0  0  0  0  0  0
    2.1649   -1.5946   -1.3532 H   0  0  0  0  0  0  0  0  0  0  0  0
    0.6479    1.3968    1.3505 H   0  0  0  0  0  0  0  0  0  0  0  0
    2.0964    1.7373   -2.6981 H   0  0  0  0  0  0  0  0  0  0  0  0
    1.2379   -4.9803    0.9344 H   0  0  0  0  0  0  0  0  0  0  0  0
    3.9485   -1.8465    0.4356 H   0  0  0  0  0  0  0  0  0  0  0  0
    4.4151    1.8150   -1.8537 H   0  0  0  0  0  0  0  0  0  0  0  0
  1 17  1  0  0  0  0
  2 26  1  0  0  0  0
  3 29  1  0  0  0  0
  4 12  1  0  0  0  0
  4 15  1  0  0  0  0
  4 33  1  0  0  0  0
  5 11  1  0  0  0  0
  5 20  1  0  0  0  0
  5 35  1  0  0  0  0
  6 13  2  0  0  0  0
  6 21  1  0  0  0  0
  7 19  1  0  0  0  0
  7 25  1  0  0  0  0
  7 37  1  0  0  0  0
  8 24  1  0  0  0  0
  8 25  2  0  0  0  0
  9 28  3  0  0  0  0
 10 11  2  0  0  0  0
 10 13  1  0  0  0  0
 10 14  1  0  0  0  0
 11 18  1  0  0  0  0
 12 14  2  0  0  0  0
 12 16  1  0  0  0  0
 13 17  1  0  0  0  0
 14 30  1  0  0  0  0
 15 19  1  0  0  0  0
 15 31  1  0  0  0  0
 15 32  1  0  0  0  0
 16 17  2  0  0  0  0
 16 34  1  0  0  0  0
 18 21  2  0  0  0  0
 18 28  1  0  0  0  0
 19 24  2  0  0  0  0
 20 22  2  0  0  0  0
 20 23  1  0  0  0  0
 21 36  1  0  0  0  0
 22 26  1  0  0  0  0
 22 38  1  0  0  0  0
 23 27  2  0  0  0  0
 23 39  1  0  0  0  0
 24 40  1  0  0  0  0
 25 41  1  0  0  0  0
 26 29  2  0  0  0  0
 27 29  1  0  0  0  0
 27 42  1  0  0  0  0
M  END
> <PUBCHEM_COMPOUND_CID>
17759555

> <PUBCHEM_CONFORMER_RMSD>
0.8

> <PUBCHEM_CONFORMER_DIVERSEORDER>
1
170
143
114
10
206
163
5
196
46
184
203
107
166
193
84
76
208
66
217
17
228
223
36
100
97
145
204
6
186
104
226
105
148
38
159
99
40
147
82
205
24
213
131
43
85
202
58
153
221
28
150
44
216
51
225
113
194
135
134
91
2
98
103
177
83
22
96
222
156
183
89
53
8
144
162
229
48
23
64
30
173
74
171
75
129
180
167
161
80
214
57
209
111
138
181
67
25
152
192
32
12
132
136
174
218
191
142
15
49
78
45
197
151
130
59
189
139
140
200
13
164
169
201
33
165
11
94
71
34
198
93
31
220
39
155
146
219
182
16
92
90
73
224
207
70
27
35
68
54
123
149
125
212
14
141
195
117
119
21
86
19
95
7
37
178
63
137
61
110
26
3
81
133
101
65
211
157
88
77
168
79
18
199
87
190
121
118
20
41
210
188
172
72
4
102
185
120
56
115
124
160
127
109
29
179
69
158
116
42
122
62
60
52
175
9
106
126
187
50
112
227
55
47
154
215
176
128
108

> <PUBCHEM_MMFF94_PARTIAL_CHARGES>
39
1 -0.18
11 0.1
12 0.1
13 0.31
14 -0.15
15 0.55
16 -0.15
17 0.18
18 0.07
19 -0.33
2 -0.18
20 0.1
21 0.16
22 -0.15
23 -0.15
24 0.08
25 0.04
26 0.18
27 -0.15
28 0.48
29 0.19
3 -0.19
30 0.15
33 0.4
34 0.15
35 0.4
36 0.15
37 0.27
38 0.15
39 0.15
4 -0.87
40 0.15
41 0.15
42 0.15
5 -0.6
6 -0.62
7 0.03
8 -0.57
9 -0.56

> <PUBCHEM_EFFECTIVE_ROTOR_COUNT>
5

> <PUBCHEM_PHARMACOPHORE_FEATURES>
12
1 4 cation
1 4 donor
1 5 cation
1 5 donor
1 6 acceptor
1 7 donor
1 9 acceptor
3 7 8 25 cation
5 7 8 19 24 25 rings
6 10 12 13 14 16 17 rings
6 20 22 23 26 27 29 rings
6 6 10 11 13 18 21 rings

> <PUBCHEM_HEAVY_ATOM_COUNT>
29

> <PUBCHEM_ATOM_DEF_STEREO_COUNT>
0

> <PUBCHEM_ATOM_UDEF_STEREO_COUNT>
0

> <PUBCHEM_BOND_DEF_STEREO_COUNT>
0

> <PUBCHEM_BOND_UDEF_STEREO_COUNT>
0

> <PUBCHEM_ISOTOPIC_ATOM_COUNT>
0

> <PUBCHEM_COMPONENT_COUNT>
1

> <PUBCHEM_CACTVS_TAUTO_COUNT>
6

> <PUBCHEM_CONFORMER_ID>
010EFD4300000001

> <PUBCHEM_MMFF94_ENERGY>
93.5191

> <PUBCHEM_FEATURE_SELFOVERLAP>
60.928

> <PUBCHEM_SHAPE_FINGERPRINT>
10006869 2 18271536295509264969
10675989 125 17332791156190205279
1100329 8 17762344613332920409
11578080 2 17241044297763290559
12156800 1 15434584274391570658
12166972 35 12318642954503857256
12422481 6 18122313858764049138
12553582 1 18192710266113746773
12788726 201 16757760923811009415
13122387 1 18050569534506920662
13140716 1 18265906757077662145
14178342 30 18197493132888067598
14725015 67 17902230010404569059
150020 26 18126559012280178978
15420108 30 18059027176223462919
19301679 30 18261126166693836353
19319366 153 17171797291727135448
20028762 73 17695643122818413071
20600515 1 17045934021983059829
20642791 178 17542525837634300092
20905425 154 18341062842911355366
21796203 349 17539724655383934864
23559900 14 18336829667489320605
338550 245 18335707186924714606
350125 39 18339653243324276711
445580 8 18190732240221134114
5265222 85 18267594671036411196
56638632 10 17193475941226997929
57091435 65 18408889529407319054
602551 16 18126568044881335876
6287921 2 18411696573897679778

> <PUBCHEM_SHAPE_MULTIPOLES>
563.39
7.86
6.23
1.53
0.6
2.02
0.67
-1
3.54
-0.89
-1.05
-1.16
-0.26
0.1

> <PUBCHEM_SHAPE_SELFOVERLAP>
1230.366

> <PUBCHEM_SHAPE_VOLUME>
308.1

> <PUBCHEM_COORDINATE_TYPE>
2
5
10

$$$$
