5327966
  -OEChem-10052115173D

 65 68  0     1  0  0  0  0  0999 V2000
   -2.4157    1.6688   -0.1051 O   0  0  0  0  0  0  0  0  0  0  0  0
   -2.3180   -0.6456    1.5552 O   0  0  0  0  0  0  0  0  0  0  0  0
   -1.9557    2.0097   -2.3346 O   0  0  0  0  0  0  0  0  0  0  0  0
    1.9408    2.2311    2.1268 O   0  0  0  0  0  0  0  0  0  0  0  0
    2.9629    0.4465   -2.2091 O   0  0  0  0  0  0  0  0  0  0  0  0
   -2.4847   -6.4890   -0.8659 O   0  0  0  0  0  0  0  0  0  0  0  0
    4.5445    2.1657    0.7041 O   0  0  0  0  0  0  0  0  0  0  0  0
    7.7453    1.0686    0.7891 O   0  0  0  0  0  0  0  0  0  0  0  0
    6.5971    1.6957   -1.0697 O   0  0  0  0  0  0  0  0  0  0  0  0
   -6.4505    2.3157    1.3230 N   0  0  0  0  0  0  0  0  0  0  0  0
   -4.2632   -0.4994    0.3034 N   0  0  0  0  0  0  0  0  0  0  0  0
   -4.5594    0.8866    0.6226 C   0  0  1  0  0  0  0  0  0  0  0  0
   -3.8188    1.8036   -0.3654 C   0  0  1  0  0  0  0  0  0  0  0  0
   -4.1662    3.2932   -0.2784 C   0  0  0  0  0  0  0  0  0  0  0  0
   -6.0823    1.0626    0.6781 C   0  0  0  0  0  0  0  0  0  0  0  0
   -5.5982    3.5915   -0.7067 C   0  0  0  0  0  0  0  0  0  0  0  0
   -6.6307    3.4377    0.4091 C   0  0  0  0  0  0  0  0  0  0  0  0
   -3.1523   -1.1483    0.8070 C   0  0  0  0  0  0  0  0  0  0  0  0
   -1.6044    1.7954   -1.1848 C   0  0  0  0  0  0  0  0  0  0  0  0
   -2.9764   -2.5557    0.3650 C   0  0  0  0  0  0  0  0  0  0  0  0
   -0.1839    1.6347   -0.7838 C   0  0  0  0  0  0  0  0  0  0  0  0
    0.7408    1.1106   -1.6873 C   0  0  0  0  0  0  0  0  0  0  0  0
    0.2264    2.0085    0.4958 C   0  0  0  0  0  0  0  0  0  0  0  0
   -1.7004   -3.1171    0.3172 C   0  0  0  0  0  0  0  0  0  0  0  0
   -4.0871   -3.3159   -0.0014 C   0  0  0  0  0  0  0  0  0  0  0  0
    1.5612    1.8583    0.8720 C   0  0  0  0  0  0  0  0  0  0  0  0
    2.0755    0.9605   -1.3112 C   0  0  0  0  0  0  0  0  0  0  0  0
    2.4858    1.3344   -0.0316 C   0  0  0  0  0  0  0  0  0  0  0  0
   -1.5350   -4.4387   -0.0972 C   0  0  0  0  0  0  0  0  0  0  0  0
   -3.9218   -4.6374   -0.4158 C   0  0  0  0  0  0  0  0  0  0  0  0
   -2.6458   -5.1987   -0.4637 C   0  0  0  0  0  0  0  0  0  0  0  0
    3.8816    1.1780    0.3615 C   0  0  0  0  0  0  0  0  0  0  0  0
    4.5628   -0.1493    0.3700 C   0  0  0  0  0  0  0  0  0  0  0  0
    5.9331   -0.2619    0.1348 C   0  0  0  0  0  0  0  0  0  0  0  0
    3.8020   -1.2913    0.6205 C   0  0  0  0  0  0  0  0  0  0  0  0
    6.5424   -1.5165    0.1502 C   0  0  0  0  0  0  0  0  0  0  0  0
    4.4115   -2.5458    0.6358 C   0  0  0  0  0  0  0  0  0  0  0  0
    5.7817   -2.6586    0.4007 C   0  0  0  0  0  0  0  0  0  0  0  0
    6.7547    0.9119   -0.1299 C   0  0  0  0  0  0  0  0  0  0  0  0
   -4.1493    1.0637    1.6269 H   0  0  0  0  0  0  0  0  0  0  0  0
   -4.0451    1.4446   -1.3796 H   0  0  0  0  0  0  0  0  0  0  0  0
   -3.4918    3.8475   -0.9438 H   0  0  0  0  0  0  0  0  0  0  0  0
   -3.9576    3.6826    0.7259 H   0  0  0  0  0  0  0  0  0  0  0  0
   -6.5021    0.2562    1.2932 H   0  0  0  0  0  0  0  0  0  0  0  0
   -6.5452    0.9471   -0.3100 H   0  0  0  0  0  0  0  0  0  0  0  0
   -5.6496    4.6272   -1.0661 H   0  0  0  0  0  0  0  0  0  0  0  0
   -5.8723    2.9622   -1.5625 H   0  0  0  0  0  0  0  0  0  0  0  0
   -6.6404    4.3546    1.0111 H   0  0  0  0  0  0  0  0  0  0  0  0
   -7.6281    3.3725   -0.0423 H   0  0  0  0  0  0  0  0  0  0  0  0
   -5.7656    2.5568    2.0382 H   0  0  0  0  0  0  0  0  0  0  0  0
   -4.8440   -0.9422   -0.4012 H   0  0  0  0  0  0  0  0  0  0  0  0
    0.4217    0.8156   -2.6842 H   0  0  0  0  0  0  0  0  0  0  0  0
   -0.4812    2.4298    1.2059 H   0  0  0  0  0  0  0  0  0  0  0  0
   -0.8222   -2.5393    0.5936 H   0  0  0  0  0  0  0  0  0  0  0  0
   -5.1001   -2.9281    0.0516 H   0  0  0  0  0  0  0  0  0  0  0  0
   -0.5356   -4.8641   -0.1311 H   0  0  0  0  0  0  0  0  0  0  0  0
   -4.7912   -5.2273   -0.6932 H   0  0  0  0  0  0  0  0  0  0  0  0
    1.1660    2.5686    2.6080 H   0  0  0  0  0  0  0  0  0  0  0  0
    2.4962    0.2438   -3.0380 H   0  0  0  0  0  0  0  0  0  0  0  0
    2.7357   -1.2357    0.8217 H   0  0  0  0  0  0  0  0  0  0  0  0
   -1.5383   -6.7119   -0.8380 H   0  0  0  0  0  0  0  0  0  0  0  0
    7.6086   -1.6212   -0.0349 H   0  0  0  0  0  0  0  0  0  0  0  0
    3.8199   -3.4348    0.8338 H   0  0  0  0  0  0  0  0  0  0  0  0
    6.2560   -3.6355    0.4125 H   0  0  0  0  0  0  0  0  0  0  0  0
    8.2931    1.8610    0.6039 H   0  0  0  0  0  0  0  0  0  0  0  0
  1 13  1  0  0  0  0
  1 19  1  0  0  0  0
  2 18  2  0  0  0  0
  3 19  2  0  0  0  0
  4 26  1  0  0  0  0
  4 58  1  0  0  0  0
  5 27  1  0  0  0  0
  5 59  1  0  0  0  0
  6 31  1  0  0  0  0
  6 61  1  0  0  0  0
  7 32  2  0  0  0  0
  8 39  1  0  0  0  0
  8 65  1  0  0  0  0
  9 39  2  0  0  0  0
 10 15  1  0  0  0  0
 10 17  1  0  0  0  0
 10 50  1  0  0  0  0
 11 12  1  0  0  0  0
 11 18  1  0  0  0  0
 11 51  1  0  0  0  0
 12 13  1  0  0  0  0
 12 15  1  0  0  0  0
 12 40  1  0  0  0  0
 13 14  1  0  0  0  0
 13 41  1  0  0  0  0
 14 16  1  0  0  0  0
 14 42  1  0  0  0  0
 14 43  1  0  0  0  0
 15 44  1  0  0  0  0
 15 45  1  0  0  0  0
 16 17  1  0  0  0  0
 16 46  1  0  0  0  0
 16 47  1  0  0  0  0
 17 48  1  0  0  0  0
 17 49  1  0  0  0  0
 18 20  1  0  0  0  0
 19 21  1  0  0  0  0
 20 24  2  0  0  0  0
 20 25  1  0  0  0  0
 21 22  2  0  0  0  0
 21 23  1  0  0  0  0
 22 27  1  0  0  0  0
 22 52  1  0  0  0  0
 23 26  2  0  0  0  0
 23 53  1  0  0  0  0
 24 29  1  0  0  0  0
 24 54  1  0  0  0  0
 25 30  2  0  0  0  0
 25 55  1  0  0  0  0
 26 28  1  0  0  0  0
 27 28  2  0  0  0  0
 28 32  1  0  0  0  0
 29 31  2  0  0  0  0
 29 56  1  0  0  0  0
 30 31  1  0  0  0  0
 30 57  1  0  0  0  0
 32 33  1  0  0  0  0
 33 34  1  0  0  0  0
 33 35  2  0  0  0  0
 34 36  2  0  0  0  0
 34 39  1  0  0  0  0
 35 37  1  0  0  0  0
 35 60  1  0  0  0  0
 36 38  1  0  0  0  0
 36 62  1  0  0  0  0
 37 38  2  0  0  0  0
 37 63  1  0  0  0  0
 38 64  1  0  0  0  0
M  END
> <PUBCHEM_COMPOUND_CID>
5327966

> <PUBCHEM_CONFORMER_RMSD>
1.2

> <PUBCHEM_CONFORMER_DIVERSEORDER>
1
28
51
49
62
34
69
25
31
24
6
60
33
64
14
43
48
40
32
7
61
13
39
20
42
44
36
46
12
15
67
45
9
29
63
26
41
30
55
50
4
52
54
37
66
5
23
2
58
38
21
53
19
16
68
22
17
8
35
3
18
59
11
27
65
47
56
10
57
70

> <PUBCHEM_MMFF94_PARTIAL_CHARGES>
53
1 -0.43
10 -0.9
11 -0.73
12 0.3
13 0.28
15 0.27
17 0.27
18 0.54
19 0.63
2 -0.57
20 0.09
21 0.09
22 -0.15
23 -0.15
24 -0.15
25 -0.15
26 0.08
27 0.08
28 0.09
29 -0.15
3 -0.57
30 -0.15
31 0.08
32 0.4
33 0.09
34 0.09
35 -0.15
36 -0.15
37 -0.15
38 -0.15
39 0.63
4 -0.53
5 -0.53
50 0.36
51 0.37
52 0.15
53 0.15
54 0.15
55 0.15
56 0.15
57 0.15
58 0.45
59 0.45
6 -0.53
60 0.15
61 0.45
62 0.15
63 0.15
64 0.15
65 0.5
7 -0.57
8 -0.65
9 -0.57

> <PUBCHEM_EFFECTIVE_ROTOR_COUNT>
10.4

> <PUBCHEM_PHARMACOPHORE_FEATURES>
16
1 10 cation
1 10 donor
1 11 donor
1 2 acceptor
1 3 acceptor
1 4 donor
1 5 donor
1 6 donor
1 7 acceptor
1 8 acceptor
1 9 acceptor
3 8 9 39 anion
6 20 24 25 29 30 31 rings
6 21 22 23 26 27 28 rings
6 33 34 35 36 37 38 rings
7 10 12 13 14 15 16 17 rings

> <PUBCHEM_HEAVY_ATOM_COUNT>
39

> <PUBCHEM_ATOM_DEF_STEREO_COUNT>
2

> <PUBCHEM_ATOM_UDEF_STEREO_COUNT>
0

> <PUBCHEM_BOND_DEF_STEREO_COUNT>
0

> <PUBCHEM_BOND_UDEF_STEREO_COUNT>
0

> <PUBCHEM_ISOTOPIC_ATOM_COUNT>
0

> <PUBCHEM_COMPONENT_COUNT>
1

> <PUBCHEM_CACTVS_TAUTO_COUNT>
35

> <PUBCHEM_CONFORMER_ID>
00514C5E00000001

> <PUBCHEM_MMFF94_ENERGY>
121.4306

> <PUBCHEM_FEATURE_SELFOVERLAP>
81.262

> <PUBCHEM_SHAPE_FINGERPRINT>
10462674 296 18049158070661611715
10864689 126 17978517438285926222
10940486 97 18261962937254417981
11135609 99 18336262320539401378
11524674 6 18339358557529219637
11796584 16 18412832374093970980
12677640 9 18342175605447091227
13008946 267 17621327832240388289
14028597 1 17630049240086504825
15230672 131 18336826382177098810
15250474 111 18262240044333180246
15274700 242 16733531750710604248
15361156 5 17895484716821412164
15400415 2 18194680371696899308
15439362 3 17687460162601186901
15799311 1 18336558170059170588
15911013 46 18193268817862524843
16110190 28 18260833682893025604
19301679 30 18119819263969488115
19315092 285 17484249917206993026
19315958 150 18335144150576601208
21133410 171 17330217074219886106
21133410 52 15895584438419891204
21987440 362 17682678415942282109
229767 44 18335987493480721703
23516275 137 17974027066788316178
23559900 14 18410287017076099984
397830 11 18127965520255883560
4017518 198 18338797806509883655
4073 2 18339636837103587848
5265222 85 18335988588164749181
6371380 46 18271237227782650993

> <PUBCHEM_SHAPE_MULTIPOLES>
739.82
18.1
6.82
1.36
15.99
12.51
0.35
-7.87
-3.28
-11.63
1.22
0.03
-0.74
-0.81

> <PUBCHEM_SHAPE_SELFOVERLAP>
1613.14

> <PUBCHEM_SHAPE_VOLUME>
395.2

> <PUBCHEM_COORDINATE_TYPE>
2
5
10

$$$$
