44580077
  -OEChem-10062122023D

 67 72  0     0  0  0  0  0  0999 V2000
    5.1551   -0.2284   -2.1519 O   0  0  0  0  0  0  0  0  0  0  0  0
   -4.2996   -2.0194   -0.1719 O   0  0  0  0  0  0  0  0  0  0  0  0
    9.8956    2.3331    0.8015 N   0  0  0  0  0  0  0  0  0  0  0  0
   -8.2010    1.1214    0.3259 N   0  0  0  0  0  0  0  0  0  0  0  0
    6.3256    0.3598   -1.6885 N   0  0  0  0  0  0  0  0  0  0  0  0
   -6.5675    2.3584   -0.8224 N   0  0  0  0  0  0  0  0  0  0  0  0
   -2.4752   -0.5405   -0.2870 N   0  0  0  0  0  0  0  0  0  0  0  0
    7.2523    1.1180    0.4697 C   0  0  0  0  0  0  0  0  0  0  0  0
    8.5484    0.2911    0.4366 C   0  0  0  0  0  0  0  0  0  0  0  0
    7.5471    2.5715    0.0630 C   0  0  0  0  0  0  0  0  0  0  0  0
    9.6498    0.9643    1.2559 C   0  0  0  0  0  0  0  0  0  0  0  0
    8.6883    3.1542    0.8969 C   0  0  0  0  0  0  0  0  0  0  0  0
    6.1526    0.4978   -0.3706 C   0  0  0  0  0  0  0  0  0  0  0  0
  -10.5059    1.4706    0.6353 C   0  0  0  0  0  0  0  0  0  0  0  0
  -10.0265    0.4400    1.6426 C   0  0  0  0  0  0  0  0  0  0  0  0
   -9.2152    2.1663    0.2096 C   0  0  0  0  0  0  0  0  0  0  0  0
   -8.7095   -0.0462    1.0417 C   0  0  0  0  0  0  0  0  0  0  0  0
    4.8999    0.0190    0.0593 C   0  0  0  0  0  0  0  0  0  0  0  0
    4.3063   -0.4304   -1.1073 C   0  0  0  0  0  0  0  0  0  0  0  0
   -6.9218    1.2246   -0.1768 C   0  0  0  0  0  0  0  0  0  0  0  0
    4.1970   -0.0924    1.2680 C   0  0  0  0  0  0  0  0  0  0  0  0
    3.0367   -0.9968   -1.1737 C   0  0  0  0  0  0  0  0  0  0  0  0
    2.3472   -1.1015    0.0390 C   0  0  0  0  0  0  0  0  0  0  0  0
    2.9146   -0.6584    1.2384 C   0  0  0  0  0  0  0  0  0  0  0  0
   -6.0750    0.1451    0.0162 C   0  0  0  0  0  0  0  0  0  0  0  0
    1.0195   -1.6794    0.0518 C   0  0  0  0  0  0  0  0  0  0  0  0
   -4.7813    0.2347   -0.4855 C   0  0  0  0  0  0  0  0  0  0  0  0
    0.8333   -3.0496    0.2357 C   0  0  0  0  0  0  0  0  0  0  0  0
   -0.0831   -0.8430   -0.1221 C   0  0  0  0  0  0  0  0  0  0  0  0
   -1.3718   -1.3765   -0.1122 C   0  0  0  0  0  0  0  0  0  0  0  0
   -5.3023    2.4092   -1.2961 C   0  0  0  0  0  0  0  0  0  0  0  0
   -4.3797    1.3851   -1.1555 C   0  0  0  0  0  0  0  0  0  0  0  0
   -3.8309   -0.8942   -0.3067 C   0  0  0  0  0  0  0  0  0  0  0  0
   -0.4555   -3.5832    0.2455 C   0  0  0  0  0  0  0  0  0  0  0  0
   -1.5581   -2.7466    0.0719 C   0  0  0  0  0  0  0  0  0  0  0  0
    1.9904   -3.9775    0.4235 C   0  0  0  0  0  0  0  0  0  0  0  0
    6.9030    1.1353    1.5119 H   0  0  0  0  0  0  0  0  0  0  0  0
    8.8940    0.1616   -0.5977 H   0  0  0  0  0  0  0  0  0  0  0  0
    8.3620   -0.7153    0.8314 H   0  0  0  0  0  0  0  0  0  0  0  0
    6.6484    3.1871    0.1920 H   0  0  0  0  0  0  0  0  0  0  0  0
    7.8122    2.6253   -1.0014 H   0  0  0  0  0  0  0  0  0  0  0  0
   10.5768    0.3879    1.1631 H   0  0  0  0  0  0  0  0  0  0  0  0
    9.3870    0.9661    2.3207 H   0  0  0  0  0  0  0  0  0  0  0  0
    8.9183    4.1654    0.5436 H   0  0  0  0  0  0  0  0  0  0  0  0
    8.3843    3.2502    1.9463 H   0  0  0  0  0  0  0  0  0  0  0  0
   10.2018    2.3080   -0.1715 H   0  0  0  0  0  0  0  0  0  0  0  0
  -11.2386    2.1668    1.0526 H   0  0  0  0  0  0  0  0  0  0  0  0
  -10.9622    0.9666   -0.2253 H   0  0  0  0  0  0  0  0  0  0  0  0
  -10.7421   -0.3726    1.7952 H   0  0  0  0  0  0  0  0  0  0  0  0
   -9.8434    0.9225    2.6104 H   0  0  0  0  0  0  0  0  0  0  0  0
   -8.9770    2.9941    0.8869 H   0  0  0  0  0  0  0  0  0  0  0  0
   -9.3037    2.5517   -0.8117 H   0  0  0  0  0  0  0  0  0  0  0  0
   -8.0516   -0.3780    1.8521 H   0  0  0  0  0  0  0  0  0  0  0  0
   -8.8851   -0.8736    0.3448 H   0  0  0  0  0  0  0  0  0  0  0  0
    4.6237    0.2468    2.2066 H   0  0  0  0  0  0  0  0  0  0  0  0
    2.6179   -1.3333   -2.1156 H   0  0  0  0  0  0  0  0  0  0  0  0
    2.3661   -0.7466    2.1746 H   0  0  0  0  0  0  0  0  0  0  0  0
   -6.3763   -0.7595    0.5315 H   0  0  0  0  0  0  0  0  0  0  0  0
    0.0582    0.2268   -0.2661 H   0  0  0  0  0  0  0  0  0  0  0  0
   -3.3997    1.5070   -1.6019 H   0  0  0  0  0  0  0  0  0  0  0  0
   -5.0420    3.3241   -1.8182 H   0  0  0  0  0  0  0  0  0  0  0  0
   -0.6183   -4.6485    0.3872 H   0  0  0  0  0  0  0  0  0  0  0  0
   -2.2352    0.4434   -0.3686 H   0  0  0  0  0  0  0  0  0  0  0  0
   -2.5219   -3.2352    0.0920 H   0  0  0  0  0  0  0  0  0  0  0  0
    1.6612   -5.0145    0.5542 H   0  0  0  0  0  0  0  0  0  0  0  0
    2.5623   -3.7095    1.3179 H   0  0  0  0  0  0  0  0  0  0  0  0
    2.6487   -3.9596   -0.4511 H   0  0  0  0  0  0  0  0  0  0  0  0
  1  5  1  0  0  0  0
  1 19  1  0  0  0  0
  2 33  2  0  0  0  0
  3 11  1  0  0  0  0
  3 12  1  0  0  0  0
  3 46  1  0  0  0  0
  4 16  1  0  0  0  0
  4 17  1  0  0  0  0
  4 20  1  0  0  0  0
  5 13  2  0  0  0  0
  6 20  2  0  0  0  0
  6 31  1  0  0  0  0
  7 30  1  0  0  0  0
  7 33  1  0  0  0  0
  7 63  1  0  0  0  0
  8  9  1  0  0  0  0
  8 10  1  0  0  0  0
  8 13  1  0  0  0  0
  8 37  1  0  0  0  0
  9 11  1  0  0  0  0
  9 38  1  0  0  0  0
  9 39  1  0  0  0  0
 10 12  1  0  0  0  0
 10 40  1  0  0  0  0
 10 41  1  0  0  0  0
 11 42  1  0  0  0  0
 11 43  1  0  0  0  0
 12 44  1  0  0  0  0
 12 45  1  0  0  0  0
 13 18  1  0  0  0  0
 14 15  1  0  0  0  0
 14 16  1  0  0  0  0
 14 47  1  0  0  0  0
 14 48  1  0  0  0  0
 15 17  1  0  0  0  0
 15 49  1  0  0  0  0
 15 50  1  0  0  0  0
 16 51  1  0  0  0  0
 16 52  1  0  0  0  0
 17 53  1  0  0  0  0
 17 54  1  0  0  0  0
 18 19  2  0  0  0  0
 18 21  1  0  0  0  0
 19 22  1  0  0  0  0
 20 25  1  0  0  0  0
 21 24  2  0  0  0  0
 21 55  1  0  0  0  0
 22 23  2  0  0  0  0
 22 56  1  0  0  0  0
 23 24  1  0  0  0  0
 23 26  1  0  0  0  0
 24 57  1  0  0  0  0
 25 27  2  0  0  0  0
 25 58  1  0  0  0  0
 26 28  2  0  0  0  0
 26 29  1  0  0  0  0
 27 32  1  0  0  0  0
 27 33  1  0  0  0  0
 28 34  1  0  0  0  0
 28 36  1  0  0  0  0
 29 30  2  0  0  0  0
 29 59  1  0  0  0  0
 30 35  1  0  0  0  0
 31 32  2  0  0  0  0
 31 61  1  0  0  0  0
 32 60  1  0  0  0  0
 34 35  2  0  0  0  0
 34 62  1  0  0  0  0
 35 64  1  0  0  0  0
 36 65  1  0  0  0  0
 36 66  1  0  0  0  0
 36 67  1  0  0  0  0
M  END
> <PUBCHEM_COMPOUND_CID>
44580077

> <PUBCHEM_CONFORMER_RMSD>
1

> <PUBCHEM_CONFORMER_DIVERSEORDER>
2
35
39
28
63
54
79
78
75
33
51
24
69
72
45
30
5
61
64
77
76
53
71
36
52
42
41
43
58
56
34
46
16
66
40
62
73
25
7
49
27
50
59
38
6
67
23
57
32
74
44
48
18
70
21
19
20
47
26
60
29
65
4
9
17
14
22
31
3
15
55
68
37
8
12
13
1
10
11

> <PUBCHEM_MMFF94_PARTIAL_CHARGES>
40
1 -0.02
11 0.27
12 0.27
13 0.11
16 0.37
17 0.37
19 0.14
2 -0.57
20 0.41
21 -0.15
22 -0.15
24 -0.15
25 -0.15
27 0.09
28 -0.14
29 -0.15
3 -0.9
30 0.12
31 0.16
32 -0.15
33 0.54
34 -0.15
35 -0.15
36 0.14
4 -0.84
46 0.36
5 -0.41
55 0.15
56 0.15
57 0.15
58 0.15
59 0.15
6 -0.62
60 0.15
61 0.15
62 0.15
63 0.37
64 0.15
7 -0.55
8 0.18

> <PUBCHEM_EFFECTIVE_ROTOR_COUNT>
8.2

> <PUBCHEM_PHARMACOPHORE_FEATURES>
12
1 2 acceptor
1 3 cation
1 3 donor
1 5 acceptor
1 7 donor
3 4 6 20 cation
5 1 5 13 18 19 rings
5 4 14 15 16 17 rings
6 18 19 21 22 23 24 rings
6 26 28 29 30 34 35 rings
6 3 8 9 10 11 12 rings
6 6 20 25 27 31 32 rings

> <PUBCHEM_HEAVY_ATOM_COUNT>
36

> <PUBCHEM_ATOM_DEF_STEREO_COUNT>
0

> <PUBCHEM_ATOM_UDEF_STEREO_COUNT>
0

> <PUBCHEM_BOND_DEF_STEREO_COUNT>
0

> <PUBCHEM_BOND_UDEF_STEREO_COUNT>
0

> <PUBCHEM_ISOTOPIC_ATOM_COUNT>
0

> <PUBCHEM_COMPONENT_COUNT>
1

> <PUBCHEM_CACTVS_TAUTO_COUNT>
2

> <PUBCHEM_CONFORMER_ID>
02A83CED00000002

> <PUBCHEM_MMFF94_ENERGY>
102.3146

> <PUBCHEM_FEATURE_SELFOVERLAP>
60.998

> <PUBCHEM_SHAPE_FINGERPRINT>
10 15 18113902637708175539
10029044 110 17918277558030762720
10280341 67 18261103033425668565
10369192 42 18411417298418543647
10533779 47 17458616784571126314
10930396 42 16877942742375501341
11115154 58 15554448495980339483
11135609 201 18408602544314388019
11273773 46 10303807688805504981
11408170 108 11963385224674636145
11409948 8 18261403269741862819
11475781 23 18272094916209602918
11534866 41 14056994998079523808
11578821 258 18194963166252287544
11607047 141 18335415713797551794
11607047 74 9582932689769808466
11828042 206 12103842346012606147
12013929 94 18342740746429951843
12098696 120 18408887321656569805
12592606 108 9511462221438077147
12664476 115 18272365378347243713
13008946 119 18412541033145508434
13008946 335 17821730529071378010
131240 88 18409732858951732680
13740195 50 18260268577546458539
14040221 8 13758082874879426395
14294032 229 18341049709793589463
15150948 74 18335420158154941805
15152005 77 11602809207728288609
15188451 53 11169917182422276295
15198563 99 14261362331718503643
15274700 208 18131347557333763241
15320295 40 11169917195517752229
15439362 3 18410571756871721942
15510800 12 8574715697852147443
15890870 6 18411980264850343633
16126227 98 18410294718473882447
1768 4 18413110559400072193
17852330 31 16950279620492297626
18608769 82 18334862719388060675
19302320 297 18186522133395650172
19304671 126 17989491818719420054
19315958 150 18343304760638282206
20156587 128 15266794230062742984
2026 5 8358264739524110577
20501277 279 18409450276422293385
20505436 4 18272082790948149575
21033648 29 18340477967276429922
212700 22 9799694801093498652
21304304 249 8718823197773175521
23576562 1 14476378496519302609
23729398 52 18122909720393437058
24771293 8 18409443721768949997
25269216 80 17060042784547174455
2851757 41 9079112285039966329
3146122 72 16486681567985347256
3711267 37 18271817804577540041
3918712 181 18411412878259483008
44280117 145 17916863660194797431
4516262 110 18340198601803985967
49967989 163 12750957797278945204
5028188 123 17632572765754240837
5372103 7 17846500348659392054
54039377 194 9295289447687349107
5758199 1 18410295788179383719
59682541 35 18040722463746705553
636775 72 18410571820567672460
9896288 288 10738100465733500166

> <PUBCHEM_SHAPE_MULTIPOLES>
704.22
37.1
3.6
1.28
20.03
1.93
-0.18
-39.73
11.84
-1.89
0.34
-0.56
-0.3
1.78

> <PUBCHEM_SHAPE_SELFOVERLAP>
1551.801

> <PUBCHEM_SHAPE_VOLUME>
380.4

> <PUBCHEM_COORDINATE_TYPE>
2
5
10

$$$$
