49830503
  -OEChem-10052120443D

 45 47  0     1  0  0  0  0  0999 V2000
    3.0552   -3.1800    1.9320 O   0  0  0  0  0  0  0  0  0  0  0  0
    1.2776   -1.8727   -1.9070 O   0  0  0  0  0  0  0  0  0  0  0  0
    1.8364   -1.2006    0.2403 N   0  0  0  0  0  0  0  0  0  0  0  0
   -7.0699    1.1044    0.4879 N   0  0  0  0  0  0  0  0  0  0  0  0
    3.2395   -1.5509    0.1644 C   0  0  1  0  0  0  0  0  0  0  0  0
    4.0822   -0.6290    1.0595 C   0  0  0  0  0  0  0  0  0  0  0  0
    3.4295   -3.0139    0.5691 C   0  0  0  0  0  0  0  0  0  0  0  0
    4.3085    0.7370    0.4561 C   0  0  0  0  0  0  0  0  0  0  0  0
    0.9667   -1.3958   -0.8188 C   0  0  0  0  0  0  0  0  0  0  0  0
   -0.4351   -0.9598   -0.5912 C   0  0  0  0  0  0  0  0  0  0  0  0
    5.4190    0.9659   -0.3564 C   0  0  0  0  0  0  0  0  0  0  0  0
    3.4061    1.7696    0.7110 C   0  0  0  0  0  0  0  0  0  0  0  0
   -3.0675   -0.1413   -0.1634 C   0  0  0  0  0  0  0  0  0  0  0  0
   -1.4779   -1.5741   -1.2847 C   0  0  0  0  0  0  0  0  0  0  0  0
   -0.7084    0.0638    0.3162 C   0  0  0  0  0  0  0  0  0  0  0  0
    5.6272    2.2276   -0.9139 C   0  0  0  0  0  0  0  0  0  0  0  0
    3.6142    3.0312    0.1534 C   0  0  0  0  0  0  0  0  0  0  0  0
   -2.7940   -1.1648   -1.0709 C   0  0  0  0  0  0  0  0  0  0  0  0
   -2.0246    0.4731    0.5299 C   0  0  0  0  0  0  0  0  0  0  0  0
    4.7249    3.2601   -0.6589 C   0  0  0  0  0  0  0  0  0  0  0  0
   -4.4325    0.2835    0.0582 C   0  0  0  0  0  0  0  0  0  0  0  0
   -5.3688    0.1883   -0.9654 C   0  0  0  0  0  0  0  0  0  0  0  0
   -4.8135    0.7885    1.2964 C   0  0  0  0  0  0  0  0  0  0  0  0
   -6.6627    0.6083   -0.7021 C   0  0  0  0  0  0  0  0  0  0  0  0
   -6.1322    1.1816    1.4587 C   0  0  0  0  0  0  0  0  0  0  0  0
    3.5618   -1.4518   -0.8800 H   0  0  0  0  0  0  0  0  0  0  0  0
    3.6259   -0.5155    2.0521 H   0  0  0  0  0  0  0  0  0  0  0  0
    5.0664   -1.0823    1.2399 H   0  0  0  0  0  0  0  0  0  0  0  0
    4.4761   -3.3158    0.4570 H   0  0  0  0  0  0  0  0  0  0  0  0
    2.8076   -3.6771   -0.0414 H   0  0  0  0  0  0  0  0  0  0  0  0
    1.4842   -0.8975    1.1424 H   0  0  0  0  0  0  0  0  0  0  0  0
    6.1278    0.1689   -0.5646 H   0  0  0  0  0  0  0  0  0  0  0  0
    2.5381    1.6054    1.3437 H   0  0  0  0  0  0  0  0  0  0  0  0
   -1.2848   -2.3805   -1.9874 H   0  0  0  0  0  0  0  0  0  0  0  0
    0.0771    0.5915    0.8489 H   0  0  0  0  0  0  0  0  0  0  0  0
    6.4916    2.4057   -1.5469 H   0  0  0  0  0  0  0  0  0  0  0  0
    2.9117    3.8353    0.3520 H   0  0  0  0  0  0  0  0  0  0  0  0
   -3.5759   -1.6919   -1.6107 H   0  0  0  0  0  0  0  0  0  0  0  0
   -2.1871    1.2977    1.2187 H   0  0  0  0  0  0  0  0  0  0  0  0
    3.1926   -4.1169    2.1527 H   0  0  0  0  0  0  0  0  0  0  0  0
    4.8868    4.2424   -1.0931 H   0  0  0  0  0  0  0  0  0  0  0  0
   -5.1328   -0.1690   -1.9618 H   0  0  0  0  0  0  0  0  0  0  0  0
   -4.1425    0.8634    2.1451 H   0  0  0  0  0  0  0  0  0  0  0  0
   -7.4291    0.5616   -1.4687 H   0  0  0  0  0  0  0  0  0  0  0  0
   -6.4820    1.5757    2.4072 H   0  0  0  0  0  0  0  0  0  0  0  0
  1  7  1  0  0  0  0
  1 40  1  0  0  0  0
  2  9  2  0  0  0  0
  3  5  1  0  0  0  0
  3  9  1  0  0  0  0
  3 31  1  0  0  0  0
  4 24  2  0  0  0  0
  4 25  1  0  0  0  0
  5  6  1  0  0  0  0
  5  7  1  0  0  0  0
  5 26  1  0  0  0  0
  6  8  1  0  0  0  0
  6 27  1  0  0  0  0
  6 28  1  0  0  0  0
  7 29  1  0  0  0  0
  7 30  1  0  0  0  0
  8 11  2  0  0  0  0
  8 12  1  0  0  0  0
  9 10  1  0  0  0  0
 10 14  2  0  0  0  0
 10 15  1  0  0  0  0
 11 16  1  0  0  0  0
 11 32  1  0  0  0  0
 12 17  2  0  0  0  0
 12 33  1  0  0  0  0
 13 18  2  0  0  0  0
 13 19  1  0  0  0  0
 13 21  1  0  0  0  0
 14 18  1  0  0  0  0
 14 34  1  0  0  0  0
 15 19  2  0  0  0  0
 15 35  1  0  0  0  0
 16 20  2  0  0  0  0
 16 36  1  0  0  0  0
 17 20  1  0  0  0  0
 17 37  1  0  0  0  0
 18 38  1  0  0  0  0
 19 39  1  0  0  0  0
 20 41  1  0  0  0  0
 21 22  2  0  0  0  0
 21 23  1  0  0  0  0
 22 24  1  0  0  0  0
 22 42  1  0  0  0  0
 23 25  2  0  0  0  0
 23 43  1  0  0  0  0
 24 44  1  0  0  0  0
 25 45  1  0  0  0  0
M  END
> <PUBCHEM_COMPOUND_CID>
49830503

> <PUBCHEM_CONFORMER_RMSD>
0.8

> <PUBCHEM_CONFORMER_DIVERSEORDER>
3
5
17
23
24
30
11
28
31
1
20
25
32
29
6
22
12
26
9
15
2
7
27
13
8
21
18
19
16
10
14
4

> <PUBCHEM_MMFF94_PARTIAL_CHARGES>
38
1 -0.68
10 0.09
11 -0.15
12 -0.15
14 -0.15
15 -0.15
16 -0.15
17 -0.15
18 -0.15
19 -0.15
2 -0.57
20 -0.15
22 -0.15
23 -0.15
24 0.16
25 0.16
3 -0.73
31 0.37
32 0.15
33 0.15
34 0.15
35 0.15
36 0.15
37 0.15
38 0.15
39 0.15
4 -0.62
40 0.4
41 0.15
42 0.15
43 0.15
44 0.15
45 0.15
5 0.3
6 0.14
7 0.28
8 -0.14
9 0.54

> <PUBCHEM_EFFECTIVE_ROTOR_COUNT>
7

> <PUBCHEM_PHARMACOPHORE_FEATURES>
8
1 1 acceptor
1 1 donor
1 2 acceptor
1 3 donor
1 4 acceptor
6 10 13 14 15 18 19 rings
6 4 21 22 23 24 25 rings
6 8 11 12 16 17 20 rings

> <PUBCHEM_HEAVY_ATOM_COUNT>
25

> <PUBCHEM_ATOM_DEF_STEREO_COUNT>
0

> <PUBCHEM_ATOM_UDEF_STEREO_COUNT>
1

> <PUBCHEM_BOND_DEF_STEREO_COUNT>
0

> <PUBCHEM_BOND_UDEF_STEREO_COUNT>
0

> <PUBCHEM_ISOTOPIC_ATOM_COUNT>
0

> <PUBCHEM_COMPONENT_COUNT>
1

> <PUBCHEM_CACTVS_TAUTO_COUNT>
2

> <PUBCHEM_CONFORMER_ID>
02F85A6700000003

> <PUBCHEM_MMFF94_ENERGY>
73.4049

> <PUBCHEM_FEATURE_SELFOVERLAP>
40.599

> <PUBCHEM_SHAPE_FINGERPRINT>
10 15 18272097081015505835
10165383 225 17748835120769642390
10411042 1 17903915562052748834
10554248 39 18058436613734580285
10670039 82 16916799452244681312
10674148 151 18271535295141276788
10675989 125 18270399516150647072
10816530 23 18261394493816311842
10906281 52 17917443008084862467
11505856 67 17324099499254591734
125118 31 18339362951608473561
12596602 18 18334579023638880555
12788726 201 17561092375458577073
13533116 47 17968659294055744307
13540713 5 18198885054680601374
13785724 45 17838058096149632326
13878862 14 18191279659498908581
13955234 65 18041554746504138050
14251740 57 12035990375608620216
14251764 75 18192155017301016108
14344974 204 10084601311056910180
14347332 77 8646778789659574255
14528608 73 17917709127936356973
14840074 17 18409169947743058101
15131766 46 18265040500349425429
15142526 21 18190457362809659594
15183329 4 17988927790539920489
15348495 7 18113339704502191571
1768 23 17559698195247216161
17844677 252 18263361391643227965
18335252 114 18342737412569907932
20567600 234 17749392602438242589
21033648 29 17240478075508538621
21033650 10 15338574768666693275
21298829 104 18271242828531047256
21315764 119 16630257952013194228
21344244 78 18194662797412872450
21716022 299 14762690078920112956
21814621 53 17386570142452149225
22122407 14 18411991264330336225
23081809 10 17989198219208333639
23559900 14 17417534605439682430
23845131 108 18114743845302186538
25147074 1 18201423805680471519
255183 451 17984708805827060478
3004659 81 17988642943828954202
3178227 256 17895186685399955754
3472631 163 18201162151814178316
38570 142 18338530728479268148
394071 54 18113340820719103412
397830 11 17968390030314056459
4073 2 18187087299483384195
44555599 121 18270120081462451217
474 4 18336261336294973882
5104073 3 18188202203867890682
513532 50 16558751217954392796
531348 171 8935008045425656603
57724786 102 18412827958287348558
633830 44 18267581485164682502
6697151 62 17391879618834689915
8272917 22 18407757041389513274
8988823 20 18187923928562550867

> <PUBCHEM_SHAPE_MULTIPOLES>
492.79
17
3.2
1.38
17.46
0.17
0.08
-11.55
1.36
-6.58
0.25
0.31
0.5
-2.5

> <PUBCHEM_SHAPE_SELFOVERLAP>
1063.862

> <PUBCHEM_SHAPE_VOLUME>
268.1

> <PUBCHEM_COORDINATE_TYPE>
2
5
10

$$$$
