49830725
  -OEChem-10052115183D

 44 46  0     0  0  0  0  0  0999 V2000
   -6.8207    1.0627    1.6284 F   0  0  0  0  0  0  0  0  0  0  0  0
   -7.9404    0.3484   -0.0931 F   0  0  0  0  0  0  0  0  0  0  0  0
   -6.4656    1.9287   -0.3280 F   0  0  0  0  0  0  0  0  0  0  0  0
    8.6826   -1.6759   -0.3148 O   0  0  0  0  0  0  0  0  0  0  0  0
    7.7834   -0.8889    1.6091 O   0  0  0  0  0  0  0  0  0  0  0  0
   -1.3539    0.1592   -0.4287 O   0  0  0  0  0  0  0  0  0  0  0  0
    4.9498    0.8409   -0.6717 N   0  0  0  0  0  0  0  0  0  0  0  0
    6.6892   -0.3337   -0.5350 C   0  0  0  0  0  0  0  0  0  0  0  0
    6.3664    1.1577   -0.3659 C   0  0  0  0  0  0  0  0  0  0  0  0
    5.2032   -0.5471   -0.2138 C   0  0  0  0  0  0  0  0  0  0  0  0
    4.0740    1.5236    0.2821 C   0  0  0  0  0  0  0  0  0  0  0  0
    7.7475   -0.9737    0.3838 C   0  0  0  0  0  0  0  0  0  0  0  0
    2.6392    1.1635    0.0942 C   0  0  0  0  0  0  0  0  0  0  0  0
    1.9141    1.7144   -0.9625 C   0  0  0  0  0  0  0  0  0  0  0  0
    2.0223    0.2753    0.9751 C   0  0  0  0  0  0  0  0  0  0  0  0
    0.5721    1.3771   -1.1380 C   0  0  0  0  0  0  0  0  0  0  0  0
    0.6804   -0.0620    0.7997 C   0  0  0  0  0  0  0  0  0  0  0  0
   -0.0448    0.4889   -0.2569 C   0  0  0  0  0  0  0  0  0  0  0  0
   -1.9217   -0.7547    0.5087 C   0  0  0  0  0  0  0  0  0  0  0  0
   -3.3514   -1.0151    0.1347 C   0  0  0  0  0  0  0  0  0  0  0  0
   -4.3256   -0.0490    0.3863 C   0  0  0  0  0  0  0  0  0  0  0  0
   -5.6544   -0.2916    0.0384 C   0  0  0  0  0  0  0  0  0  0  0  0
   -3.7059   -2.2237   -0.4649 C   0  0  0  0  0  0  0  0  0  0  0  0
   -6.0090   -1.5001   -0.5611 C   0  0  0  0  0  0  0  0  0  0  0  0
   -5.0347   -2.4661   -0.8128 C   0  0  0  0  0  0  0  0  0  0  0  0
   -6.6961    0.7414    0.3067 C   0  0  0  0  0  0  0  0  0  0  0  0
    6.8985   -0.5707   -1.5911 H   0  0  0  0  0  0  0  0  0  0  0  0
    6.5691    1.5506    0.6392 H   0  0  0  0  0  0  0  0  0  0  0  0
    6.8456    1.8190   -1.0949 H   0  0  0  0  0  0  0  0  0  0  0  0
    4.7085   -1.3166   -0.8153 H   0  0  0  0  0  0  0  0  0  0  0  0
    5.0069   -0.7598    0.8453 H   0  0  0  0  0  0  0  0  0  0  0  0
    4.1709    2.6083    0.1335 H   0  0  0  0  0  0  0  0  0  0  0  0
    4.3704    1.3572    1.3281 H   0  0  0  0  0  0  0  0  0  0  0  0
    2.3830    2.4077   -1.6558 H   0  0  0  0  0  0  0  0  0  0  0  0
    2.5752   -0.1609    1.8030 H   0  0  0  0  0  0  0  0  0  0  0  0
    9.3519   -2.0803    0.2774 H   0  0  0  0  0  0  0  0  0  0  0  0
    0.0122    1.8091   -1.9629 H   0  0  0  0  0  0  0  0  0  0  0  0
    0.2670   -0.7546    1.5245 H   0  0  0  0  0  0  0  0  0  0  0  0
   -1.3763   -1.7073    0.4988 H   0  0  0  0  0  0  0  0  0  0  0  0
   -1.9052   -0.3352    1.5235 H   0  0  0  0  0  0  0  0  0  0  0  0
   -4.0506    0.8940    0.8528 H   0  0  0  0  0  0  0  0  0  0  0  0
   -2.9579   -2.9851   -0.6694 H   0  0  0  0  0  0  0  0  0  0  0  0
   -7.0381   -1.7087   -0.8399 H   0  0  0  0  0  0  0  0  0  0  0  0
   -5.3106   -3.4068   -1.2802 H   0  0  0  0  0  0  0  0  0  0  0  0
  1 26  1  0  0  0  0
  2 26  1  0  0  0  0
  3 26  1  0  0  0  0
  4 12  1  0  0  0  0
  4 36  1  0  0  0  0
  5 12  2  0  0  0  0
  6 18  1  0  0  0  0
  6 19  1  0  0  0  0
  7  9  1  0  0  0  0
  7 10  1  0  0  0  0
  7 11  1  0  0  0  0
  8  9  1  0  0  0  0
  8 10  1  0  0  0  0
  8 12  1  0  0  0  0
  8 27  1  0  0  0  0
  9 28  1  0  0  0  0
  9 29  1  0  0  0  0
 10 30  1  0  0  0  0
 10 31  1  0  0  0  0
 11 13  1  0  0  0  0
 11 32  1  0  0  0  0
 11 33  1  0  0  0  0
 13 14  2  0  0  0  0
 13 15  1  0  0  0  0
 14 16  1  0  0  0  0
 14 34  1  0  0  0  0
 15 17  2  0  0  0  0
 15 35  1  0  0  0  0
 16 18  2  0  0  0  0
 16 37  1  0  0  0  0
 17 18  1  0  0  0  0
 17 38  1  0  0  0  0
 19 20  1  0  0  0  0
 19 39  1  0  0  0  0
 19 40  1  0  0  0  0
 20 21  2  0  0  0  0
 20 23  1  0  0  0  0
 21 22  1  0  0  0  0
 21 41  1  0  0  0  0
 22 24  2  0  0  0  0
 22 26  1  0  0  0  0
 23 25  2  0  0  0  0
 23 42  1  0  0  0  0
 24 25  1  0  0  0  0
 24 43  1  0  0  0  0
 25 44  1  0  0  0  0
M  END
> <PUBCHEM_COMPOUND_CID>
49830725

> <PUBCHEM_CONFORMER_RMSD>
1

> <PUBCHEM_CONFORMER_DIVERSEORDER>
1
63
124
81
110
53
8
61
28
109
104
49
56
27
67
10
44
106
101
64
115
100
71
62
116
96
97
102
22
59
125
99
47
69
95
26
19
118
6
9
84
123
107
20
88
80
70
54
30
87
74
46
41
108
75
91
76
36
103
18
45
65
117
13
3
48
66
89
78
39
77
119
90
37
12
86
24
38
16
23
42
105
126
33
72
121
21
34
83
55
17
50
122
93
127
29
15
82
98
5
112
85
40
14
92
120
52
57
2
114
73
32
58
60
68
25
35
11
79
111
113
31
43
4
94
51
7

> <PUBCHEM_MMFF94_PARTIAL_CHARGES>
35
1 -0.34
10 0.21
11 0.41
12 0.67
13 -0.14
14 -0.15
15 -0.15
16 -0.15
17 -0.15
18 0.08
19 0.42
2 -0.34
20 -0.14
21 -0.15
22 -0.14
23 -0.15
24 -0.15
25 -0.15
26 1.16
3 -0.34
34 0.15
35 0.15
36 0.5
37 0.15
38 0.15
4 -0.65
41 0.15
42 0.15
43 0.15
44 0.15
5 -0.57
6 -0.36
7 -0.69
8 0.05
9 0.21

> <PUBCHEM_EFFECTIVE_ROTOR_COUNT>
7.8

> <PUBCHEM_PHARMACOPHORE_FEATURES>
8
1 4 acceptor
1 5 acceptor
1 6 acceptor
1 7 cation
3 4 5 12 anion
4 7 8 9 10 rings
6 13 14 15 16 17 18 rings
6 20 21 22 23 24 25 rings

> <PUBCHEM_HEAVY_ATOM_COUNT>
26

> <PUBCHEM_ATOM_DEF_STEREO_COUNT>
0

> <PUBCHEM_ATOM_UDEF_STEREO_COUNT>
0

> <PUBCHEM_BOND_DEF_STEREO_COUNT>
0

> <PUBCHEM_BOND_UDEF_STEREO_COUNT>
0

> <PUBCHEM_ISOTOPIC_ATOM_COUNT>
0

> <PUBCHEM_COMPONENT_COUNT>
1

> <PUBCHEM_CACTVS_TAUTO_COUNT>
1

> <PUBCHEM_CONFORMER_ID>
02F85B4500000001

> <PUBCHEM_MMFF94_ENERGY>
69.2615

> <PUBCHEM_FEATURE_SELFOVERLAP>
40.656

> <PUBCHEM_SHAPE_FINGERPRINT>
10 15 11386364850600174937
100830 39 18411419467198322317
10299344 5 18333450950024807326
10674148 151 18113053831726844112
11135926 11 18335130973690907215
11273773 118 16515955974827672781
11315181 36 17489314126546871331
11524674 6 17203609319397626774
11719270 70 17632582652051966926
11724838 91 10735873972351821842
11796584 16 17988368156058346966
11973863 73 17531798044584458352
11991303 11 15068629326740635882
12236239 1 18337955696318801093
13885169 127 18343301452848773680
13914758 101 18272656735747939569
14251752 14 18272371983943127993
14347424 109 18201716289249257328
14856354 85 15140685795802794003
15119646 104 18259980453781499714
15152005 290 18340205165057995237
15183329 4 18040989657144909915
15198563 99 16588575427681116758
15475509 8 17967817154390773692
18643901 69 18114185194926974350
20105231 36 16515689939751976035
21130935 74 18340205314494977874
21267235 1 17676490553236801277
21315763 28 18339923822448842877
21365058 27 14056722339958619057
21641784 216 15502647175076088822
21792961 116 15213289816680461096
22224240 67 12895072912366567788
23035841 295 18260828211115194330
23081809 10 18335987587426501732
23522609 53 18117587143500911076
23536379 177 18342741857275230033
23559900 14 18270394035233540585
23569943 247 18041268869022516594
24771293 8 17970342844612524596
28498 318 18409449163893329678
3103668 31 17968370131019502916
4073 2 18188494704099450954
4258327 124 12391218479259822898
4339292 15 16199857484912983375
444769 64 18333455343971588803
5381727 24 18413390943893017235
559249 180 18342458175276471975
59682541 35 11743834785298945207
59755656 215 18271813397360014071
59755656 520 17313104185461317387
6126387 218 18272366469495173216
9689198 14 13045942404582591434

> <PUBCHEM_SHAPE_MULTIPOLES>
490.66
25.97
1.98
1.03
12.34
0.46
-0.17
6.13
-2.07
-1.05
0.41
0.23
-0.06
-1.55

> <PUBCHEM_SHAPE_SELFOVERLAP>
1050.908

> <PUBCHEM_SHAPE_VOLUME>
274.1

> <PUBCHEM_COORDINATE_TYPE>
2
5
10

$$$$
