49830444
  -OEChem-10062121553D

 35 37  0     0  0  0  0  0  0999 V2000
   -5.3415    0.3864   -0.4588 S   0  0  0  0  0  0  0  0  0  0  0  0
   -6.6532    0.8295   -0.0248 O   0  0  0  0  0  0  0  0  0  0  0  0
   -4.6608    1.0566   -1.5490 O   0  0  0  0  0  0  0  0  0  0  0  0
    5.2848   -0.7464   -0.4512 N   0  0  0  0  0  0  0  0  0  0  0  0
   -4.3217    0.2682    0.9240 N   0  0  0  0  0  0  0  0  0  0  0  0
    5.7447    0.5017   -0.2629 N   0  0  0  0  0  0  0  0  0  0  0  0
    4.5945    2.5315    0.2748 N   0  0  0  0  0  0  0  0  0  0  0  0
    1.2325   -0.4811    0.0962 C   0  0  0  0  0  0  0  0  0  0  0  0
    3.4729    0.4050   -0.0038 C   0  0  0  0  0  0  0  0  0  0  0  0
   -0.1869   -0.2892    0.3086 C   0  0  0  0  0  0  0  0  0  0  0  0
    3.9289   -0.8722   -0.3103 C   0  0  0  0  0  0  0  0  0  0  0  0
    2.0995    0.6135    0.2052 C   0  0  0  0  0  0  0  0  0  0  0  0
    1.7174   -1.7532   -0.2129 C   0  0  0  0  0  0  0  0  0  0  0  0
    3.0819   -1.9768   -0.4235 C   0  0  0  0  0  0  0  0  0  0  0  0
   -2.9219    0.0799    0.7156 C   0  0  0  0  0  0  0  0  0  0  0  0
    4.6396    1.1993    0.0094 C   0  0  0  0  0  0  0  0  0  0  0  0
   -0.9626   -1.3295    0.8201 C   0  0  0  0  0  0  0  0  0  0  0  0
   -0.7787    0.9357    0.0008 C   0  0  0  0  0  0  0  0  0  0  0  0
   -2.3300   -1.1451    1.0236 C   0  0  0  0  0  0  0  0  0  0  0  0
   -2.1462    1.1204    0.2042 C   0  0  0  0  0  0  0  0  0  0  0  0
   -5.4930   -1.3340   -0.8852 C   0  0  0  0  0  0  0  0  0  0  0  0
    1.7586    1.6079    0.4744 H   0  0  0  0  0  0  0  0  0  0  0  0
    1.0593   -2.6104   -0.3353 H   0  0  0  0  0  0  0  0  0  0  0  0
    3.4601   -2.9624   -0.6710 H   0  0  0  0  0  0  0  0  0  0  0  0
   -0.5415   -2.2898    1.1048 H   0  0  0  0  0  0  0  0  0  0  0  0
   -0.2219    1.7649   -0.4269 H   0  0  0  0  0  0  0  0  0  0  0  0
   -2.9242   -1.9606    1.4281 H   0  0  0  0  0  0  0  0  0  0  0  0
   -2.5919    2.0825   -0.0348 H   0  0  0  0  0  0  0  0  0  0  0  0
    5.9530   -1.4732   -0.6754 H   0  0  0  0  0  0  0  0  0  0  0  0
   -4.7052   -0.2837    1.7031 H   0  0  0  0  0  0  0  0  0  0  0  0
   -6.1852   -1.4110   -1.7268 H   0  0  0  0  0  0  0  0  0  0  0  0
   -4.5160   -1.7212   -1.1784 H   0  0  0  0  0  0  0  0  0  0  0  0
   -5.8930   -1.8794   -0.0284 H   0  0  0  0  0  0  0  0  0  0  0  0
    5.4332    3.1035    0.2837 H   0  0  0  0  0  0  0  0  0  0  0  0
    3.7322    3.0280    0.4770 H   0  0  0  0  0  0  0  0  0  0  0  0
  1  2  2  0  0  0  0
  1  3  2  0  0  0  0
  1  5  1  0  0  0  0
  1 21  1  0  0  0  0
  4  6  1  0  0  0  0
  4 11  1  0  0  0  0
  4 29  1  0  0  0  0
  5 15  1  0  0  0  0
  5 30  1  0  0  0  0
  6 16  2  0  0  0  0
  7 16  1  0  0  0  0
  7 34  1  0  0  0  0
  7 35  1  0  0  0  0
  8 10  1  0  0  0  0
  8 12  2  0  0  0  0
  8 13  1  0  0  0  0
  9 11  2  0  0  0  0
  9 12  1  0  0  0  0
  9 16  1  0  0  0  0
 10 17  2  0  0  0  0
 10 18  1  0  0  0  0
 11 14  1  0  0  0  0
 12 22  1  0  0  0  0
 13 14  2  0  0  0  0
 13 23  1  0  0  0  0
 14 24  1  0  0  0  0
 15 19  2  0  0  0  0
 15 20  1  0  0  0  0
 17 19  1  0  0  0  0
 17 25  1  0  0  0  0
 18 20  2  0  0  0  0
 18 26  1  0  0  0  0
 19 27  1  0  0  0  0
 20 28  1  0  0  0  0
 21 31  1  0  0  0  0
 21 32  1  0  0  0  0
 21 33  1  0  0  0  0
M  END
> <PUBCHEM_COMPOUND_CID>
49830444

> <PUBCHEM_CONFORMER_RMSD>
0.6

> <PUBCHEM_CONFORMER_DIVERSEORDER>
1
18
16
19
5
21
15
17
20
9
11
13
10
7
3
6
2
12
4
14
8

> <PUBCHEM_MMFF94_PARTIAL_CHARGES>
29
1 1.33
11 -0.15
12 -0.15
13 -0.15
14 -0.15
15 0.2
16 0.37
17 -0.15
18 -0.15
19 -0.15
2 -0.65
20 -0.15
21 0.11
22 0.15
23 0.15
24 0.15
25 0.15
26 0.15
27 0.15
28 0.15
29 0.27
3 -0.65
30 0.42
34 0.4
35 0.4
4 0.3
5 -0.76
6 -0.71
7 -0.88

> <PUBCHEM_EFFECTIVE_ROTOR_COUNT>
3

> <PUBCHEM_PHARMACOPHORE_FEATURES>
9
1 2 acceptor
1 3 acceptor
1 4 donor
1 5 donor
1 7 donor
3 6 7 16 cation
5 4 6 9 11 16 rings
6 10 15 17 18 19 20 rings
6 8 9 11 12 13 14 rings

> <PUBCHEM_HEAVY_ATOM_COUNT>
21

> <PUBCHEM_ATOM_DEF_STEREO_COUNT>
0

> <PUBCHEM_ATOM_UDEF_STEREO_COUNT>
0

> <PUBCHEM_BOND_DEF_STEREO_COUNT>
0

> <PUBCHEM_BOND_UDEF_STEREO_COUNT>
0

> <PUBCHEM_ISOTOPIC_ATOM_COUNT>
0

> <PUBCHEM_COMPONENT_COUNT>
1

> <PUBCHEM_CACTVS_TAUTO_COUNT>
35

> <PUBCHEM_CONFORMER_ID>
02F85A2C00000001

> <PUBCHEM_MMFF94_ENERGY>
58.0119

> <PUBCHEM_FEATURE_SELFOVERLAP>
45.78

> <PUBCHEM_SHAPE_FINGERPRINT>
10014705 185 18260268581197873227
10366900 7 18273498974565916504
10595046 47 18201719548617218569
10693767 8 17773889597616393926
10912923 1 17775008951243399355
11089746 13 18333446539103892026
11471102 20 18342181055464794346
12107183 9 17337607651999167715
12236239 1 16988566775370845578
12403259 415 18113896031663599309
12730499 353 18408327670159131418
12969540 114 18260255348678142375
13533116 47 17458898241671927770
14251718 22 18413387657383127751
14528608 73 18343865536799927828
15142383 8 8574445213412371527
15196674 1 18410861000989648594
15238133 3 14562532838589283711
15375358 24 18259707804323966882
15537594 2 15554726673181646407
16079462 125 18040710372765044205
17834072 33 18202562890920309775
1813 80 13686299079925790786
18222031 100 14836399229448506651
19489759 90 16515685542085278761
200 152 17775003475202151771
20157964 124 18412265021202965695
20645477 56 18040437693933882299
20645477 70 18271811164288724094
21033648 29 17967524675565705125
221357 26 18271811185895286184
23402539 116 18407758144900605359
23402655 69 18341892961674487575
23557571 272 17386007230493855788
23559900 14 18411135874432885384
2916195 48 18113333116043321477
29717793 49 17561089072744354606
335352 9 18412832378958715742
34797466 226 17703799132136273469
34934 24 18334011704960095635
3545911 37 18333455339170069594
4072396 5 18335974303847055274
4325135 7 18202001018982457613
4340502 62 15936414416391212851
495365 180 18272362092781190674
5104073 3 18335991930044614066
5283173 99 18259979345463477453
542803 24 17275108314594590179
59755656 215 18260270707708188878
59755656 520 17385720309615288403
6327066 14 18123751126636286548
7495541 125 16917061179014310818
9709674 26 18268723735453305994

> <PUBCHEM_SHAPE_MULTIPOLES>
404.36
14.6
1.82
0.92
7.23
0.01
0.05
3.32
3.29
-1.45
0.07
0.97
-0.07
0.5

> <PUBCHEM_SHAPE_SELFOVERLAP>
878.026

> <PUBCHEM_SHAPE_VOLUME>
223.2

> <PUBCHEM_COORDINATE_TYPE>
2
5
10

$$$$
