44632634
  -OEChem-10052115193D

 45 48  0     0  0  0  0  0  0999 V2000
   -4.0288    2.0634   -1.3179 S   0  0  0  0  0  0  0  0  0  0  0  0
   -2.4925   -2.6992   -1.2275 O   0  0  0  0  0  0  0  0  0  0  0  0
   -1.0569   -1.7328    0.3268 N   0  0  0  0  0  0  0  0  0  0  0  0
    4.7487    0.7880    1.7633 N   0  0  0  0  0  0  0  0  0  0  0  0
   -3.3895   -1.3655    0.4150 N   0  0  0  0  0  0  0  0  0  0  0  0
    6.0890    1.2001   -0.1956 N   0  0  0  0  0  0  0  0  0  0  0  0
    1.2763   -1.5545   -0.4546 C   0  0  0  0  0  0  0  0  0  0  0  0
    0.0983   -2.4812   -0.1703 C   0  0  0  0  0  0  0  0  0  0  0  0
    1.5543   -0.6433    0.7132 C   0  0  0  0  0  0  0  0  0  0  0  0
   -0.8280   -0.8841    1.5065 C   0  0  0  0  0  0  0  0  0  0  0  0
    0.5780   -0.3639    1.5966 C   0  0  0  0  0  0  0  0  0  0  0  0
    2.9110   -0.0607    0.8394 C   0  0  0  0  0  0  0  0  0  0  0  0
    3.8301    0.2460   -0.1989 C   0  0  0  0  0  0  0  0  0  0  0  0
   -2.3250   -1.9824   -0.2359 C   0  0  0  0  0  0  0  0  0  0  0  0
    3.5036    0.2830    2.0353 C   0  0  0  0  0  0  0  0  0  0  0  0
    4.9650    0.7730    0.4104 C   0  0  0  0  0  0  0  0  0  0  0  0
   -4.7576   -1.5221   -0.0245 C   0  0  0  0  0  0  0  0  0  0  0  0
    3.8387    0.1395   -1.5992 C   0  0  0  0  0  0  0  0  0  0  0  0
   -5.1720   -0.4601   -1.0400 C   0  0  0  0  0  0  0  0  0  0  0  0
    4.9786    0.5674   -2.2773 C   0  0  0  0  0  0  0  0  0  0  0  0
   -5.0418    0.9458   -0.5074 C   0  0  0  0  0  0  0  0  0  0  0  0
    6.0420    1.0743   -1.5424 C   0  0  0  0  0  0  0  0  0  0  0  0
   -5.6475    1.5038    0.5969 C   0  0  0  0  0  0  0  0  0  0  0  0
   -5.2750    2.8667    0.7799 C   0  0  0  0  0  0  0  0  0  0  0  0
   -4.3990    3.2986   -0.1914 C   0  0  0  0  0  0  0  0  0  0  0  0
    2.1489   -2.1757   -0.6869 H   0  0  0  0  0  0  0  0  0  0  0  0
    1.0416   -0.9444   -1.3348 H   0  0  0  0  0  0  0  0  0  0  0  0
    0.3611   -3.2165    0.6009 H   0  0  0  0  0  0  0  0  0  0  0  0
   -0.1551   -3.0424   -1.0754 H   0  0  0  0  0  0  0  0  0  0  0  0
   -1.4999   -0.0214    1.4773 H   0  0  0  0  0  0  0  0  0  0  0  0
   -1.0648   -1.4817    2.3932 H   0  0  0  0  0  0  0  0  0  0  0  0
    0.7667    0.3017    2.4354 H   0  0  0  0  0  0  0  0  0  0  0  0
    3.1637    0.2134    3.0597 H   0  0  0  0  0  0  0  0  0  0  0  0
    5.4076    1.1190    2.4542 H   0  0  0  0  0  0  0  0  0  0  0  0
   -3.2436   -0.8428    1.2693 H   0  0  0  0  0  0  0  0  0  0  0  0
   -4.8867   -2.5192   -0.4599 H   0  0  0  0  0  0  0  0  0  0  0  0
   -5.3869   -1.4705    0.8710 H   0  0  0  0  0  0  0  0  0  0  0  0
    3.0000   -0.2501   -2.1637 H   0  0  0  0  0  0  0  0  0  0  0  0
   -6.2184   -0.6266   -1.3247 H   0  0  0  0  0  0  0  0  0  0  0  0
   -4.5767   -0.5828   -1.9537 H   0  0  0  0  0  0  0  0  0  0  0  0
    5.0323    0.5070   -3.3591 H   0  0  0  0  0  0  0  0  0  0  0  0
    6.9384    1.4131   -2.0551 H   0  0  0  0  0  0  0  0  0  0  0  0
   -6.3273    0.9654    1.2450 H   0  0  0  0  0  0  0  0  0  0  0  0
   -5.6318    3.4984    1.5829 H   0  0  0  0  0  0  0  0  0  0  0  0
   -3.9585    4.2804   -0.2933 H   0  0  0  0  0  0  0  0  0  0  0  0
  1 21  1  0  0  0  0
  1 25  1  0  0  0  0
  2 14  2  0  0  0  0
  3  8  1  0  0  0  0
  3 10  1  0  0  0  0
  3 14  1  0  0  0  0
  4 15  1  0  0  0  0
  4 16  1  0  0  0  0
  4 34  1  0  0  0  0
  5 14  1  0  0  0  0
  5 17  1  0  0  0  0
  5 35  1  0  0  0  0
  6 16  1  0  0  0  0
  6 22  2  0  0  0  0
  7  8  1  0  0  0  0
  7  9  1  0  0  0  0
  7 26  1  0  0  0  0
  7 27  1  0  0  0  0
  8 28  1  0  0  0  0
  8 29  1  0  0  0  0
  9 11  2  0  0  0  0
  9 12  1  0  0  0  0
 10 11  1  0  0  0  0
 10 30  1  0  0  0  0
 10 31  1  0  0  0  0
 11 32  1  0  0  0  0
 12 13  1  0  0  0  0
 12 15  2  0  0  0  0
 13 16  2  0  0  0  0
 13 18  1  0  0  0  0
 15 33  1  0  0  0  0
 17 19  1  0  0  0  0
 17 36  1  0  0  0  0
 17 37  1  0  0  0  0
 18 20  2  0  0  0  0
 18 38  1  0  0  0  0
 19 21  1  0  0  0  0
 19 39  1  0  0  0  0
 19 40  1  0  0  0  0
 20 22  1  0  0  0  0
 20 41  1  0  0  0  0
 21 23  2  0  0  0  0
 22 42  1  0  0  0  0
 23 24  1  0  0  0  0
 23 43  1  0  0  0  0
 24 25  2  0  0  0  0
 24 44  1  0  0  0  0
 25 45  1  0  0  0  0
M  END
> <PUBCHEM_COMPOUND_CID>
44632634

> <PUBCHEM_CONFORMER_RMSD>
0.8

> <PUBCHEM_CONFORMER_DIVERSEORDER>
1
40
155
33
160
44
21
105
187
56
9
189
162
165
85
145
137
170
117
154
106
168
138
112
128
54
176
142
48
51
197
7
74
126
186
119
60
151
193
153
94
67
134
185
23
113
42
109
32
121
101
124
169
174
173
136
166
31
184
181
41
73
183
64
50
180
79
59
70
88
143
171
100
196
104
76
127
107
96
123
175
179
78
52
125
131
133
58
3
92
63
25
178
115
45
164
177
80
11
156
77
144
66
20
16
22
62
95
61
30
12
19
2
200
159
93
90
72
132
103
161
182
129
10
27
199
120
34
111
190
84
36
65
163
102
114
191
97
149
71
99
68
98
152
110
29
89
18
122
57
83
43
28
37
167
87
148
4
195
35
108
39
135
147
75
53
14
150
55
116
91
158
139
69
140
130
118
24
172
86
157
26
49
15
188
146
47
17
6
13
194
38
81
198
8
141
46
82
192
5

> <PUBCHEM_MMFF94_PARTIAL_CHARGES>
34
1 -0.08
10 0.44
11 -0.29
12 -0.05
14 0.69
15 -0.3
16 0.11
17 0.3
18 -0.15
19 0.18
2 -0.57
20 -0.15
21 -0.14
22 0.16
23 -0.15
24 -0.15
25 -0.11
3 -0.66
32 0.15
33 0.15
34 0.27
35 0.37
38 0.15
4 0.03
41 0.15
42 0.15
43 0.15
44 0.15
45 0.15
5 -0.73
6 -0.57
7 0.14
8 0.3
9 -0.09

> <PUBCHEM_EFFECTIVE_ROTOR_COUNT>
6.8

> <PUBCHEM_PHARMACOPHORE_FEATURES>
9
1 2 acceptor
1 4 cation
1 4 donor
1 5 donor
1 6 acceptor
5 1 21 23 24 25 rings
5 4 12 13 15 16 rings
6 3 7 8 9 10 11 rings
6 6 13 16 18 20 22 rings

> <PUBCHEM_HEAVY_ATOM_COUNT>
25

> <PUBCHEM_ATOM_DEF_STEREO_COUNT>
0

> <PUBCHEM_ATOM_UDEF_STEREO_COUNT>
0

> <PUBCHEM_BOND_DEF_STEREO_COUNT>
0

> <PUBCHEM_BOND_UDEF_STEREO_COUNT>
0

> <PUBCHEM_ISOTOPIC_ATOM_COUNT>
0

> <PUBCHEM_COMPONENT_COUNT>
1

> <PUBCHEM_CACTVS_TAUTO_COUNT>
6

> <PUBCHEM_CONFORMER_ID>
02A90A3A00000001

> <PUBCHEM_MMFF94_ENERGY>
39.5726

> <PUBCHEM_FEATURE_SELFOVERLAP>
45.784

> <PUBCHEM_SHAPE_FINGERPRINT>
10429389 16 17487917626098992644
105312 117 18272930527186543199
10615611 76 17749119889242392749
10670039 82 18410012143574029117
11135609 149 16486141578889958692
11475781 23 17775560910549661608
11796584 16 10159710087681768403
12390115 104 18342462517604004491
12422481 6 17458897120305336798
12596602 18 16370724833852269785
13075007 39 12396306980091631582
13914758 101 18410294705921406706
14251751 18 9151168749136758413
14251752 14 18411982460237995070
14251764 75 17767125307587994025
14341114 328 17675923188130475807
14347329 18 18410575084731800488
14747281 78 17201379373289717653
14840074 17 17822017480215591893
14848178 5 11239991235576160949
14931854 50 17703217409672501505
14950920 106 15213577845640556893
15163728 17 18335426733596780471
15183329 4 16559038164270902695
15604295 49 18267865176746457408
1601671 61 18335136492591493804
1768 23 17968676937855268709
21033650 10 18340211881088627362
21302155 148 18114743737806489709
21623969 137 14129060326678005644
21859007 373 18130211710699387648
22061861 79 16558752321038119556
22122407 14 17531541986992427596
22393880 68 17489580190801635319
23428019 142 12967119528399977221
23536364 44 17418379060650363049
23559900 14 16772955964454182554
23569914 152 16481927029791794197
249057 25 17895459406151869178
2838139 119 18409162203800556192
3459 110 14490772198838185625
38570 142 17459207230383066414
3918712 181 18408876352553332253
392239 28 15791738520292723805
4015057 19 15697997495734680490
4058900 60 18260270728761513394
439807 62 13542169633408052677
445580 204 18186525431983027428
4487111 67 18120088386530941861
46194498 28 17201902933602175505
5104073 3 15141800795140986648
5283173 99 18202562895035929257
6608658 132 18338784681379438397
6700243 42 17693979509858823223
7062679 6 18333731325299875701
7808743 9 18408601440438824833

> <PUBCHEM_SHAPE_MULTIPOLES>
492.54
16.44
2.95
1.81
1.74
0.41
-0.01
11.92
-3.33
-5.28
-0.43
2.24
0.31
-1.11

> <PUBCHEM_SHAPE_SELFOVERLAP>
1055.203

> <PUBCHEM_SHAPE_VOLUME>
275

> <PUBCHEM_COORDINATE_TYPE>
2
5
10

$$$$
