24883334
  -OEChem-10062122033D

 61 64  0     1  0  0  0  0  0999 V2000
    6.3451    3.0249   -1.0349 Cl  0  0  0  0  0  0  0  0  0  0  0  0
    3.9442    1.4935   -1.8089 F   0  0  0  0  0  0  0  0  0  0  0  0
    7.2940    1.9037    1.5340 F   0  0  0  0  0  0  0  0  0  0  0  0
   -0.9944    1.5462   -0.7947 O   0  0  0  0  0  0  0  0  0  0  0  0
   -3.2090    2.4261    1.8889 O   0  0  0  0  0  0  0  0  0  0  0  0
   -3.1320   -3.0687   -0.3760 O   0  0  0  0  0  0  0  0  0  0  0  0
   -5.1909   -1.9245    1.1390 O   0  0  0  0  0  0  0  0  0  0  0  0
   -3.1106    3.0828   -0.3314 N   0  0  0  0  0  0  0  0  0  0  0  0
   -2.3389   -0.3781   -0.6333 N   0  0  0  0  0  0  0  0  0  0  0  0
    1.3995   -4.4874   -0.0694 N   0  0  0  0  0  0  0  0  0  0  0  0
    2.7659   -0.5979   -0.4326 N   0  0  0  0  0  0  0  0  0  0  0  0
    3.2047   -2.8947   -0.1752 N   0  0  0  0  0  0  0  0  0  0  0  0
   -3.3568    1.7607   -0.8946 C   0  0  1  0  0  0  0  0  0  0  0  0
   -3.7201    2.0192   -2.3517 C   0  0  0  0  0  0  0  0  0  0  0  0
   -2.9570    3.2976   -2.6855 C   0  0  0  0  0  0  0  0  0  0  0  0
   -3.0126    4.0901   -1.3879 C   0  0  0  0  0  0  0  0  0  0  0  0
   -2.0826    0.9804   -0.7686 C   0  0  0  0  0  0  0  0  0  0  0  0
   -3.1248    3.3082    1.0345 C   0  0  0  0  0  0  0  0  0  0  0  0
   -1.3949   -1.4224   -0.4904 C   0  0  0  0  0  0  0  0  0  0  0  0
   -3.0283    4.7138    1.4759 C   0  0  0  0  0  0  0  0  0  0  0  0
   -1.8080   -2.7441   -0.3650 C   0  0  0  0  0  0  0  0  0  0  0  0
   -0.0359   -1.1235   -0.4748 C   0  0  0  0  0  0  0  0  0  0  0  0
    0.9091   -2.1546   -0.3331 C   0  0  0  0  0  0  0  0  0  0  0  0
   -0.8619   -3.7639   -0.2244 C   0  0  0  0  0  0  0  0  0  0  0  0
    0.5042   -3.4934   -0.2056 C   0  0  0  0  0  0  0  0  0  0  0  0
   -3.0380    4.9810    2.7835 C   0  0  0  0  0  0  0  0  0  0  0  0
    2.2817   -1.9239   -0.3098 C   0  0  0  0  0  0  0  0  0  0  0  0
   -3.6482   -3.7201    0.7826 C   0  0  0  0  0  0  0  0  0  0  0  0
    2.7009   -4.1343   -0.0620 C   0  0  0  0  0  0  0  0  0  0  0  0
   -5.1037   -3.3330    0.9608 C   0  0  0  0  0  0  0  0  0  0  0  0
    3.9150    0.0404    0.0606 C   0  0  0  0  0  0  0  0  0  0  0  0
    4.4914    1.0928   -0.6508 C   0  0  0  0  0  0  0  0  0  0  0  0
    4.4801   -0.3795    1.2649 C   0  0  0  0  0  0  0  0  0  0  0  0
    5.6328    1.7253   -0.1578 C   0  0  0  0  0  0  0  0  0  0  0  0
    5.6213    0.2530    1.7578 C   0  0  0  0  0  0  0  0  0  0  0  0
    6.1976    1.3054    1.0466 C   0  0  0  0  0  0  0  0  0  0  0  0
   -6.5388   -1.5012    1.2893 C   0  0  0  0  0  0  0  0  0  0  0  0
   -4.1697    1.2735   -0.3444 H   0  0  0  0  0  0  0  0  0  0  0  0
   -4.7971    2.2084   -2.4376 H   0  0  0  0  0  0  0  0  0  0  0  0
   -3.4619    1.1957   -3.0242 H   0  0  0  0  0  0  0  0  0  0  0  0
   -1.9172    3.0580   -2.9373 H   0  0  0  0  0  0  0  0  0  0  0  0
   -3.3897    3.8433   -3.5287 H   0  0  0  0  0  0  0  0  0  0  0  0
   -2.1275    4.7166   -1.2444 H   0  0  0  0  0  0  0  0  0  0  0  0
   -3.9107    4.7159   -1.3440 H   0  0  0  0  0  0  0  0  0  0  0  0
   -3.3103   -0.6823   -0.6396 H   0  0  0  0  0  0  0  0  0  0  0  0
   -2.9571    5.5240    0.7626 H   0  0  0  0  0  0  0  0  0  0  0  0
    0.3279   -0.1117   -0.5553 H   0  0  0  0  0  0  0  0  0  0  0  0
   -1.1948   -4.7970   -0.1360 H   0  0  0  0  0  0  0  0  0  0  0  0
   -2.9709    6.0103    3.1217 H   0  0  0  0  0  0  0  0  0  0  0  0
   -3.1100    4.2179    3.5503 H   0  0  0  0  0  0  0  0  0  0  0  0
   -3.5605   -4.8040    0.6535 H   0  0  0  0  0  0  0  0  0  0  0  0
   -3.0834   -3.4159    1.6733 H   0  0  0  0  0  0  0  0  0  0  0  0
    2.3165   -0.0810   -1.1837 H   0  0  0  0  0  0  0  0  0  0  0  0
    3.4170   -4.9395    0.0483 H   0  0  0  0  0  0  0  0  0  0  0  0
   -5.5236   -3.8456    1.8332 H   0  0  0  0  0  0  0  0  0  0  0  0
   -5.6724   -3.6129    0.0664 H   0  0  0  0  0  0  0  0  0  0  0  0
    4.0422   -1.1871    1.8453 H   0  0  0  0  0  0  0  0  0  0  0  0
    6.0595   -0.0715    2.6969 H   0  0  0  0  0  0  0  0  0  0  0  0
   -6.5451   -0.4163    1.4248 H   0  0  0  0  0  0  0  0  0  0  0  0
   -6.9912   -1.9661    2.1705 H   0  0  0  0  0  0  0  0  0  0  0  0
   -7.1194   -1.7439    0.3941 H   0  0  0  0  0  0  0  0  0  0  0  0
  1 34  1  0  0  0  0
  2 32  1  0  0  0  0
  3 36  1  0  0  0  0
  4 17  2  0  0  0  0
  5 18  2  0  0  0  0
  6 21  1  0  0  0  0
  6 28  1  0  0  0  0
  7 30  1  0  0  0  0
  7 37  1  0  0  0  0
  8 13  1  0  0  0  0
  8 16  1  0  0  0  0
  8 18  1  0  0  0  0
  9 17  1  0  0  0  0
  9 19  1  0  0  0  0
  9 45  1  0  0  0  0
 10 25  1  0  0  0  0
 10 29  2  0  0  0  0
 11 27  1  0  0  0  0
 11 31  1  0  0  0  0
 11 53  1  0  0  0  0
 12 27  2  0  0  0  0
 12 29  1  0  0  0  0
 13 14  1  0  0  0  0
 13 17  1  0  0  0  0
 13 38  1  0  0  0  0
 14 15  1  0  0  0  0
 14 39  1  0  0  0  0
 14 40  1  0  0  0  0
 15 16  1  0  0  0  0
 15 41  1  0  0  0  0
 15 42  1  0  0  0  0
 16 43  1  0  0  0  0
 16 44  1  0  0  0  0
 18 20  1  0  0  0  0
 19 21  2  0  0  0  0
 19 22  1  0  0  0  0
 20 26  2  0  0  0  0
 20 46  1  0  0  0  0
 21 24  1  0  0  0  0
 22 23  2  0  0  0  0
 22 47  1  0  0  0  0
 23 25  1  0  0  0  0
 23 27  1  0  0  0  0
 24 25  2  0  0  0  0
 24 48  1  0  0  0  0
 26 49  1  0  0  0  0
 26 50  1  0  0  0  0
 28 30  1  0  0  0  0
 28 51  1  0  0  0  0
 28 52  1  0  0  0  0
 29 54  1  0  0  0  0
 30 55  1  0  0  0  0
 30 56  1  0  0  0  0
 31 32  2  0  0  0  0
 31 33  1  0  0  0  0
 32 34  1  0  0  0  0
 33 35  2  0  0  0  0
 33 57  1  0  0  0  0
 34 36  2  0  0  0  0
 35 36  1  0  0  0  0
 35 58  1  0  0  0  0
 37 59  1  0  0  0  0
 37 60  1  0  0  0  0
 37 61  1  0  0  0  0
M  END
> <PUBCHEM_COMPOUND_CID>
24883334

> <PUBCHEM_CONFORMER_RMSD>
1.2

> <PUBCHEM_CONFORMER_DIVERSEORDER>
1
3
17
14
7
15
12
9
20
21
2
19
18
4
11
13
8
6
10
5
16

> <PUBCHEM_MMFF94_PARTIAL_CHARGES>
44
1 -0.18
10 -0.62
11 -0.6
12 -0.62
13 0.36
16 0.3
17 0.57
18 0.62
19 0.12
2 -0.19
20 -0.14
21 0.08
22 -0.15
24 -0.15
25 0.31
26 -0.3
27 0.41
28 0.28
29 0.47
3 -0.19
30 0.28
31 0.1
32 0.19
33 -0.15
34 0.18
35 -0.15
36 0.19
37 0.28
4 -0.57
45 0.37
46 0.15
47 0.15
48 0.15
49 0.15
5 -0.57
50 0.15
53 0.4
54 0.15
57 0.15
58 0.15
6 -0.36
7 -0.56
8 -0.66
9 -0.55

> <PUBCHEM_EFFECTIVE_ROTOR_COUNT>
12

> <PUBCHEM_PHARMACOPHORE_FEATURES>
13
1 11 donor
1 26 hydrophobe
1 4 acceptor
1 5 acceptor
1 6 acceptor
1 7 acceptor
1 9 donor
3 10 12 29 cation
3 11 12 27 cation
5 8 13 14 15 16 rings
6 10 12 23 25 27 29 rings
6 19 21 22 23 24 25 rings
6 31 32 33 34 35 36 rings

> <PUBCHEM_HEAVY_ATOM_COUNT>
37

> <PUBCHEM_ATOM_DEF_STEREO_COUNT>
1

> <PUBCHEM_ATOM_UDEF_STEREO_COUNT>
0

> <PUBCHEM_BOND_DEF_STEREO_COUNT>
0

> <PUBCHEM_BOND_UDEF_STEREO_COUNT>
0

> <PUBCHEM_ISOTOPIC_ATOM_COUNT>
0

> <PUBCHEM_COMPONENT_COUNT>
1

> <PUBCHEM_CACTVS_TAUTO_COUNT>
6

> <PUBCHEM_CONFORMER_ID>
017BB08600000001

> <PUBCHEM_MMFF94_ENERGY>
126.4587

> <PUBCHEM_FEATURE_SELFOVERLAP>
66.147

> <PUBCHEM_SHAPE_FINGERPRINT>
102385 1 18338516322479611951
12788726 201 18192434288916708158
14028597 1 17241035596101630379
14040221 97 18260270767579171445
14294032 229 18270395139246253678
14394314 77 17903081375537959005
14849402 71 17908425758274449882
15347590 135 18041562554633506107
21033648 29 17245832546153063301
21796203 349 17394760678844577283
22122407 14 17190949255275383233
23398203 216 18125729993587732697
24771293 8 18269844263063222443
469060 322 18264223550392942979
6004065 56 18048880985986152531
9961470 85 18194677060424579964

> <PUBCHEM_SHAPE_MULTIPOLES>
700.38
14.8
7.87
1.96
17.62
0.88
0.17
7.97
5.04
-8.14
1.55
-1.7
3.04
0.64

> <PUBCHEM_SHAPE_SELFOVERLAP>
1504.371

> <PUBCHEM_SHAPE_VOLUME>
387.3

> <PUBCHEM_COORDINATE_TYPE>
2
5
10

$$$$
