49830608
  -OEChem-10052120443D

 57 60  0     0  0  0  0  0  0999 V2000
    2.7577   -4.8857   -1.1967 F   0  0  0  0  0  0  0  0  0  0  0  0
   -6.9151   -1.5741    0.0539 F   0  0  0  0  0  0  0  0  0  0  0  0
   -8.1040   -0.3268    1.3914 F   0  0  0  0  0  0  0  0  0  0  0  0
   -6.3644   -1.4049    2.1574 F   0  0  0  0  0  0  0  0  0  0  0  0
    6.0906   -1.3697    0.8083 O   0  0  0  0  0  0  0  0  0  0  0  0
   -4.6668   -0.0086    0.4489 O   0  0  0  0  0  0  0  0  0  0  0  0
    4.1405    1.4925    0.2123 N   0  0  0  0  0  0  0  0  0  0  0  0
   -1.5225    1.4338   -0.4917 N   0  0  0  0  0  0  0  0  0  0  0  0
    1.8994    1.1340   -0.2837 N   0  0  0  0  0  0  0  0  0  0  0  0
   -2.0245   -0.7245   -0.2087 N   0  0  0  0  0  0  0  0  0  0  0  0
    3.2944    2.4856   -1.7100 N   0  0  0  0  0  0  0  0  0  0  0  0
   -4.1229    2.2364    0.1472 N   0  0  0  0  0  0  0  0  0  0  0  0
    5.4369    0.5851    2.1250 C   0  0  0  0  0  0  0  0  0  0  0  0
    4.0668    0.6900    1.4119 C   0  0  0  0  0  0  0  0  0  0  0  0
    6.5052   -0.0749    1.2249 C   0  0  0  0  0  0  0  0  0  0  0  0
    5.9348    1.9792    2.5493 C   0  0  0  0  0  0  0  0  0  0  0  0
    5.2427   -0.2691    3.3952 C   0  0  0  0  0  0  0  0  0  0  0  0
   -0.3699    0.7490   -0.7520 C   0  0  0  0  0  0  0  0  0  0  0  0
    3.0642    1.7138   -0.6307 C   0  0  0  0  0  0  0  0  0  0  0  0
   -0.7043   -0.5777   -0.5712 C   0  0  0  0  0  0  0  0  0  0  0  0
    0.8726    1.3702   -1.1265 C   0  0  0  0  0  0  0  0  0  0  0  0
   -2.4812    0.5038   -0.1716 C   0  0  0  0  0  0  0  0  0  0  0  0
    0.1875   -1.6874   -0.7323 C   0  0  0  0  0  0  0  0  0  0  0  0
    0.9775    2.1429   -2.2650 C   0  0  0  0  0  0  0  0  0  0  0  0
   -1.8463    2.7801   -0.4981 C   0  0  0  0  0  0  0  0  0  0  0  0
   -3.7949    0.9765    0.1465 C   0  0  0  0  0  0  0  0  0  0  0  0
    2.2248    2.6806   -2.5091 C   0  0  0  0  0  0  0  0  0  0  0  0
   -3.1103    3.1314   -0.1849 C   0  0  0  0  0  0  0  0  0  0  0  0
    0.7993   -1.9174   -1.9648 C   0  0  0  0  0  0  0  0  0  0  0  0
    0.4442   -2.5378    0.3432 C   0  0  0  0  0  0  0  0  0  0  0  0
    1.6675   -2.9977   -2.1216 C   0  0  0  0  0  0  0  0  0  0  0  0
    1.3123   -3.6181    0.1863 C   0  0  0  0  0  0  0  0  0  0  0  0
    1.9239   -3.8481   -1.0461 C   0  0  0  0  0  0  0  0  0  0  0  0
   -5.9690    0.4578    0.7642 C   0  0  0  0  0  0  0  0  0  0  0  0
   -6.8465   -0.7203    1.0987 C   0  0  0  0  0  0  0  0  0  0  0  0
    3.3333    1.1340    2.0976 H   0  0  0  0  0  0  0  0  0  0  0  0
    3.7034   -0.3146    1.1600 H   0  0  0  0  0  0  0  0  0  0  0  0
    7.4510   -0.1831    1.7683 H   0  0  0  0  0  0  0  0  0  0  0  0
    6.7039    0.5239    0.3300 H   0  0  0  0  0  0  0  0  0  0  0  0
    5.1874    2.4958    3.1619 H   0  0  0  0  0  0  0  0  0  0  0  0
    6.8532    1.9031    3.1430 H   0  0  0  0  0  0  0  0  0  0  0  0
    6.1596    2.6162    1.6877 H   0  0  0  0  0  0  0  0  0  0  0  0
    6.1879   -0.3953    3.9351 H   0  0  0  0  0  0  0  0  0  0  0  0
    4.5294    0.2013    4.0817 H   0  0  0  0  0  0  0  0  0  0  0  0
    4.8602   -1.2673    3.1551 H   0  0  0  0  0  0  0  0  0  0  0  0
    5.0144    1.9294   -0.0547 H   0  0  0  0  0  0  0  0  0  0  0  0
    6.8025   -1.7332    0.2546 H   0  0  0  0  0  0  0  0  0  0  0  0
    0.1489    2.3206   -2.9393 H   0  0  0  0  0  0  0  0  0  0  0  0
   -1.0840    3.5075   -0.7443 H   0  0  0  0  0  0  0  0  0  0  0  0
    2.4045    3.3002   -3.3812 H   0  0  0  0  0  0  0  0  0  0  0  0
   -3.3957    4.1780   -0.1778 H   0  0  0  0  0  0  0  0  0  0  0  0
    0.6070   -1.2727   -2.8191 H   0  0  0  0  0  0  0  0  0  0  0  0
   -0.0225   -2.3718    1.3113 H   0  0  0  0  0  0  0  0  0  0  0  0
    2.1427   -3.1782   -3.0813 H   0  0  0  0  0  0  0  0  0  0  0  0
    1.5130   -4.2800    1.0235 H   0  0  0  0  0  0  0  0  0  0  0  0
   -5.9331    1.1289    1.6306 H   0  0  0  0  0  0  0  0  0  0  0  0
   -6.3986    0.9884   -0.0936 H   0  0  0  0  0  0  0  0  0  0  0  0
  1 33  1  0  0  0  0
  2 35  1  0  0  0  0
  3 35  1  0  0  0  0
  4 35  1  0  0  0  0
  5 15  1  0  0  0  0
  5 47  1  0  0  0  0
  6 26  1  0  0  0  0
  6 34  1  0  0  0  0
  7 14  1  0  0  0  0
  7 19  1  0  0  0  0
  7 46  1  0  0  0  0
  8 18  1  0  0  0  0
  8 22  1  0  0  0  0
  8 25  1  0  0  0  0
  9 19  1  0  0  0  0
  9 21  2  0  0  0  0
 10 20  1  0  0  0  0
 10 22  2  0  0  0  0
 11 19  2  0  0  0  0
 11 27  1  0  0  0  0
 12 26  2  0  0  0  0
 12 28  1  0  0  0  0
 13 14  1  0  0  0  0
 13 15  1  0  0  0  0
 13 16  1  0  0  0  0
 13 17  1  0  0  0  0
 14 36  1  0  0  0  0
 14 37  1  0  0  0  0
 15 38  1  0  0  0  0
 15 39  1  0  0  0  0
 16 40  1  0  0  0  0
 16 41  1  0  0  0  0
 16 42  1  0  0  0  0
 17 43  1  0  0  0  0
 17 44  1  0  0  0  0
 17 45  1  0  0  0  0
 18 20  2  0  0  0  0
 18 21  1  0  0  0  0
 20 23  1  0  0  0  0
 21 24  1  0  0  0  0
 22 26  1  0  0  0  0
 23 29  2  0  0  0  0
 23 30  1  0  0  0  0
 24 27  2  0  0  0  0
 24 48  1  0  0  0  0
 25 28  2  0  0  0  0
 25 49  1  0  0  0  0
 27 50  1  0  0  0  0
 28 51  1  0  0  0  0
 29 31  1  0  0  0  0
 29 52  1  0  0  0  0
 30 32  2  0  0  0  0
 30 53  1  0  0  0  0
 31 33  2  0  0  0  0
 31 54  1  0  0  0  0
 32 33  1  0  0  0  0
 32 55  1  0  0  0  0
 34 35  1  0  0  0  0
 34 56  1  0  0  0  0
 34 57  1  0  0  0  0
M  END
> <PUBCHEM_COMPOUND_CID>
49830608

> <PUBCHEM_CONFORMER_RMSD>
1

> <PUBCHEM_CONFORMER_DIVERSEORDER>
1
67
40
53
18
20
25
27
54
60
45
51
43
24
35
6
39
52
61
63
48
32
12
57
50
38
5
19
41
17
4
42
69
46
30
21
44
64
56
62
16
8
58
2
15
11
47
26
28
3
65
68
23
13
10
36
59
14
34
55
66
9
22
49
33
7
37
31
29

> <PUBCHEM_MMFF94_PARTIAL_CHARGES>
42
1 -0.19
10 -0.57
11 -0.62
12 -0.62
14 0.37
15 0.28
18 -0.2
19 0.72
2 -0.34
20 0.17
21 0.36
22 0.1
23 0.05
24 -0.15
25 -0.18
26 0.69
27 0.16
28 0.02
29 -0.15
3 -0.34
30 -0.15
31 -0.15
32 -0.15
33 0.19
34 0.28
35 1.02
4 -0.34
46 0.4
47 0.4
48 0.15
49 0.15
5 -0.68
50 0.15
51 0.15
52 0.15
53 0.15
54 0.15
55 0.15
6 -0.43
7 -0.87
8 0.33
9 -0.62

> <PUBCHEM_EFFECTIVE_ROTOR_COUNT>
9

> <PUBCHEM_PHARMACOPHORE_FEATURES>
11
1 5 acceptor
1 5 donor
1 7 donor
1 9 acceptor
3 13 16 17 hydrophobe
3 8 10 22 cation
4 7 9 11 19 cation
5 8 10 18 20 22 rings
6 23 29 30 31 32 33 rings
6 8 12 22 25 26 28 rings
6 9 11 19 21 24 27 rings

> <PUBCHEM_HEAVY_ATOM_COUNT>
35

> <PUBCHEM_ATOM_DEF_STEREO_COUNT>
0

> <PUBCHEM_ATOM_UDEF_STEREO_COUNT>
0

> <PUBCHEM_BOND_DEF_STEREO_COUNT>
0

> <PUBCHEM_BOND_UDEF_STEREO_COUNT>
0

> <PUBCHEM_ISOTOPIC_ATOM_COUNT>
0

> <PUBCHEM_COMPONENT_COUNT>
1

> <PUBCHEM_CACTVS_TAUTO_COUNT>
3

> <PUBCHEM_CONFORMER_ID>
02F85AD000000001

> <PUBCHEM_MMFF94_ENERGY>
96.5804

> <PUBCHEM_FEATURE_SELFOVERLAP>
55.937

> <PUBCHEM_SHAPE_FINGERPRINT>
10050765 1 18265068938145471845
11445158 3 18042117833585380877
11607047 141 16628585522219110447
11719270 70 18335989752823144191
11963148 33 18264781024833761047
12422481 6 18192131721561062464
12522641 24 17560808684257693810
12741549 16 16478222732521792426
12788726 201 17689436405375022678
12839892 36 18410009965983346853
13140716 1 18053392282231139125
13533116 47 17386007333536822593
13540713 4 18194964037612865861
13692114 37 18271245031638358231
14028597 1 17346885519966334779
15064986 96 18197764523883376674
16728300 4 17895736431558305136
16994733 274 15482670208240017307
17913733 40 18060701680375564915
1979834 28 18411419497077684634
20505436 4 17608667329350271764
20554085 129 17846223292766470976
20771845 140 18271814566139997731
21033648 29 17916007119056025570
21304304 249 17967534579596467275
21585482 310 17385736793999840475
21792934 111 18338522942083680329
22149856 69 18199211576154293425
22956985 138 18045500812068718722
23559900 14 18119538639633003405
27425 322 16592277685464670948
465052 167 17676490574511112565
5104073 3 18127702530754604569
5265222 85 18341331172127478188
563151 248 17917704725600342454
59755656 215 18265353809886809063
6679774 75 18261398866958337306

> <PUBCHEM_SHAPE_MULTIPOLES>
649.56
15.81
4.52
2.49
17.31
4.21
0.64
-0.79
16.42
-2.76
-2.71
-3.49
-0.39
1.67

> <PUBCHEM_SHAPE_SELFOVERLAP>
1418.157

> <PUBCHEM_SHAPE_VOLUME>
356.1

> <PUBCHEM_COORDINATE_TYPE>
2
5
10

$$$$
