49830552
  -OEChem-10062121563D

 41 44  0     0  0  0  0  0  0999 V2000
    1.9778    3.0424   -0.5466 O   0  0  0  0  0  0  0  0  0  0  0  0
    2.4678   -3.6294    0.4526 O   0  0  0  0  0  0  0  0  0  0  0  0
    1.1716    0.4587   -0.2543 N   0  0  0  0  0  0  0  0  0  0  0  0
    3.3477   -1.5906    0.2405 N   0  0  0  0  0  0  0  0  0  0  0  0
   -3.3000   -1.2940   -0.4322 N   0  0  0  0  0  0  0  0  0  0  0  0
   -5.7171    2.0356    0.4384 N   0  0  0  0  0  0  0  0  0  0  0  0
    0.3921   -0.6977   -0.1653 C   0  0  0  0  0  0  0  0  0  0  0  0
    2.5375    0.7259   -0.1649 C   0  0  0  0  0  0  0  0  0  0  0  0
    0.8503   -1.9960    0.0612 C   0  0  0  0  0  0  0  0  0  0  0  0
    3.5343   -0.2143    0.0612 C   0  0  0  0  0  0  0  0  0  0  0  0
   -1.0057   -0.5009   -0.3270 C   0  0  0  0  0  0  0  0  0  0  0  0
   -1.9246   -1.5448   -0.2677 C   0  0  0  0  0  0  0  0  0  0  0  0
    2.2580   -2.4253    0.2577 C   0  0  0  0  0  0  0  0  0  0  0  0
    2.9265    2.0799   -0.3213 C   0  0  0  0  0  0  0  0  0  0  0  0
   -0.1003   -3.0477    0.1180 C   0  0  0  0  0  0  0  0  0  0  0  0
   -1.4676   -2.8276   -0.0436 C   0  0  0  0  0  0  0  0  0  0  0  0
    4.8819    0.2081    0.1265 C   0  0  0  0  0  0  0  0  0  0  0  0
    4.2576    2.4876   -0.2554 C   0  0  0  0  0  0  0  0  0  0  0  0
    5.2426    1.5443   -0.0296 C   0  0  0  0  0  0  0  0  0  0  0  0
   -4.1105   -0.1775   -0.1400 C   0  0  0  0  0  0  0  0  0  0  0  0
   -5.2383    0.0865   -0.9093 C   0  0  0  0  0  0  0  0  0  0  0  0
   -3.7850    0.6639    0.9182 C   0  0  0  0  0  0  0  0  0  0  0  0
    1.4182    3.6702    0.6010 C   0  0  0  0  0  0  0  0  0  0  0  0
   -6.0016    1.1955   -0.5819 C   0  0  0  0  0  0  0  0  0  0  0  0
   -4.6133    1.7471    1.1639 C   0  0  0  0  0  0  0  0  0  0  0  0
    0.6232    1.2934   -0.4454 H   0  0  0  0  0  0  0  0  0  0  0  0
   -1.3623    0.5097   -0.5278 H   0  0  0  0  0  0  0  0  0  0  0  0
    4.2158   -2.1004    0.3954 H   0  0  0  0  0  0  0  0  0  0  0  0
    0.2052   -4.0781    0.2924 H   0  0  0  0  0  0  0  0  0  0  0  0
   -2.1551   -3.6672    0.0100 H   0  0  0  0  0  0  0  0  0  0  0  0
    5.6769   -0.5154    0.3034 H   0  0  0  0  0  0  0  0  0  0  0  0
    4.5246    3.5329   -0.3801 H   0  0  0  0  0  0  0  0  0  0  0  0
    6.2856    1.8396    0.0254 H   0  0  0  0  0  0  0  0  0  0  0  0
   -3.8106   -2.0711   -0.8425 H   0  0  0  0  0  0  0  0  0  0  0  0
   -5.5209   -0.5484   -1.7424 H   0  0  0  0  0  0  0  0  0  0  0  0
   -2.9283    0.4897    1.5598 H   0  0  0  0  0  0  0  0  0  0  0  0
    0.9932    2.9332    1.2899 H   0  0  0  0  0  0  0  0  0  0  0  0
    2.1781    4.2661    1.1166 H   0  0  0  0  0  0  0  0  0  0  0  0
    0.6181    4.3383    0.2705 H   0  0  0  0  0  0  0  0  0  0  0  0
   -6.8909    1.4453   -1.1510 H   0  0  0  0  0  0  0  0  0  0  0  0
   -4.4062    2.4308    1.9806 H   0  0  0  0  0  0  0  0  0  0  0  0
  1 14  1  0  0  0  0
  1 23  1  0  0  0  0
  2 13  2  0  0  0  0
  3  7  1  0  0  0  0
  3  8  1  0  0  0  0
  3 26  1  0  0  0  0
  4 10  1  0  0  0  0
  4 13  1  0  0  0  0
  4 28  1  0  0  0  0
  5 12  1  0  0  0  0
  5 20  1  0  0  0  0
  5 34  1  0  0  0  0
  6 24  2  0  0  0  0
  6 25  1  0  0  0  0
  7  9  2  0  0  0  0
  7 11  1  0  0  0  0
  8 10  2  0  0  0  0
  8 14  1  0  0  0  0
  9 13  1  0  0  0  0
  9 15  1  0  0  0  0
 10 17  1  0  0  0  0
 11 12  2  0  0  0  0
 11 27  1  0  0  0  0
 12 16  1  0  0  0  0
 14 18  2  0  0  0  0
 15 16  2  0  0  0  0
 15 29  1  0  0  0  0
 16 30  1  0  0  0  0
 17 19  2  0  0  0  0
 17 31  1  0  0  0  0
 18 19  1  0  0  0  0
 18 32  1  0  0  0  0
 19 33  1  0  0  0  0
 20 21  2  0  0  0  0
 20 22  1  0  0  0  0
 21 24  1  0  0  0  0
 21 35  1  0  0  0  0
 22 25  2  0  0  0  0
 22 36  1  0  0  0  0
 23 37  1  0  0  0  0
 23 38  1  0  0  0  0
 23 39  1  0  0  0  0
 24 40  1  0  0  0  0
 25 41  1  0  0  0  0
M  END
> <PUBCHEM_COMPOUND_CID>
49830552

> <PUBCHEM_CONFORMER_RMSD>
0.6

> <PUBCHEM_CONFORMER_DIVERSEORDER>
2
3
7
16
10
1
5
11
8
4
15
9
6
13
14
12

> <PUBCHEM_MMFF94_PARTIAL_CHARGES>
38
1 -0.36
10 0.12
11 -0.15
12 0.1
13 0.54
14 0.08
15 -0.15
16 -0.15
17 -0.15
18 -0.15
19 -0.15
2 -0.57
20 0.1
21 -0.15
22 -0.15
23 0.28
24 0.16
25 0.16
26 0.4
27 0.15
28 0.37
29 0.15
3 -0.6
30 0.15
31 0.15
32 0.15
33 0.15
34 0.4
35 0.15
36 0.15
4 -0.55
40 0.15
41 0.15
5 -0.6
6 -0.62
7 0.1
8 0.1
9 0.09

> <PUBCHEM_EFFECTIVE_ROTOR_COUNT>
3.4

> <PUBCHEM_PHARMACOPHORE_FEATURES>
12
1 1 acceptor
1 2 acceptor
1 3 cation
1 3 donor
1 4 donor
1 5 cation
1 5 donor
1 6 acceptor
6 6 20 21 22 24 25 rings
6 7 9 11 12 15 16 rings
6 8 10 14 17 18 19 rings
7 3 4 7 8 9 10 13 rings

> <PUBCHEM_HEAVY_ATOM_COUNT>
25

> <PUBCHEM_ATOM_DEF_STEREO_COUNT>
0

> <PUBCHEM_ATOM_UDEF_STEREO_COUNT>
0

> <PUBCHEM_BOND_DEF_STEREO_COUNT>
0

> <PUBCHEM_BOND_UDEF_STEREO_COUNT>
0

> <PUBCHEM_ISOTOPIC_ATOM_COUNT>
0

> <PUBCHEM_COMPONENT_COUNT>
1

> <PUBCHEM_CACTVS_TAUTO_COUNT>
41

> <PUBCHEM_CONFORMER_ID>
02F85A9800000002

> <PUBCHEM_MMFF94_ENERGY>
127.3714

> <PUBCHEM_FEATURE_SELFOVERLAP>
60.909

> <PUBCHEM_SHAPE_FINGERPRINT>
10411042 1 17760926238880672066
10439779 11 18196357329367078032
1100329 8 18411138065261721616
11578080 2 14130211584705176340
12107183 9 18335973204209002394
12633257 1 18261096496484865234
12769317 202 18338222821799336845
12925494 130 18410008879879023017
13140716 1 18263356066010349138
13583140 156 18187091667528356259
13590594 115 17834120744751629666
13785724 45 17835237848835085818
13878862 14 18117255001137160501
14466204 15 18410850005979119360
14739800 52 17917129663791258106
14767858 380 18200578303436053151
14790565 3 18264495151393522228
14848178 96 18411133658345752865
15238133 3 18335706100393285164
15352361 1 8898975420778584757
15475509 35 16226607351741970418
15475509 8 17769956588066706542
1601671 61 18408884044839057444
16760501 71 18410302398017670305
20157964 124 18409727327587398679
21033648 144 18261105258587473263
21298829 104 18342176639869902721
21315763 76 18411127031306173709
21421861 104 18041266678852296058
21860390 5 18272656705466852167
22122407 14 18122917430555234697
23558518 356 17755580786875860146
23559900 14 18272935990459173326
23845131 108 18186519917161149867
245318 6 18042421277298425397
283562 15 17903069276721321499
335352 9 18410011031794866374
34797466 226 15123207958804259963
350125 39 18335983056589354212
3680242 22 18261384534451082106
4409770 3 14813635636772114727
474 4 18410291398168925883
5081480 168 17270082399393769063
5104073 3 18187078481546416482
513532 50 18060145297680308366
543358 83 18411418397539897422
59124914 9 18409729594892430504
59755656 215 18340494387558609060
6034566 193 17825688899463430676
6328613 192 18264496251200698692
633830 44 18340767139156483542
8272917 22 18410573968399298342
9981440 41 18193832871849252355

> <PUBCHEM_SHAPE_MULTIPOLES>
482.83
12.43
4.2
0.81
11.07
0.44
0.06
-8.81
-0.35
-2.55
0.54
0.62
-0.22
-1.01

> <PUBCHEM_SHAPE_SELFOVERLAP>
1068.901

> <PUBCHEM_SHAPE_VOLUME>
253.1

> <PUBCHEM_COORDINATE_TYPE>
2
5
10

$$$$
