49830554
  -OEChem-10062121553D

 33 35  0     0  0  0  0  0  0999 V2000
   -0.7666   -2.5698   -0.1199 Cl  0  0  0  0  0  0  0  0  0  0  0  0
   -3.5750   -4.1298    0.0719 Cl  0  0  0  0  0  0  0  0  0  0  0  0
    6.6784   -1.5932   -0.6710 Cl  0  0  0  0  0  0  0  0  0  0  0  0
   -3.1968    2.0861   -0.1139 S   0  0  0  0  0  0  0  0  0  0  0  0
    1.1303    1.2266    1.6934 O   0  0  0  0  0  0  0  0  0  0  0  0
    0.5512    3.0542   -0.3565 O   0  0  0  0  0  0  0  0  0  0  0  0
    0.2225    0.2546   -0.2487 N   0  0  0  0  0  0  0  0  0  0  0  0
   -1.3435    4.3433   -0.2728 N   0  0  0  0  0  0  0  0  0  0  0  0
   -2.2291   -0.3115   -0.1024 C   0  0  0  0  0  0  0  0  0  0  0  0
   -1.1182    0.5938   -0.1859 C   0  0  0  0  0  0  0  0  0  0  0  0
   -3.4433    0.3804   -0.0560 C   0  0  0  0  0  0  0  0  0  0  0  0
   -1.5033    1.9132   -0.2001 C   0  0  0  0  0  0  0  0  0  0  0  0
   -2.2630   -1.7265   -0.0628 C   0  0  0  0  0  0  0  0  0  0  0  0
   -4.6751   -0.2982    0.0274 C   0  0  0  0  0  0  0  0  0  0  0  0
   -3.4831   -2.4026    0.0206 C   0  0  0  0  0  0  0  0  0  0  0  0
   -4.6753   -1.6938    0.0648 C   0  0  0  0  0  0  0  0  0  0  0  0
    1.2481    0.5751    0.6611 C   0  0  0  0  0  0  0  0  0  0  0  0
    2.5945    0.0385    0.3309 C   0  0  0  0  0  0  0  0  0  0  0  0
   -0.7023    3.0946   -0.2742 C   0  0  0  0  0  0  0  0  0  0  0  0
    3.5153   -0.2103    1.3487 C   0  0  0  0  0  0  0  0  0  0  0  0
    2.9366   -0.2174   -0.9969 C   0  0  0  0  0  0  0  0  0  0  0  0
    4.7781   -0.7148    1.0388 C   0  0  0  0  0  0  0  0  0  0  0  0
    4.1994   -0.7219   -1.3069 C   0  0  0  0  0  0  0  0  0  0  0  0
    5.1202   -0.9706   -0.2891 C   0  0  0  0  0  0  0  0  0  0  0  0
    0.3915   -0.5823   -0.8030 H   0  0  0  0  0  0  0  0  0  0  0  0
   -5.6131    0.2487    0.0627 H   0  0  0  0  0  0  0  0  0  0  0  0
   -5.6298   -2.2116    0.1295 H   0  0  0  0  0  0  0  0  0  0  0  0
    3.2668   -0.0230    2.3900 H   0  0  0  0  0  0  0  0  0  0  0  0
    2.2527   -0.0152   -1.8165 H   0  0  0  0  0  0  0  0  0  0  0  0
    5.4851   -0.9050    1.8422 H   0  0  0  0  0  0  0  0  0  0  0  0
    4.4543   -0.9123   -2.3464 H   0  0  0  0  0  0  0  0  0  0  0  0
   -2.3530    4.4306   -0.2154 H   0  0  0  0  0  0  0  0  0  0  0  0
   -0.8082    5.2033   -0.3302 H   0  0  0  0  0  0  0  0  0  0  0  0
  1 13  1  0  0  0  0
  2 15  1  0  0  0  0
  3 24  1  0  0  0  0
  4 11  1  0  0  0  0
  4 12  1  0  0  0  0
  5 17  2  0  0  0  0
  6 19  2  0  0  0  0
  7 10  1  0  0  0  0
  7 17  1  0  0  0  0
  7 25  1  0  0  0  0
  8 19  1  0  0  0  0
  8 32  1  0  0  0  0
  8 33  1  0  0  0  0
  9 10  1  0  0  0  0
  9 11  2  0  0  0  0
  9 13  1  0  0  0  0
 10 12  2  0  0  0  0
 11 14  1  0  0  0  0
 12 19  1  0  0  0  0
 13 15  2  0  0  0  0
 14 16  2  0  0  0  0
 14 26  1  0  0  0  0
 15 16  1  0  0  0  0
 16 27  1  0  0  0  0
 17 18  1  0  0  0  0
 18 20  2  0  0  0  0
 18 21  1  0  0  0  0
 20 22  1  0  0  0  0
 20 28  1  0  0  0  0
 21 23  2  0  0  0  0
 21 29  1  0  0  0  0
 22 24  2  0  0  0  0
 22 30  1  0  0  0  0
 23 24  1  0  0  0  0
 23 31  1  0  0  0  0
M  END
> <PUBCHEM_COMPOUND_CID>
49830554

> <PUBCHEM_CONFORMER_RMSD>
0.8

> <PUBCHEM_CONFORMER_DIVERSEORDER>
1
7
6
4
3
5
8
2

> <PUBCHEM_MMFF94_PARTIAL_CHARGES>
32
1 -0.18
10 0.06
11 0.04
12 -0.05
13 0.18
14 -0.15
15 0.18
16 -0.15
17 0.54
18 0.09
19 0.71
2 -0.18
20 -0.15
21 -0.15
22 -0.15
23 -0.15
24 0.18
25 0.37
26 0.15
27 0.15
28 0.15
29 0.15
3 -0.18
30 0.15
31 0.15
32 0.37
33 0.37
4 -0.08
5 -0.57
6 -0.57
7 -0.49
8 -0.8

> <PUBCHEM_EFFECTIVE_ROTOR_COUNT>
4

> <PUBCHEM_PHARMACOPHORE_FEATURES>
7
1 5 acceptor
1 6 acceptor
1 7 donor
1 8 donor
5 4 9 10 11 12 rings
6 18 20 21 22 23 24 rings
6 9 11 13 14 15 16 rings

> <PUBCHEM_HEAVY_ATOM_COUNT>
24

> <PUBCHEM_ATOM_DEF_STEREO_COUNT>
0

> <PUBCHEM_ATOM_UDEF_STEREO_COUNT>
0

> <PUBCHEM_BOND_DEF_STEREO_COUNT>
0

> <PUBCHEM_BOND_UDEF_STEREO_COUNT>
0

> <PUBCHEM_ISOTOPIC_ATOM_COUNT>
0

> <PUBCHEM_COMPONENT_COUNT>
1

> <PUBCHEM_CACTVS_TAUTO_COUNT>
7

> <PUBCHEM_CONFORMER_ID>
02F85A9A00000001

> <PUBCHEM_MMFF94_ENERGY>
80.5014

> <PUBCHEM_FEATURE_SELFOVERLAP>
35.584

> <PUBCHEM_SHAPE_FINGERPRINT>
10319926 262 18196628750199837122
10369192 42 17556839628562087136
10411042 1 18266180711430052583
10595046 47 18261398815596993294
1100329 8 18409450328093373441
11056379 131 18337674088219391756
11069576 57 17188955256620371295
11796584 16 18052538769372021254
12236239 1 17603869962385576254
12553582 1 18335692862744786035
12788726 201 18187926131980715106
13140716 1 18267586995670883619
13402501 40 18130792231010998054
138480 1 15744439325325265149
14251757 5 18334018280533627822
14386348 63 17846217739753656342
14910302 57 18268715996254295254
14955137 171 18262815076462160947
15042514 8 18410013221753134379
15230672 131 17833274121727215558
15250474 111 18115860807577355842
15927050 60 17765993897074001789
17492 89 17978792642842655151
17804303 29 18341612646312534235
1813 80 18339364166223868461
20600515 1 18272102599252344101
21033648 29 17274525560325583794
21033650 10 18046370556151956646
21065201 7 18269266881786792202
21267235 1 18408327713667979987
21307412 95 18412820300978351999
22950370 63 18337678610503144362
2297311 6 18411142407246668094
23366157 5 17755018940966488957
23402539 116 18411415081497805332
23557571 272 18200314312754382156
23559900 14 18340481287386434657
3004659 81 18113617906650512302
335352 9 18409728466001639269
4409770 3 18189889830116103725
5104073 3 18271526497755161042
5265222 85 18271531974920339542
59755656 215 18338794511942926287
59755656 520 17840878373449601720
602551 16 18411415082014802290
7970288 3 18337672030635378782
9709674 26 17903636624926540579

> <PUBCHEM_SHAPE_MULTIPOLES>
481.67
11.53
4.18
1
14.75
1.36
0.17
-8.73
-0.98
-5.42
-0.4
1.19
0.02
0.64

> <PUBCHEM_SHAPE_SELFOVERLAP>
1021.997

> <PUBCHEM_SHAPE_VOLUME>
271.6

> <PUBCHEM_COORDINATE_TYPE>
2
5
10

$$$$
