135611170
  -OEChem-10062121573D

 44 48  0     1  0  0  0  0  0999 V2000
    0.5612    0.2506    0.2270 S   0  0  0  0  0  0  0  0  0  0  0  0
   -0.0072   -3.5119   -0.2022 O   0  0  0  0  0  0  0  0  0  0  0  0
   -2.0874    0.6490    0.0407 N   0  0  0  0  0  0  0  0  0  0  0  0
   -1.2413   -1.5411   -0.1093 N   0  0  0  0  0  0  0  0  0  0  0  0
    6.9137    1.3780    0.9282 N   0  0  0  0  0  0  0  0  0  0  0  0
   -4.4878    0.9239   -0.7399 C   0  0  1  0  0  0  0  0  0  0  0  0
   -3.4074    0.0554   -0.1326 C   0  0  1  0  0  0  0  0  0  0  0  0
   -3.8775   -0.2095   -1.5304 C   0  0  0  0  0  0  0  0  0  0  0  0
   -5.9098    0.8230   -0.2388 C   0  0  0  0  0  0  0  0  0  0  0  0
   -6.2828    1.4753    0.9363 C   0  0  0  0  0  0  0  0  0  0  0  0
   -6.8493    0.0780   -0.9513 C   0  0  0  0  0  0  0  0  0  0  0  0
   -1.1119   -0.1882    0.0392 C   0  0  0  0  0  0  0  0  0  0  0  0
   -7.5956    1.3825    1.3991 C   0  0  0  0  0  0  0  0  0  0  0  0
   -8.1619   -0.0150   -0.4887 C   0  0  0  0  0  0  0  0  0  0  0  0
   -8.5350    0.6373    0.6866 C   0  0  0  0  0  0  0  0  0  0  0  0
    1.0760   -1.3910    0.1056 C   0  0  0  0  0  0  0  0  0  0  0  0
   -0.0851   -2.2980   -0.0863 C   0  0  0  0  0  0  0  0  0  0  0  0
    2.3530   -1.8214    0.1719 C   0  0  0  0  0  0  0  0  0  0  0  0
    3.5336   -0.9933    0.3574 C   0  0  0  0  0  0  0  0  0  0  0  0
    4.1922   -0.4556   -0.7446 C   0  0  0  0  0  0  0  0  0  0  0  0
    5.3331    0.3460   -0.5697 C   0  0  0  0  0  0  0  0  0  0  0  0
    4.0112   -0.7333    1.6359 C   0  0  0  0  0  0  0  0  0  0  0  0
    5.8234    0.6143    0.7255 C   0  0  0  0  0  0  0  0  0  0  0  0
    5.1455    0.0637    1.8095 C   0  0  0  0  0  0  0  0  0  0  0  0
    6.0152    0.9000   -1.6613 C   0  0  0  0  0  0  0  0  0  0  0  0
    7.1389    1.6874   -1.4555 C   0  0  0  0  0  0  0  0  0  0  0  0
    7.5432    1.8939   -0.1523 C   0  0  0  0  0  0  0  0  0  0  0  0
   -4.1856    1.9210   -1.0556 H   0  0  0  0  0  0  0  0  0  0  0  0
   -3.7252   -0.6221    0.6550 H   0  0  0  0  0  0  0  0  0  0  0  0
   -4.4153   -1.1364   -1.6872 H   0  0  0  0  0  0  0  0  0  0  0  0
   -3.2251    0.0543   -2.3555 H   0  0  0  0  0  0  0  0  0  0  0  0
   -5.5580    2.0583    1.4983 H   0  0  0  0  0  0  0  0  0  0  0  0
   -6.5909   -0.4248   -1.8786 H   0  0  0  0  0  0  0  0  0  0  0  0
   -7.8862    1.8905    2.3139 H   0  0  0  0  0  0  0  0  0  0  0  0
   -8.8948   -0.5916   -1.0455 H   0  0  0  0  0  0  0  0  0  0  0  0
   -9.5573    0.5657    1.0462 H   0  0  0  0  0  0  0  0  0  0  0  0
   -2.1372   -1.9995   -0.2336 H   0  0  0  0  0  0  0  0  0  0  0  0
    2.5640   -2.8852    0.0836 H   0  0  0  0  0  0  0  0  0  0  0  0
    3.8223   -0.6570   -1.7490 H   0  0  0  0  0  0  0  0  0  0  0  0
    3.5143   -1.1422    2.5125 H   0  0  0  0  0  0  0  0  0  0  0  0
    5.4995    0.2526    2.8214 H   0  0  0  0  0  0  0  0  0  0  0  0
    5.6745    0.7209   -2.6785 H   0  0  0  0  0  0  0  0  0  0  0  0
    7.6783    2.1236   -2.2880 H   0  0  0  0  0  0  0  0  0  0  0  0
    8.4148    2.5008    0.0699 H   0  0  0  0  0  0  0  0  0  0  0  0
  1 12  1  0  0  0  0
  1 16  1  0  0  0  0
  2 17  2  0  0  0  0
  3  7  1  0  0  0  0
  3 12  2  0  0  0  0
  4 12  1  0  0  0  0
  4 17  1  0  0  0  0
  4 37  1  0  0  0  0
  5 23  1  0  0  0  0
  5 27  2  0  0  0  0
  6  7  1  0  0  0  0
  6  8  1  0  0  0  0
  6  9  1  0  0  0  0
  6 28  1  0  0  0  0
  7  8  1  0  0  0  0
  7 29  1  0  0  0  0
  8 30  1  0  0  0  0
  8 31  1  0  0  0  0
  9 10  2  0  0  0  0
  9 11  1  0  0  0  0
 10 13  1  0  0  0  0
 10 32  1  0  0  0  0
 11 14  2  0  0  0  0
 11 33  1  0  0  0  0
 13 15  2  0  0  0  0
 13 34  1  0  0  0  0
 14 15  1  0  0  0  0
 14 35  1  0  0  0  0
 15 36  1  0  0  0  0
 16 17  1  0  0  0  0
 16 18  2  0  0  0  0
 18 19  1  0  0  0  0
 18 38  1  0  0  0  0
 19 20  2  0  0  0  0
 19 22  1  0  0  0  0
 20 21  1  0  0  0  0
 20 39  1  0  0  0  0
 21 23  2  0  0  0  0
 21 25  1  0  0  0  0
 22 24  2  0  0  0  0
 22 40  1  0  0  0  0
 23 24  1  0  0  0  0
 24 41  1  0  0  0  0
 25 26  2  0  0  0  0
 25 42  1  0  0  0  0
 26 27  1  0  0  0  0
 26 43  1  0  0  0  0
 27 44  1  0  0  0  0
M  END
> <PUBCHEM_COMPOUND_CID>
135611170

> <PUBCHEM_CONFORMER_RMSD>
0.8

> <PUBCHEM_CONFORMER_DIVERSEORDER>
1
4
10
12
14
7
9
11
15
2
3
13
5
8
6

> <PUBCHEM_MMFF94_PARTIAL_CHARGES>
43
1 -0.24
10 -0.15
11 -0.15
12 0.65
13 -0.15
14 -0.15
15 -0.15
16 0.12
17 0.62
18 -0.18
19 0.03
2 -0.57
20 -0.15
22 -0.15
23 0.31
24 -0.15
25 -0.15
26 -0.15
27 0.16
28 0.1
29 0.1
3 -0.66
30 0.1
31 0.1
32 0.15
33 0.15
34 0.15
35 0.15
36 0.15
37 0.37
38 0.15
39 0.15
4 -0.49
40 0.15
41 0.15
42 0.15
43 0.15
44 0.15
5 -0.62
6 -0.07
7 0.11
8 -0.2
9 -0.03

> <PUBCHEM_EFFECTIVE_ROTOR_COUNT>
4

> <PUBCHEM_PHARMACOPHORE_FEATURES>
7
1 2 acceptor
1 4 donor
1 5 acceptor
5 1 4 12 16 17 rings
6 19 20 21 22 23 24 rings
6 5 21 23 25 26 27 rings
6 9 10 11 13 14 15 rings

> <PUBCHEM_HEAVY_ATOM_COUNT>
27

> <PUBCHEM_ATOM_DEF_STEREO_COUNT>
2

> <PUBCHEM_ATOM_UDEF_STEREO_COUNT>
0

> <PUBCHEM_BOND_DEF_STEREO_COUNT>
1

> <PUBCHEM_BOND_UDEF_STEREO_COUNT>
0

> <PUBCHEM_ISOTOPIC_ATOM_COUNT>
0

> <PUBCHEM_COMPONENT_COUNT>
1

> <PUBCHEM_CACTVS_TAUTO_COUNT>
-1

> <PUBCHEM_CONFORMER_ID>
0815432200000001

> <PUBCHEM_MMFF94_ENERGY>
74.9986

> <PUBCHEM_FEATURE_SELFOVERLAP>
35.554

> <PUBCHEM_SHAPE_FINGERPRINT>
10 15 17603588530158052435
10162869 55 17313384578195972311
10906281 52 18411987948905713859
10917259 69 8934463800150930295
11103572 95 13551734203263552657
11315181 36 18413669107528856009
11638347 137 15791726382894695272
125118 31 17895751799225902173
12539765 74 18059582355905488447
12592606 108 10015576208325134149
13177829 20 16732703856956489473
13914758 101 8574714607489707807
14216079 64 9367351431224246060
14251764 18 18334011705381900205
14428016 86 18408324385252487148
14849402 71 18412545440182860873
14933364 13 16845850187992958497
15183329 4 18410573994037428149
15188451 53 11458422431769051294
15461852 350 15554152707355119509
15685185 35 18338802346142751804
16126227 98 18412265051864069631
16992610 120 18341342162542185070
16994733 274 18337390444653676745
1768 4 18334862739976881681
20105231 36 16845574236576624447
20157964 124 17967530152023170626
20567600 234 16225771813235952726
21049683 271 18410854387273399137
21130935 74 16226322604485086713
21304304 249 9151177562816383832
21315764 119 15769775771106590388
21521721 280 18411983546532366395
21781055 127 17988644039668302530
21895431 317 7853574591924003569
221357 26 15913330191625994408
22224240 67 18186520995265940891
23559900 14 10159108655501974119
23576562 1 16127786662302456185
24771293 8 18409168801408529733
25269216 80 17131259277600831479
28498 318 11240001144350380401
3004659 81 12535627176700008726
3472631 163 18336266842780521436
34797466 226 18410297982158404430
3633792 109 14117517658279107458
397830 11 16443070503746209059
3986486 107 17274835644807868544
4073 2 18409170996400971259
4107672 100 15913326884643847573
4112364 45 17095815420514578260
4258327 124 18188219804638243668
4340502 62 16443064980592482970
439807 62 12679468586169746820
445580 126 18261106379531641456
445580 37 16702026349102845889
45377200 153 15840973590956099287
474113 269 9223240619641099633
504579 68 15698004037032681506
5470011 282 13973681771937209360
5758199 1 18341895182468037291
59682541 35 17894636972150495145
59682541 52 16415206659359746726
6394761 36 11455891360766369849
6438161 24 11743839140928403300
9689198 14 17561084705026423461
9962374 69 8069736370135239578

> <PUBCHEM_SHAPE_MULTIPOLES>
538.68
27.09
2.08
1.39
22.14
1.39
0.12
-17.94
0.94
-1.75
-0.1
-0.94
-0.34
-1.82

> <PUBCHEM_SHAPE_SELFOVERLAP>
1182.801

> <PUBCHEM_SHAPE_VOLUME>
292.6

> <PUBCHEM_COORDINATE_TYPE>
2
5
10

$$$$
