49830670
  -OEChem-10062121533D

 47 50  0     0  0  0  0  0  0999 V2000
    5.6745   -2.6113   -1.0543 F   0  0  0  0  0  0  0  0  0  0  0  0
    2.2197    0.6986    0.5806 O   0  0  0  0  0  0  0  0  0  0  0  0
    6.2370    3.5137    0.0011 O   0  0  0  0  0  0  0  0  0  0  0  0
   -6.8893    1.1293   -1.1988 N   0  0  0  0  0  0  0  0  0  0  0  0
   -5.9666    1.2764   -2.1639 N   0  0  0  0  0  0  0  0  0  0  0  0
    1.1901   -1.2777   -0.1433 N   0  0  0  0  0  0  0  0  0  0  0  0
   -3.6464    0.7264   -2.2222 N   0  0  0  0  0  0  0  0  0  0  0  0
    3.4892   -1.0811   -0.2501 N   0  0  0  0  0  0  0  0  0  0  0  0
   -5.0636    0.3255   -0.2885 C   0  0  0  0  0  0  0  0  0  0  0  0
   -4.2775   -0.2594    0.7183 C   0  0  0  0  0  0  0  0  0  0  0  0
   -6.4118    0.5643   -0.0471 C   0  0  0  0  0  0  0  0  0  0  0  0
   -2.8754   -0.5205    0.4973 C   0  0  0  0  0  0  0  0  0  0  0  0
   -4.8569    0.7866   -1.6064 C   0  0  0  0  0  0  0  0  0  0  0  0
   -4.8848   -0.5832    1.9379 C   0  0  0  0  0  0  0  0  0  0  0  0
   -7.0367    0.2494    1.1614 C   0  0  0  0  0  0  0  0  0  0  0  0
   -2.4694   -1.7439   -0.0359 C   0  0  0  0  0  0  0  0  0  0  0  0
   -1.9264    0.4505    0.8167 C   0  0  0  0  0  0  0  0  0  0  0  0
   -6.2410   -0.3324    2.1538 C   0  0  0  0  0  0  0  0  0  0  0  0
   -0.1653   -1.0252    0.0702 C   0  0  0  0  0  0  0  0  0  0  0  0
   -1.1143   -1.9962   -0.2494 C   0  0  0  0  0  0  0  0  0  0  0  0
   -0.5713    0.1982    0.6033 C   0  0  0  0  0  0  0  0  0  0  0  0
    4.8122   -0.5883   -0.1564 C   0  0  0  0  0  0  0  0  0  0  0  0
    6.3466    1.1792    0.4423 C   0  0  0  0  0  0  0  0  0  0  0  0
    5.0433    0.6913    0.3484 C   0  0  0  0  0  0  0  0  0  0  0  0
    2.2977   -0.4326    0.1120 C   0  0  0  0  0  0  0  0  0  0  0  0
    5.8845   -1.3801   -0.5672 C   0  0  0  0  0  0  0  0  0  0  0  0
    7.4190    0.3872    0.0316 C   0  0  0  0  0  0  0  0  0  0  0  0
    7.1881   -0.8923   -0.4731 C   0  0  0  0  0  0  0  0  0  0  0  0
    6.5945    2.5476    0.9816 C   0  0  0  0  0  0  0  0  0  0  0  0
   -4.3036   -1.0375    2.7381 H   0  0  0  0  0  0  0  0  0  0  0  0
   -8.0902    0.4449    1.3272 H   0  0  0  0  0  0  0  0  0  0  0  0
   -3.1963   -2.5114   -0.2910 H   0  0  0  0  0  0  0  0  0  0  0  0
   -2.2274    1.4094    1.2324 H   0  0  0  0  0  0  0  0  0  0  0  0
   -6.6878   -0.5935    3.1099 H   0  0  0  0  0  0  0  0  0  0  0  0
   -7.8345    1.4369   -1.3906 H   0  0  0  0  0  0  0  0  0  0  0  0
   -0.8121   -2.9538   -0.6658 H   0  0  0  0  0  0  0  0  0  0  0  0
    0.0999    1.0000    0.8758 H   0  0  0  0  0  0  0  0  0  0  0  0
    1.4082   -2.1909   -0.5343 H   0  0  0  0  0  0  0  0  0  0  0  0
   -2.8019    0.3560   -1.8050 H   0  0  0  0  0  0  0  0  0  0  0  0
   -3.5262    1.0652   -3.1720 H   0  0  0  0  0  0  0  0  0  0  0  0
    4.2602    1.3564    0.6833 H   0  0  0  0  0  0  0  0  0  0  0  0
    3.4032   -2.0215   -0.6275 H   0  0  0  0  0  0  0  0  0  0  0  0
    8.4396    0.7548    0.0974 H   0  0  0  0  0  0  0  0  0  0  0  0
    8.0227   -1.5090   -0.7934 H   0  0  0  0  0  0  0  0  0  0  0  0
    7.6480    2.6919    1.2447 H   0  0  0  0  0  0  0  0  0  0  0  0
    5.9990    2.7184    1.8853 H   0  0  0  0  0  0  0  0  0  0  0  0
    6.4020    4.3893    0.3904 H   0  0  0  0  0  0  0  0  0  0  0  0
  1 26  1  0  0  0  0
  2 25  2  0  0  0  0
  3 29  1  0  0  0  0
  3 47  1  0  0  0  0
  4  5  1  0  0  0  0
  4 11  1  0  0  0  0
  4 35  1  0  0  0  0
  5 13  2  0  0  0  0
  6 19  1  0  0  0  0
  6 25  1  0  0  0  0
  6 38  1  0  0  0  0
  7 13  1  0  0  0  0
  7 39  1  0  0  0  0
  7 40  1  0  0  0  0
  8 22  1  0  0  0  0
  8 25  1  0  0  0  0
  8 42  1  0  0  0  0
  9 10  2  0  0  0  0
  9 11  1  0  0  0  0
  9 13  1  0  0  0  0
 10 12  1  0  0  0  0
 10 14  1  0  0  0  0
 11 15  2  0  0  0  0
 12 16  2  0  0  0  0
 12 17  1  0  0  0  0
 14 18  2  0  0  0  0
 14 30  1  0  0  0  0
 15 18  1  0  0  0  0
 15 31  1  0  0  0  0
 16 20  1  0  0  0  0
 16 32  1  0  0  0  0
 17 21  2  0  0  0  0
 17 33  1  0  0  0  0
 18 34  1  0  0  0  0
 19 20  2  0  0  0  0
 19 21  1  0  0  0  0
 20 36  1  0  0  0  0
 21 37  1  0  0  0  0
 22 24  1  0  0  0  0
 22 26  2  0  0  0  0
 23 24  2  0  0  0  0
 23 27  1  0  0  0  0
 23 29  1  0  0  0  0
 24 41  1  0  0  0  0
 26 28  1  0  0  0  0
 27 28  2  0  0  0  0
 27 43  1  0  0  0  0
 28 44  1  0  0  0  0
 29 45  1  0  0  0  0
 29 46  1  0  0  0  0
M  END
> <PUBCHEM_COMPOUND_CID>
49830670

> <PUBCHEM_CONFORMER_RMSD>
0.8

> <PUBCHEM_CONFORMER_DIVERSEORDER>
1
28
23
40
6
36
20
14
43
25
9
44
10
32
39
3
15
37
38
8
11
29
13
31
2
35
12
30
22
33
5
34
21
17
41
24
42
18
7
19
27
26
16
4

> <PUBCHEM_MMFF94_PARTIAL_CHARGES>
42
1 -0.19
11 -0.15
13 0.37
14 -0.15
15 -0.15
16 -0.15
17 -0.15
18 -0.15
19 0.12
2 -0.57
20 -0.15
21 -0.15
22 0.12
23 -0.14
24 -0.15
25 0.69
26 0.19
27 -0.15
28 -0.15
29 0.42
3 -0.68
30 0.15
31 0.15
32 0.15
33 0.15
34 0.15
35 0.27
36 0.15
37 0.15
38 0.37
39 0.4
4 0.3
40 0.4
41 0.15
42 0.37
43 0.15
44 0.15
47 0.4
5 -0.71
6 -0.55
7 -0.88
8 -0.55

> <PUBCHEM_EFFECTIVE_ROTOR_COUNT>
6

> <PUBCHEM_PHARMACOPHORE_FEATURES>
12
1 2 acceptor
1 3 acceptor
1 3 donor
1 4 donor
1 6 donor
1 7 donor
1 8 donor
3 5 7 13 cation
5 4 5 9 11 13 rings
6 12 16 17 19 20 21 rings
6 22 23 24 26 27 28 rings
6 9 10 11 14 15 18 rings

> <PUBCHEM_HEAVY_ATOM_COUNT>
29

> <PUBCHEM_ATOM_DEF_STEREO_COUNT>
0

> <PUBCHEM_ATOM_UDEF_STEREO_COUNT>
0

> <PUBCHEM_BOND_DEF_STEREO_COUNT>
0

> <PUBCHEM_BOND_UDEF_STEREO_COUNT>
0

> <PUBCHEM_ISOTOPIC_ATOM_COUNT>
0

> <PUBCHEM_COMPONENT_COUNT>
1

> <PUBCHEM_CACTVS_TAUTO_COUNT>
124

> <PUBCHEM_CONFORMER_ID>
02F85B0E00000001

> <PUBCHEM_MMFF94_ENERGY>
85.0836

> <PUBCHEM_FEATURE_SELFOVERLAP>
61.038

> <PUBCHEM_SHAPE_FINGERPRINT>
10 15 17967533506118198792
10066227 112 18411135853116089680
10299344 5 16630526219569544230
10319926 262 16950567713665645609
10554248 39 17846785096443562286
10835480 77 18271522100405092024
10906281 52 17417546777170899971
11007060 377 18261109729358758731
11315181 36 15554444094482775163
12082328 90 17561366184488193951
12236239 1 16988841662173757163
125118 31 18113902667393560812
13533116 47 17632017447372726162
13878862 14 18201143430800970112
13911987 19 18342728591049706727
14068700 675 15841550769080779832
14598715 104 17895181199798557093
14856354 85 15482666893121597141
14933364 13 17458348528538446206
15119646 104 16845294887075923278
15183329 4 18060698373197992742
15276724 80 18060420192482680584
15400415 2 18271245049429909958
15419008 47 18113335301865944188
15419008 91 17968368026580050500
15461852 350 18040433318101277335
1577012 14 17060341820447600418
20157964 124 18272936021066697942
20281389 69 18334295374870420002
21033648 29 18040149625939740135
21859007 373 17968086495974142804
23081809 10 17060622183159890482
23522609 53 16845032172347336120
23559900 14 17988635354331209209
23576562 1 18337942515649869341
2838139 119 18060701680048400320
328310 630 18059580225448552761
397830 11 18115881869563550010
4073 2 18337396066813476154
4169191 19 18271811262993785696
504579 68 17703795842882382468
504843 32 18130786827673556663
54039377 194 16773504582634279591
58902169 19 16917347043722235540
59755656 520 18202565077576238839
6898599 12 17844243154409377454
9953998 17 18260558831795258987

> <PUBCHEM_SHAPE_MULTIPOLES>
552.89
24.97
2.09
1.54
16.39
0.74
-0.26
8.5
0
4.61
-0.25
-3.75
0.36
2.87

> <PUBCHEM_SHAPE_SELFOVERLAP>
1228.987

> <PUBCHEM_SHAPE_VOLUME>
295.5

> <PUBCHEM_COORDINATE_TYPE>
2
5
10

$$$$
