13009354
  -OEChem-10062122003D

 71 77  0     1  0  0  0  0  0999 V2000
    4.0113    0.9551    0.5759 O   0  0  0  0  0  0  0  0  0  0  0  0
    5.3032   -0.7020   -2.9857 O   0  0  0  0  0  0  0  0  0  0  0  0
    7.1371   -0.4691   -0.7133 O   0  0  0  0  0  0  0  0  0  0  0  0
    5.6446    1.5474    2.6938 O   0  0  0  0  0  0  0  0  0  0  0  0
   -3.4294    2.4820    0.4632 O   0  0  0  0  0  0  0  0  0  0  0  0
   -4.1719   -2.0979    0.5705 O   0  0  0  0  0  0  0  0  0  0  0  0
    2.8453    5.4449   -0.1078 O   0  0  0  0  0  0  0  0  0  0  0  0
    0.8377   -6.9157    0.1786 O   0  0  0  0  0  0  0  0  0  0  0  0
   -7.7253    2.1993    0.9378 O   0  0  0  0  0  0  0  0  0  0  0  0
   -6.2058    1.2229   -2.8814 O   0  0  0  0  0  0  0  0  0  0  0  0
    1.7474    0.6894    0.0305 N   0  0  0  0  0  0  0  0  0  0  0  0
    1.3015   -2.0559    0.0935 N   0  0  0  0  0  0  0  0  0  0  0  0
   -4.1815    0.2554    0.5497 N   0  0  0  0  0  0  0  0  0  0  0  0
   -5.5331    0.4687    0.6655 N   0  0  0  0  0  0  0  0  0  0  0  0
    3.0813    0.0909   -0.0822 C   0  0  1  0  0  0  0  0  0  0  0  0
    0.4938    0.1953    0.1438 C   0  0  0  0  0  0  0  0  0  0  0  0
    3.4881   -0.1334   -1.5380 C   0  0  0  0  0  0  0  0  0  0  0  0
    4.9076   -0.6870   -1.6168 C   0  0  2  0  0  0  0  0  0  0  0  0
   -0.6655    1.0361    0.2373 C   0  0  0  0  0  0  0  0  0  0  0  0
    5.8707    0.1784   -0.7996 C   0  0  1  0  0  0  0  0  0  0  0  0
    5.3310    0.4054    0.6187 C   0  0  1  0  0  0  0  0  0  0  0  0
    1.4930    2.0526    0.0408 C   0  0  0  0  0  0  0  0  0  0  0  0
    0.2695   -1.1861    0.1756 C   0  0  0  0  0  0  0  0  0  0  0  0
    0.0838    2.2989    0.1614 C   0  0  0  0  0  0  0  0  0  0  0  0
   -1.9820    0.5985    0.3556 C   0  0  0  0  0  0  0  0  0  0  0  0
   -1.0956   -1.6119    0.2982 C   0  0  0  0  0  0  0  0  0  0  0  0
   -2.2050   -0.7756    0.3872 C   0  0  0  0  0  0  0  0  0  0  0  0
   -0.7848   -3.0489    0.2842 C   0  0  0  0  0  0  0  0  0  0  0  0
    6.2055    1.3775    1.4048 C   0  0  0  0  0  0  0  0  0  0  0  0
    0.6290   -3.2668    0.1631 C   0  0  0  0  0  0  0  0  0  0  0  0
   -3.2656    1.2782    0.4609 C   0  0  0  0  0  0  0  0  0  0  0  0
    2.4213    3.1011   -0.0488 C   0  0  0  0  0  0  0  0  0  0  0  0
   -3.6367   -1.0086    0.5135 C   0  0  0  0  0  0  0  0  0  0  0  0
   -0.3352    3.6511    0.1863 C   0  0  0  0  0  0  0  0  0  0  0  0
    1.9555    4.4160   -0.0195 C   0  0  0  0  0  0  0  0  0  0  0  0
    0.5988    4.6889    0.0964 C   0  0  0  0  0  0  0  0  0  0  0  0
   -1.6100   -4.1966    0.3665 C   0  0  0  0  0  0  0  0  0  0  0  0
    1.1772   -4.5580    0.1271 C   0  0  0  0  0  0  0  0  0  0  0  0
   -6.0202    1.2363   -0.4728 C   0  0  0  0  0  0  0  0  0  0  0  0
   -1.0530   -5.4795    0.3297 C   0  0  0  0  0  0  0  0  0  0  0  0
    0.3194   -5.6554    0.2120 C   0  0  0  0  0  0  0  0  0  0  0  0
   -7.5129    1.5095   -0.2879 C   0  0  0  0  0  0  0  0  0  0  0  0
   -5.7403    0.4682   -1.7682 C   0  0  0  0  0  0  0  0  0  0  0  0
    3.1323   -0.7767    0.5662 H   0  0  0  0  0  0  0  0  0  0  0  0
    3.4505    0.8156   -2.0905 H   0  0  0  0  0  0  0  0  0  0  0  0
    2.7929   -0.8026   -2.0581 H   0  0  0  0  0  0  0  0  0  0  0  0
    4.9255   -1.7245   -1.2620 H   0  0  0  0  0  0  0  0  0  0  0  0
    6.0243    1.1351   -1.3133 H   0  0  0  0  0  0  0  0  0  0  0  0
    5.2953   -0.5395    1.1782 H   0  0  0  0  0  0  0  0  0  0  0  0
    2.2619   -1.9862   -0.1701 H   0  0  0  0  0  0  0  0  0  0  0  0
    6.2417    2.3610    0.9244 H   0  0  0  0  0  0  0  0  0  0  0  0
    7.2267    1.0030    1.5190 H   0  0  0  0  0  0  0  0  0  0  0  0
    3.4835    2.9475   -0.1953 H   0  0  0  0  0  0  0  0  0  0  0  0
   -1.3867    3.9043    0.2756 H   0  0  0  0  0  0  0  0  0  0  0  0
    6.2201   -1.0243   -3.0188 H   0  0  0  0  0  0  0  0  0  0  0  0
    7.0084   -1.3220   -0.2642 H   0  0  0  0  0  0  0  0  0  0  0  0
    0.2422    5.7160    0.1183 H   0  0  0  0  0  0  0  0  0  0  0  0
   -2.6869   -4.0998    0.4593 H   0  0  0  0  0  0  0  0  0  0  0  0
    2.2503   -4.7000    0.0349 H   0  0  0  0  0  0  0  0  0  0  0  0
   -5.6924    0.9870    1.5290 H   0  0  0  0  0  0  0  0  0  0  0  0
   -5.5493    2.2242   -0.5279 H   0  0  0  0  0  0  0  0  0  0  0  0
   -1.7162   -6.3389    0.3953 H   0  0  0  0  0  0  0  0  0  0  0  0
    4.7372    1.8780    2.5783 H   0  0  0  0  0  0  0  0  0  0  0  0
   -8.0885    0.5772   -0.2631 H   0  0  0  0  0  0  0  0  0  0  0  0
   -7.9013    2.1343   -1.0988 H   0  0  0  0  0  0  0  0  0  0  0  0
   -4.6723    0.2962   -1.9325 H   0  0  0  0  0  0  0  0  0  0  0  0
   -6.2538   -0.5001   -1.7739 H   0  0  0  0  0  0  0  0  0  0  0  0
    2.3598    6.2870   -0.0728 H   0  0  0  0  0  0  0  0  0  0  0  0
    0.1110   -7.5585    0.2478 H   0  0  0  0  0  0  0  0  0  0  0  0
   -8.6822    2.3538    1.0160 H   0  0  0  0  0  0  0  0  0  0  0  0
   -6.0223    0.6981   -3.6792 H   0  0  0  0  0  0  0  0  0  0  0  0
  1 15  1  0  0  0  0
  1 21  1  0  0  0  0
  2 18  1  0  0  0  0
  2 55  1  0  0  0  0
  3 20  1  0  0  0  0
  3 56  1  0  0  0  0
  4 29  1  0  0  0  0
  4 63  1  0  0  0  0
  5 31  2  0  0  0  0
  6 33  2  0  0  0  0
  7 35  1  0  0  0  0
  7 68  1  0  0  0  0
  8 41  1  0  0  0  0
  8 69  1  0  0  0  0
  9 42  1  0  0  0  0
  9 70  1  0  0  0  0
 10 43  1  0  0  0  0
 10 71  1  0  0  0  0
 11 15  1  0  0  0  0
 11 16  1  0  0  0  0
 11 22  1  0  0  0  0
 12 23  1  0  0  0  0
 12 30  1  0  0  0  0
 12 50  1  0  0  0  0
 13 14  1  0  0  0  0
 13 31  1  0  0  0  0
 13 33  1  0  0  0  0
 14 39  1  0  0  0  0
 14 60  1  0  0  0  0
 15 17  1  0  0  0  0
 15 44  1  0  0  0  0
 16 19  1  0  0  0  0
 16 23  2  0  0  0  0
 17 18  1  0  0  0  0
 17 45  1  0  0  0  0
 17 46  1  0  0  0  0
 18 20  1  0  0  0  0
 18 47  1  0  0  0  0
 19 24  1  0  0  0  0
 19 25  2  0  0  0  0
 20 21  1  0  0  0  0
 20 48  1  0  0  0  0
 21 29  1  0  0  0  0
 21 49  1  0  0  0  0
 22 24  2  0  0  0  0
 22 32  1  0  0  0  0
 23 26  1  0  0  0  0
 24 34  1  0  0  0  0
 25 27  1  0  0  0  0
 25 31  1  0  0  0  0
 26 27  2  0  0  0  0
 26 28  1  0  0  0  0
 27 33  1  0  0  0  0
 28 30  2  0  0  0  0
 28 37  1  0  0  0  0
 29 51  1  0  0  0  0
 29 52  1  0  0  0  0
 30 38  1  0  0  0  0
 32 35  2  0  0  0  0
 32 53  1  0  0  0  0
 34 36  2  0  0  0  0
 34 54  1  0  0  0  0
 35 36  1  0  0  0  0
 36 57  1  0  0  0  0
 37 40  2  0  0  0  0
 37 58  1  0  0  0  0
 38 41  2  0  0  0  0
 38 59  1  0  0  0  0
 39 42  1  0  0  0  0
 39 43  1  0  0  0  0
 39 61  1  0  0  0  0
 40 41  1  0  0  0  0
 40 62  1  0  0  0  0
 42 64  1  0  0  0  0
 42 65  1  0  0  0  0
 43 66  1  0  0  0  0
 43 67  1  0  0  0  0
M  END
> <PUBCHEM_COMPOUND_CID>
13009354

> <PUBCHEM_CONFORMER_RMSD>
1

> <PUBCHEM_CONFORMER_DIVERSEORDER>
1
2
7
5
3
6
4

> <PUBCHEM_MMFF94_PARTIAL_CHARGES>
55
1 -0.56
10 -0.68
11 -0.04
12 -0.05
13 -0.11
14 -0.64
15 0.54
16 -0.05
18 0.28
19 -0.01
2 -0.68
20 0.28
21 0.28
22 -0.15
23 -0.05
25 0.09
26 -0.01
27 0.09
29 0.28
3 -0.68
30 -0.15
31 0.54
32 -0.15
33 0.54
34 -0.15
35 0.08
36 -0.15
37 -0.15
38 -0.15
39 0.27
4 -0.68
40 -0.15
41 0.08
42 0.28
43 0.28
5 -0.57
50 0.27
53 0.15
54 0.15
55 0.4
56 0.4
57 0.15
58 0.15
59 0.15
6 -0.57
60 0.36
62 0.15
63 0.4
68 0.45
69 0.45
7 -0.53
70 0.4
71 0.4
8 -0.53
9 -0.68

> <PUBCHEM_EFFECTIVE_ROTOR_COUNT>
7.4

> <PUBCHEM_PHARMACOPHORE_FEATURES>
26
1 1 acceptor
1 10 acceptor
1 10 donor
1 11 cation
1 12 cation
1 12 donor
1 14 donor
1 2 acceptor
1 2 donor
1 3 acceptor
1 3 donor
1 4 acceptor
1 4 donor
1 5 acceptor
1 6 acceptor
1 7 donor
1 8 donor
1 9 acceptor
1 9 donor
5 11 16 19 22 24 rings
5 12 23 26 28 30 rings
5 13 25 27 31 33 rings
6 1 15 17 18 20 21 rings
6 16 19 23 25 26 27 rings
6 22 24 32 34 35 36 rings
6 28 30 37 38 40 41 rings

> <PUBCHEM_HEAVY_ATOM_COUNT>
43

> <PUBCHEM_ATOM_DEF_STEREO_COUNT>
4

> <PUBCHEM_ATOM_UDEF_STEREO_COUNT>
0

> <PUBCHEM_BOND_DEF_STEREO_COUNT>
0

> <PUBCHEM_BOND_UDEF_STEREO_COUNT>
0

> <PUBCHEM_ISOTOPIC_ATOM_COUNT>
0

> <PUBCHEM_COMPONENT_COUNT>
1

> <PUBCHEM_CACTVS_TAUTO_COUNT>
128

> <PUBCHEM_CONFORMER_ID>
00C681CA00000001

> <PUBCHEM_MMFF94_ENERGY>
156.8512

> <PUBCHEM_FEATURE_SELFOVERLAP>
132.447

> <PUBCHEM_SHAPE_FINGERPRINT>
10050765 1 17977666742845654688
10190108 129 17836404512006847656
102385 1 17833554874368048844
10675989 125 18265615373005374731
10864689 126 18410863122729911982
10930396 42 18269249354400070680
10940486 97 18117003397447081172
1100329 8 18338519767253321200
11135926 11 18337105671257678575
11578080 2 17029618331001055732
12058002 1 17414476945338551472
12202916 173 18130511851683406734
12440605 4 17836383548751601841
12608794 3 18119781803016461764
13140716 1 17977108186211312690
13911987 19 18262817188836796037
140371 6 18128838463536478976
14415360 78 18336819896533752717
15131766 46 15865784109100894238
15320294 125 17968640650488864418
15320467 1 18266746955707837930
15439362 3 18267869560752856956
15484559 13 18341050714182771991
16728300 4 17389634442566509602
20775438 99 18200869711996938372
21033648 29 18129926988310858776
21859007 373 18042102350086080717
22311459 1 18410296866010635241
23559900 14 18341612676024572697
24771293 8 18201427112874354896
283562 15 18198351654307735800
3178227 256 18337409187779887761
335352 9 18410296921581440061
3383291 50 18339361971754426931
340366 18 18188494695462056548
3882209 13 17324613628146440883
4394409 98 18333169461835991988
563151 97 18268433443093392233
6700243 42 16260402834455615687
9961470 85 18126557058023255704

> <PUBCHEM_SHAPE_MULTIPOLES>
806.3
14.73
7.83
1.42
8.45
9.72
-0.81
-10.44
-2.79
-1.29
1.18
-0.97
-0.35
1.66

> <PUBCHEM_SHAPE_SELFOVERLAP>
1819.84

> <PUBCHEM_SHAPE_VOLUME>
422.2

> <PUBCHEM_COORDINATE_TYPE>
2
5
10

$$$$
