23570850
  -OEChem-10062121543D

 40 42  0     1  0  0  0  0  0999 V2000
    3.8220   -2.2323   -2.4848 Cl  0  0  0  0  0  0  0  0  0  0  0  0
    4.9431   -3.5620    0.2444 Cl  0  0  0  0  0  0  0  0  0  0  0  0
   -0.1784    1.2647   -1.3119 O   0  0  0  0  0  0  0  0  0  0  0  0
   -0.7538    0.6088    0.8668 N   0  0  0  0  0  0  0  0  0  0  0  0
    3.9895    4.1898   -0.3918 N   0  0  0  0  0  0  0  0  0  0  0  0
   -6.0204   -0.8063    0.0769 N   0  0  0  0  0  0  0  0  0  0  0  0
   -6.2281   -0.5718   -1.2294 N   0  0  0  0  0  0  0  0  0  0  0  0
    1.4949    1.3902    0.4280 C   0  0  2  0  0  0  0  0  0  0  0  0
    2.1287    2.5943   -0.3031 C   0  0  0  0  0  0  0  0  0  0  0  0
    2.3611    0.1431    0.3650 C   0  0  0  0  0  0  0  0  0  0  0  0
    0.0936    1.0920   -0.1271 C   0  0  0  0  0  0  0  0  0  0  0  0
    3.4477    3.0444    0.3314 C   0  0  0  0  0  0  0  0  0  0  0  0
    2.6741   -0.4274   -0.8688 C   0  0  0  0  0  0  0  0  0  0  0  0
    2.8437   -0.4306    1.5412 C   0  0  0  0  0  0  0  0  0  0  0  0
   -2.1101    0.2278    0.7347 C   0  0  0  0  0  0  0  0  0  0  0  0
   -4.0814   -0.0594   -0.6241 C   0  0  0  0  0  0  0  0  0  0  0  0
   -2.7342    0.3239   -0.5155 C   0  0  0  0  0  0  0  0  0  0  0  0
   -4.7517   -0.5195    0.5037 C   0  0  0  0  0  0  0  0  0  0  0  0
   -2.8070   -0.2376    1.8512 C   0  0  0  0  0  0  0  0  0  0  0  0
    3.4699   -1.5716   -0.9264 C   0  0  0  0  0  0  0  0  0  0  0  0
    3.6391   -1.5750    1.4836 C   0  0  0  0  0  0  0  0  0  0  0  0
   -4.1484   -0.6229    1.7590 C   0  0  0  0  0  0  0  0  0  0  0  0
    3.9524   -2.1454    0.2498 C   0  0  0  0  0  0  0  0  0  0  0  0
   -5.0464   -0.1174   -1.6526 C   0  0  0  0  0  0  0  0  0  0  0  0
    1.3761    1.6906    1.4787 H   0  0  0  0  0  0  0  0  0  0  0  0
    1.4170    3.4313   -0.2836 H   0  0  0  0  0  0  0  0  0  0  0  0
    2.2903    2.3620   -1.3640 H   0  0  0  0  0  0  0  0  0  0  0  0
    4.1872    2.2376    0.3127 H   0  0  0  0  0  0  0  0  0  0  0  0
    3.2848    3.3259    1.3771 H   0  0  0  0  0  0  0  0  0  0  0  0
   -0.3707    0.5067    1.8040 H   0  0  0  0  0  0  0  0  0  0  0  0
    2.2980    0.0152   -1.7880 H   0  0  0  0  0  0  0  0  0  0  0  0
    2.6082    0.0025    2.5096 H   0  0  0  0  0  0  0  0  0  0  0  0
   -2.2591    0.6747   -1.4180 H   0  0  0  0  0  0  0  0  0  0  0  0
   -2.3111   -0.3078    2.8173 H   0  0  0  0  0  0  0  0  0  0  0  0
    4.0067   -2.0089    2.4101 H   0  0  0  0  0  0  0  0  0  0  0  0
    4.8891    4.4488    0.0110 H   0  0  0  0  0  0  0  0  0  0  0  0
    4.1745    3.9284   -1.3594 H   0  0  0  0  0  0  0  0  0  0  0  0
   -4.6912   -0.9848    2.6250 H   0  0  0  0  0  0  0  0  0  0  0  0
   -4.9357    0.1532   -2.6932 H   0  0  0  0  0  0  0  0  0  0  0  0
   -6.7912   -1.1649    0.6265 H   0  0  0  0  0  0  0  0  0  0  0  0
  1 20  1  0  0  0  0
  2 23  1  0  0  0  0
  3 11  2  0  0  0  0
  4 11  1  0  0  0  0
  4 15  1  0  0  0  0
  4 30  1  0  0  0  0
  5 12  1  0  0  0  0
  5 36  1  0  0  0  0
  5 37  1  0  0  0  0
  6  7  1  0  0  0  0
  6 18  1  0  0  0  0
  6 40  1  0  0  0  0
  7 24  2  0  0  0  0
  8  9  1  0  0  0  0
  8 10  1  0  0  0  0
  8 11  1  0  0  0  0
  8 25  1  0  0  0  0
  9 12  1  0  0  0  0
  9 26  1  0  0  0  0
  9 27  1  0  0  0  0
 10 13  2  0  0  0  0
 10 14  1  0  0  0  0
 12 28  1  0  0  0  0
 12 29  1  0  0  0  0
 13 20  1  0  0  0  0
 13 31  1  0  0  0  0
 14 21  2  0  0  0  0
 14 32  1  0  0  0  0
 15 17  2  0  0  0  0
 15 19  1  0  0  0  0
 16 17  1  0  0  0  0
 16 18  2  0  0  0  0
 16 24  1  0  0  0  0
 17 33  1  0  0  0  0
 18 22  1  0  0  0  0
 19 22  2  0  0  0  0
 19 34  1  0  0  0  0
 20 23  2  0  0  0  0
 21 23  1  0  0  0  0
 21 35  1  0  0  0  0
 22 38  1  0  0  0  0
 24 39  1  0  0  0  0
M  END
> <PUBCHEM_COMPOUND_CID>
23570850

> <PUBCHEM_CONFORMER_RMSD>
0.8

> <PUBCHEM_CONFORMER_DIVERSEORDER>
1
155
38
97
114
162
139
113
85
120
167
140
110
189
117
176
100
151
108
111
81
158
69
45
6
138
105
161
68
82
188
156
169
27
39
73
190
20
66
178
186
76
79
104
172
107
28
78
32
145
185
98
164
22
112
160
84
175
192
5
142
48
159
129
18
65
41
52
55
179
40
121
88
165
180
141
10
53
35
118
102
143
37
163
77
80
135
67
72
116
34
11
54
44
144
87
170
92
9
70
86
57
131
181
99
154
89
46
183
187
123
75
95
103
58
25
21
136
122
94
115
36
174
24
101
177
30
150
152
168
153
93
49
91
149
42
23
96
146
47
191
50
133
59
127
56
2
126
134
74
147
128
119
90
61
13
12
63
29
51
148
124
8
132
60
184
130
64
166
173
109
171
43
16
83
137
182
26
31
33
106
62
71
15
157
14
3
17
7
4
19
125

> <PUBCHEM_MMFF94_PARTIAL_CHARGES>
33
1 -0.18
10 -0.14
11 0.57
12 0.27
13 -0.15
14 -0.15
15 0.12
17 -0.15
18 -0.15
19 -0.15
2 -0.18
20 0.18
21 -0.15
22 -0.15
23 0.18
24 0.14
3 -0.57
30 0.37
31 0.15
32 0.15
33 0.15
34 0.15
35 0.15
36 0.36
37 0.36
38 0.15
39 0.15
4 -0.55
40 0.27
5 -0.99
6 0.3
7 -0.71
8 0.2

> <PUBCHEM_EFFECTIVE_ROTOR_COUNT>
6

> <PUBCHEM_PHARMACOPHORE_FEATURES>
9
1 3 acceptor
1 4 donor
1 5 cation
1 5 donor
1 6 donor
1 7 acceptor
5 6 7 16 18 24 rings
6 10 13 14 20 21 23 rings
6 15 16 17 18 19 22 rings

> <PUBCHEM_HEAVY_ATOM_COUNT>
24

> <PUBCHEM_ATOM_DEF_STEREO_COUNT>
0

> <PUBCHEM_ATOM_UDEF_STEREO_COUNT>
1

> <PUBCHEM_BOND_DEF_STEREO_COUNT>
0

> <PUBCHEM_BOND_UDEF_STEREO_COUNT>
0

> <PUBCHEM_ISOTOPIC_ATOM_COUNT>
0

> <PUBCHEM_COMPONENT_COUNT>
1

> <PUBCHEM_CACTVS_TAUTO_COUNT>
4

> <PUBCHEM_CONFORMER_ID>
0167A9A200000001

> <PUBCHEM_MMFF94_ENERGY>
52.0164

> <PUBCHEM_FEATURE_SELFOVERLAP>
45.762

> <PUBCHEM_SHAPE_FINGERPRINT>
10319926 262 14836131991898348975
10369192 42 17606683797314957716
11315621 136 18129667529210042814
11595378 159 15985104106767887777
11823591 26 18053096509277177896
12107183 9 18054516811716419305
12363563 72 18336551495463571962
12596602 18 16701730579737015443
12616971 3 18060707182703197387
12892183 10 15482103843893447354
13533116 47 18201719591767358331
1361 4 18195806500186782463
13761468 95 11539862197003118559
13782708 43 18186805816470945163
13955234 65 18341048627018121896
14251764 30 16198484018258356710
14341114 328 15195268846481002906
14366163 111 13767932303513239783
14910302 57 17167854288521767167
15183329 4 16515684378049291647
15188451 53 17274528846471683663
15238133 3 14346057729823125917
17349148 13 17846501435249473591
17844677 252 18335700529614973477
1813 80 18200882755949518742
18222031 100 18201160953581540918
18681886 176 15338005332812118488
193927 3 18341903956690753035
20369508 70 18186793665232329018
20645477 70 18409164441473028177
20693207 138 17749384845569004981
20775530 9 17686914808311288298
21033650 10 15647331879857432597
21049683 118 17554304193228899128
2215653 11 17894906318166052255
22182313 1 17677061264333056049
22393880 68 17603584145044416891
23557571 272 16805591582036421076
23559900 14 17385726897804177157
239999 70 18409165537006121938
3004659 81 17989208144323698021
312423 11 18272100382948979817
3886686 26 15478201578484803503
59755656 215 18335140942652860068
6025842 7 18339640156722664004
7970288 3 18267584611295218934
960060 61 17530970167720361559
9841814 1 18408604738978970168

> <PUBCHEM_SHAPE_MULTIPOLES>
471.85
13.42
3.41
1.79
16.09
2.63
0.25
-7.73
2.05
-8.66
0.55
0.17
-0.88
0.21

> <PUBCHEM_SHAPE_SELFOVERLAP>
1001.813

> <PUBCHEM_SHAPE_VOLUME>
265

> <PUBCHEM_COORDINATE_TYPE>
2
5
10

$$$$
