44375788
  -OEChem-10062121593D

 54 58  0     0  0  0  0  0  0999 V2000
    0.9162   -1.2947    1.1875 S   0  0  0  0  0  0  0  0  0  0  0  0
   -3.1394   -0.9663   -2.4661 O   0  0  0  0  0  0  0  0  0  0  0  0
   -4.7773   -2.8293    1.3872 O   0  0  0  0  0  0  0  0  0  0  0  0
    0.0941    1.7578   -0.4496 N   0  0  0  0  0  0  0  0  0  0  0  0
   -4.1656   -2.1645   -0.7583 N   0  0  0  0  0  0  0  0  0  0  0  0
    4.3217    1.4996    0.3945 N   0  0  0  0  0  0  0  0  0  0  0  0
   -2.6986   -0.3849    3.4095 N   0  0  0  0  0  0  0  0  0  0  0  0
    6.3283    0.3800    0.0883 N   0  0  0  0  0  0  0  0  0  0  0  0
    6.4481    2.5987    0.5967 N   0  0  0  0  0  0  0  0  0  0  0  0
   -0.4452    0.5047   -0.3333 C   0  0  0  0  0  0  0  0  0  0  0  0
   -1.8132    0.6367   -0.2688 C   0  0  0  0  0  0  0  0  0  0  0  0
   -0.9046    2.7052   -0.4617 C   0  0  0  0  0  0  0  0  0  0  0  0
   -2.1186    2.0242   -0.3490 C   0  0  0  0  0  0  0  0  0  0  0  0
    1.5090    2.0581   -0.5498 C   0  0  0  0  0  0  0  0  0  0  0  0
    0.3495   -0.6727   -0.2949 C   0  0  0  0  0  0  0  0  0  0  0  0
    2.1363    2.5392    0.7655 C   0  0  0  0  0  0  0  0  0  0  0  0
   -2.7664   -0.4676   -0.1411 C   0  0  0  0  0  0  0  0  0  0  0  0
   -0.8270    4.0988   -0.5628 C   0  0  0  0  0  0  0  0  0  0  0  0
   -3.3151    2.7685   -0.3365 C   0  0  0  0  0  0  0  0  0  0  0  0
    0.7554   -1.4364   -1.3634 C   0  0  0  0  0  0  0  0  0  0  0  0
    3.6454    2.7605    0.7017 C   0  0  0  0  0  0  0  0  0  0  0  0
   -3.2533   -1.0234    0.9792 C   0  0  0  0  0  0  0  0  0  0  0  0
   -2.0267    4.8158   -0.5481 C   0  0  0  0  0  0  0  0  0  0  0  0
    1.5522   -2.5648   -0.9732 C   0  0  0  0  0  0  0  0  0  0  0  0
   -3.2527    4.1632   -0.4368 C   0  0  0  0  0  0  0  0  0  0  0  0
   -3.3529   -1.2048   -1.2894 C   0  0  0  0  0  0  0  0  0  0  0  0
    1.7214   -2.6089    0.4142 C   0  0  0  0  0  0  0  0  0  0  0  0
   -4.1658   -2.1222    0.6050 C   0  0  0  0  0  0  0  0  0  0  0  0
    2.1554   -3.5803   -1.7539 C   0  0  0  0  0  0  0  0  0  0  0  0
    2.4695   -3.6299    1.0328 C   0  0  0  0  0  0  0  0  0  0  0  0
    2.8981   -4.5944   -1.1434 C   0  0  0  0  0  0  0  0  0  0  0  0
    3.0522   -4.6170    0.2355 C   0  0  0  0  0  0  0  0  0  0  0  0
   -2.9486   -0.6727    2.3139 C   0  0  0  0  0  0  0  0  0  0  0  0
    5.6182    1.5236    0.3687 C   0  0  0  0  0  0  0  0  0  0  0  0
    1.6261    2.8262   -1.3241 H   0  0  0  0  0  0  0  0  0  0  0  0
    2.0323    1.1766   -0.9312 H   0  0  0  0  0  0  0  0  0  0  0  0
    1.9185    1.8095    1.5555 H   0  0  0  0  0  0  0  0  0  0  0  0
    1.6593    3.4759    1.0777 H   0  0  0  0  0  0  0  0  0  0  0  0
    0.1214    4.6177   -0.6508 H   0  0  0  0  0  0  0  0  0  0  0  0
   -4.2792    2.2754   -0.2503 H   0  0  0  0  0  0  0  0  0  0  0  0
    0.4984   -1.2077   -2.3913 H   0  0  0  0  0  0  0  0  0  0  0  0
    3.8661    3.5108   -0.0671 H   0  0  0  0  0  0  0  0  0  0  0  0
    3.9773    3.1461    1.6732 H   0  0  0  0  0  0  0  0  0  0  0  0
   -2.0015    5.8999   -0.6250 H   0  0  0  0  0  0  0  0  0  0  0  0
   -4.1723    4.7423   -0.4277 H   0  0  0  0  0  0  0  0  0  0  0  0
   -4.7047   -2.8233   -1.3087 H   0  0  0  0  0  0  0  0  0  0  0  0
    2.0437   -3.5760   -2.8354 H   0  0  0  0  0  0  0  0  0  0  0  0
    2.5953   -3.6555    2.1115 H   0  0  0  0  0  0  0  0  0  0  0  0
    3.3562   -5.3679   -1.7533 H   0  0  0  0  0  0  0  0  0  0  0  0
    3.6315   -5.4096    0.7013 H   0  0  0  0  0  0  0  0  0  0  0  0
    5.8550   -0.4966   -0.1022 H   0  0  0  0  0  0  0  0  0  0  0  0
    7.3421    0.3777    0.0633 H   0  0  0  0  0  0  0  0  0  0  0  0
    6.0904    3.5219    0.8142 H   0  0  0  0  0  0  0  0  0  0  0  0
    7.4565    2.4993    0.5501 H   0  0  0  0  0  0  0  0  0  0  0  0
  1 15  1  0  0  0  0
  1 27  1  0  0  0  0
  2 26  2  0  0  0  0
  3 28  2  0  0  0  0
  4 10  1  0  0  0  0
  4 12  1  0  0  0  0
  4 14  1  0  0  0  0
  5 26  1  0  0  0  0
  5 28  1  0  0  0  0
  5 46  1  0  0  0  0
  6 21  1  0  0  0  0
  6 34  2  0  0  0  0
  7 33  3  0  0  0  0
  8 34  1  0  0  0  0
  8 51  1  0  0  0  0
  8 52  1  0  0  0  0
  9 34  1  0  0  0  0
  9 53  1  0  0  0  0
  9 54  1  0  0  0  0
 10 11  2  0  0  0  0
 10 15  1  0  0  0  0
 11 13  1  0  0  0  0
 11 17  1  0  0  0  0
 12 13  1  0  0  0  0
 12 18  2  0  0  0  0
 13 19  2  0  0  0  0
 14 16  1  0  0  0  0
 14 35  1  0  0  0  0
 14 36  1  0  0  0  0
 15 20  2  0  0  0  0
 16 21  1  0  0  0  0
 16 37  1  0  0  0  0
 16 38  1  0  0  0  0
 17 22  2  0  0  0  0
 17 26  1  0  0  0  0
 18 23  1  0  0  0  0
 18 39  1  0  0  0  0
 19 25  1  0  0  0  0
 19 40  1  0  0  0  0
 20 24  1  0  0  0  0
 20 41  1  0  0  0  0
 21 42  1  0  0  0  0
 21 43  1  0  0  0  0
 22 28  1  0  0  0  0
 22 33  1  0  0  0  0
 23 25  2  0  0  0  0
 23 44  1  0  0  0  0
 24 27  1  0  0  0  0
 24 29  2  0  0  0  0
 25 45  1  0  0  0  0
 27 30  2  0  0  0  0
 29 31  1  0  0  0  0
 29 47  1  0  0  0  0
 30 32  1  0  0  0  0
 30 48  1  0  0  0  0
 31 32  2  0  0  0  0
 31 49  1  0  0  0  0
 32 50  1  0  0  0  0
M  END
> <PUBCHEM_COMPOUND_CID>
44375788

> <PUBCHEM_CONFORMER_RMSD>
1

> <PUBCHEM_CONFORMER_DIVERSEORDER>
1
67
35
33
18
55
7
20
24
54
40
3
22
65
28
2
57
42
64
26
49
4
19
5
58
53
51
38
61
21
48
50
14
27
52
13
31
39
47
23
11
29
44
45
12
43
68
46
62
63
66
10
56
59
36
32
25
30
34
6
8
41
9
17
37
15
60
16

> <PUBCHEM_MMFF94_PARTIAL_CHARGES>
45
1 -0.08
10 -0.15
11 -0.05
12 -0.15
14 0.26
15 0.04
17 0.06
18 -0.15
19 -0.15
2 -0.57
20 -0.15
21 0.25
22 0.08
23 -0.15
25 -0.15
26 0.62
27 0.04
28 0.62
29 -0.15
3 -0.57
30 -0.15
31 -0.15
32 -0.15
33 0.49
34 0.55
39 0.15
4 0.05
40 0.15
41 0.15
44 0.15
45 0.15
46 0.37
47 0.15
48 0.15
49 0.15
5 -0.49
50 0.15
51 0.4
52 0.4
53 0.4
54 0.4
6 -0.7
7 -0.56
8 -0.85
9 -0.85

> <PUBCHEM_EFFECTIVE_ROTOR_COUNT>
6.2

> <PUBCHEM_PHARMACOPHORE_FEATURES>
13
1 2 acceptor
1 3 acceptor
1 4 cation
1 5 donor
1 7 acceptor
1 8 donor
1 9 donor
4 6 8 9 34 cation
5 1 15 20 24 27 rings
5 4 10 11 12 13 rings
5 5 17 22 26 28 rings
6 12 13 18 19 23 25 rings
6 24 27 29 30 31 32 rings

> <PUBCHEM_HEAVY_ATOM_COUNT>
34

> <PUBCHEM_ATOM_DEF_STEREO_COUNT>
0

> <PUBCHEM_ATOM_UDEF_STEREO_COUNT>
0

> <PUBCHEM_BOND_DEF_STEREO_COUNT>
0

> <PUBCHEM_BOND_UDEF_STEREO_COUNT>
0

> <PUBCHEM_ISOTOPIC_ATOM_COUNT>
0

> <PUBCHEM_COMPONENT_COUNT>
1

> <PUBCHEM_CACTVS_TAUTO_COUNT>
6

> <PUBCHEM_CONFORMER_ID>
02A51EEC00000001

> <PUBCHEM_MMFF94_ENERGY>
76.124

> <PUBCHEM_FEATURE_SELFOVERLAP>
66.18

> <PUBCHEM_SHAPE_FINGERPRINT>
102385 1 18339079259584255604
1100329 8 17833827170951999804
11007060 377 18127967723552987632
11227688 84 18195792171426524567
11578080 2 18200603488354273409
12058002 1 17603883207679855300
13140716 1 17977670028068153759
13911987 19 18045781457652050709
13965767 371 17625871198869212705
14955137 171 17975133450595366473
15775530 1 18266186036767194688
15927050 60 18267860592887075117
16112460 7 17983302517332732673
19319366 153 16740881779299007810
20028762 73 17694510646979017135
22311459 1 18410009927609508893
23559900 14 17907855107460796646
3298306 158 18341047407685188068
3380486 77 17906743844617986597
3383291 50 18338791347437999122
4015057 19 17980184306249718412
5171179 24 18267594515779336826
5309563 4 18264487471917624107
59755656 215 18336256894887710237

> <PUBCHEM_SHAPE_MULTIPOLES>
661.93
9.87
7.09
1.75
9.52
1.46
0.8
1.8
1.35
2.88
-0.75
-1.33
-1.44
2.72

> <PUBCHEM_SHAPE_SELFOVERLAP>
1463.251

> <PUBCHEM_SHAPE_VOLUME>
359

> <PUBCHEM_COORDINATE_TYPE>
2
5
10

$$$$
