22736235
  -OEChem-10062122033D

 51 55  0     1  0  0  0  0  0999 V2000
   -4.2571   -3.6629    0.6091 O   0  0  0  0  0  0  0  0  0  0  0  0
    4.1940   -1.4280   -1.0524 O   0  0  0  0  0  0  0  0  0  0  0  0
   -3.2646    0.0786    0.0835 N   0  0  0  0  0  0  0  0  0  0  0  0
   -3.8671    2.4038    0.2944 N   0  0  0  0  0  0  0  0  0  0  0  0
   -1.9567    3.9012    0.1058 N   0  0  0  0  0  0  0  0  0  0  0  0
    0.2654    3.1179   -0.2503 N   0  0  0  0  0  0  0  0  0  0  0  0
   -4.5917   -0.5073    0.2388 C   0  0  2  0  0  0  0  0  0  0  0  0
   -4.7456   -1.4482    1.4548 C   0  0  0  0  0  0  0  0  0  0  0  0
   -5.0614   -1.3080   -0.9844 C   0  0  0  0  0  0  0  0  0  0  0  0
   -5.3139   -2.7545    0.8995 C   0  0  1  0  0  0  0  0  0  0  0  0
   -5.9997   -2.3558   -0.3990 C   0  0  0  0  0  0  0  0  0  0  0  0
   -2.9727    1.4163    0.1147 C   0  0  0  0  0  0  0  0  0  0  0  0
   -2.1119   -0.6365   -0.1180 C   0  0  0  0  0  0  0  0  0  0  0  0
   -1.6032    1.5607   -0.0708 C   0  0  0  0  0  0  0  0  0  0  0  0
   -1.0660    0.2562   -0.2173 C   0  0  0  0  0  0  0  0  0  0  0  0
    0.2856   -0.1760   -0.4315 C   0  0  0  0  0  0  0  0  0  0  0  0
   -1.1065    2.8633   -0.0703 C   0  0  0  0  0  0  0  0  0  0  0  0
   -3.2664    3.6110    0.2750 C   0  0  0  0  0  0  0  0  0  0  0  0
    1.1112   -0.4511    0.6587 C   0  0  0  0  0  0  0  0  0  0  0  0
    0.7735   -0.3213   -1.7301 C   0  0  0  0  0  0  0  0  0  0  0  0
    2.4246   -0.8716    0.4502 C   0  0  0  0  0  0  0  0  0  0  0  0
    2.0871   -0.7417   -1.9387 C   0  0  0  0  0  0  0  0  0  0  0  0
    2.9126   -1.0168   -0.8484 C   0  0  0  0  0  0  0  0  0  0  0  0
    5.1873   -0.8437   -0.2847 C   0  0  0  0  0  0  0  0  0  0  0  0
    5.2016    0.5385   -0.0973 C   0  0  0  0  0  0  0  0  0  0  0  0
    6.1742   -1.6370    0.3003 C   0  0  0  0  0  0  0  0  0  0  0  0
    6.2029    1.1273    0.6752 C   0  0  0  0  0  0  0  0  0  0  0  0
    7.1752   -1.0483    1.0728 C   0  0  0  0  0  0  0  0  0  0  0  0
    7.1896    0.3339    1.2603 C   0  0  0  0  0  0  0  0  0  0  0  0
   -5.2913    0.3265    0.3820 H   0  0  0  0  0  0  0  0  0  0  0  0
   -3.8083   -1.6005    2.0000 H   0  0  0  0  0  0  0  0  0  0  0  0
   -5.4674   -1.0021    2.1501 H   0  0  0  0  0  0  0  0  0  0  0  0
   -5.5677   -0.6714   -1.7175 H   0  0  0  0  0  0  0  0  0  0  0  0
   -4.2288   -1.8001   -1.5004 H   0  0  0  0  0  0  0  0  0  0  0  0
   -6.0015   -3.2427    1.5964 H   0  0  0  0  0  0  0  0  0  0  0  0
   -6.9776   -1.9060   -0.1917 H   0  0  0  0  0  0  0  0  0  0  0  0
   -6.1326   -3.1960   -1.0872 H   0  0  0  0  0  0  0  0  0  0  0  0
   -2.1290   -1.7177   -0.1708 H   0  0  0  0  0  0  0  0  0  0  0  0
   -3.8081   -3.8650    1.4476 H   0  0  0  0  0  0  0  0  0  0  0  0
   -3.9212    4.4646    0.4137 H   0  0  0  0  0  0  0  0  0  0  0  0
    0.7450   -0.3467    1.6774 H   0  0  0  0  0  0  0  0  0  0  0  0
    0.1436   -0.1101   -2.5911 H   0  0  0  0  0  0  0  0  0  0  0  0
    0.9274    2.3679   -0.3835 H   0  0  0  0  0  0  0  0  0  0  0  0
    0.5863    4.0768   -0.2431 H   0  0  0  0  0  0  0  0  0  0  0  0
    3.0377   -1.1008    1.3178 H   0  0  0  0  0  0  0  0  0  0  0  0
    2.4619   -0.8526   -2.9524 H   0  0  0  0  0  0  0  0  0  0  0  0
    4.4582    1.1825   -0.5595 H   0  0  0  0  0  0  0  0  0  0  0  0
    6.1677   -2.7141    0.1577 H   0  0  0  0  0  0  0  0  0  0  0  0
    6.2171    2.2040    0.8171 H   0  0  0  0  0  0  0  0  0  0  0  0
    7.9437   -1.6660    1.5283 H   0  0  0  0  0  0  0  0  0  0  0  0
    7.9699    0.7923    1.8608 H   0  0  0  0  0  0  0  0  0  0  0  0
  1 10  1  0  0  0  0
  1 39  1  0  0  0  0
  2 23  1  0  0  0  0
  2 24  1  0  0  0  0
  3  7  1  0  0  0  0
  3 12  1  0  0  0  0
  3 13  1  0  0  0  0
  4 12  2  0  0  0  0
  4 18  1  0  0  0  0
  5 17  1  0  0  0  0
  5 18  2  0  0  0  0
  6 17  1  0  0  0  0
  6 43  1  0  0  0  0
  6 44  1  0  0  0  0
  7  8  1  0  0  0  0
  7  9  1  0  0  0  0
  7 30  1  0  0  0  0
  8 10  1  0  0  0  0
  8 31  1  0  0  0  0
  8 32  1  0  0  0  0
  9 11  1  0  0  0  0
  9 33  1  0  0  0  0
  9 34  1  0  0  0  0
 10 11  1  0  0  0  0
 10 35  1  0  0  0  0
 11 36  1  0  0  0  0
 11 37  1  0  0  0  0
 12 14  1  0  0  0  0
 13 15  2  0  0  0  0
 13 38  1  0  0  0  0
 14 15  1  0  0  0  0
 14 17  2  0  0  0  0
 15 16  1  0  0  0  0
 16 19  2  0  0  0  0
 16 20  1  0  0  0  0
 18 40  1  0  0  0  0
 19 21  1  0  0  0  0
 19 41  1  0  0  0  0
 20 22  2  0  0  0  0
 20 42  1  0  0  0  0
 21 23  2  0  0  0  0
 21 45  1  0  0  0  0
 22 23  1  0  0  0  0
 22 46  1  0  0  0  0
 24 25  2  0  0  0  0
 24 26  1  0  0  0  0
 25 27  1  0  0  0  0
 25 47  1  0  0  0  0
 26 28  2  0  0  0  0
 26 48  1  0  0  0  0
 27 29  2  0  0  0  0
 27 49  1  0  0  0  0
 28 29  1  0  0  0  0
 28 50  1  0  0  0  0
 29 51  1  0  0  0  0
M  END
> <PUBCHEM_COMPOUND_CID>
22736235

> <PUBCHEM_CONFORMER_RMSD>
0.8

> <PUBCHEM_CONFORMER_DIVERSEORDER>
1
36
41
54
23
30
24
33
45
4
44
12
9
32
16
25
2
48
15
53
52
19
14
39
13
8
49
26
46
47
37
27
35
5
20
50
11
22
3
51
21
10
7
38
40
28
18
43
31
6
34
42
17
29

> <PUBCHEM_MMFF94_PARTIAL_CHARGES>
39
1 -0.68
10 0.28
12 0.11
13 -0.3
15 -0.05
16 0.05
17 0.41
18 0.47
19 -0.15
2 -0.17
20 -0.15
21 -0.15
22 -0.15
23 0.08
24 0.08
25 -0.15
26 -0.15
27 -0.15
28 -0.15
29 -0.15
3 0.05
38 0.15
39 0.4
4 -0.57
40 0.15
41 0.15
42 0.15
43 0.4
44 0.4
45 0.15
46 0.15
47 0.15
48 0.15
49 0.15
5 -0.62
50 0.15
51 0.15
6 -0.9
7 0.26

> <PUBCHEM_EFFECTIVE_ROTOR_COUNT>
5

> <PUBCHEM_PHARMACOPHORE_FEATURES>
12
1 1 acceptor
1 1 donor
1 2 acceptor
1 6 cation
1 6 donor
3 3 4 12 cation
3 4 5 18 cation
5 3 12 13 14 15 rings
5 7 8 9 10 11 rings
6 16 19 20 21 22 23 rings
6 24 25 26 27 28 29 rings
6 4 5 12 14 17 18 rings

> <PUBCHEM_HEAVY_ATOM_COUNT>
29

> <PUBCHEM_ATOM_DEF_STEREO_COUNT>
0

> <PUBCHEM_ATOM_UDEF_STEREO_COUNT>
2

> <PUBCHEM_BOND_DEF_STEREO_COUNT>
0

> <PUBCHEM_BOND_UDEF_STEREO_COUNT>
0

> <PUBCHEM_ISOTOPIC_ATOM_COUNT>
0

> <PUBCHEM_COMPONENT_COUNT>
1

> <PUBCHEM_CACTVS_TAUTO_COUNT>
4

> <PUBCHEM_CONFORMER_ID>
015AED6B00000001

> <PUBCHEM_MMFF94_ENERGY>
88.3694

> <PUBCHEM_FEATURE_SELFOVERLAP>
61.175

> <PUBCHEM_SHAPE_FINGERPRINT>
10 15 18202559610203781010
10319926 262 18268146462432610614
10369192 42 16486975137495237756
10411042 1 18338517555993957987
11963148 33 17472985476700033647
12166972 35 17458346381276318884
12202916 173 18341048610187165887
12218070 45 17202199819022649087
12553582 1 18337971064418888787
12596602 18 18113332003915817488
12616971 3 17023483948833095836
13140716 1 18341344340307446641
13560911 23 18260259721382403848
13782708 43 18059022683497774334
13914758 101 16226036760956819589
14068700 686 18271530810129653334
14394314 77 18409451367517748259
14844126 61 18335426742740291659
15183329 4 8142096359614174278
15188451 53 18040431105660122838
16087824 20 18266459816518862757
16990366 60 17972889339254268011
17349148 13 16733278858846521646
1768 4 16916775354158857042
17686467 74 18333730256655151672
19611394 137 18412544353629228146
21033648 29 17702363101811079424
21315763 129 18411980239845359120
2132832 1 18113627806181085925
21585481 151 18047179762784136602
21792934 111 18411140247374321809
22122407 14 15913045370368971001
22956985 138 17760368095284766019
23559900 14 18336258068004248681
249057 25 17895200995882715852
2747138 104 18340491166143278186
3418910 222 18337401534375681772
3504750 166 17970336015376672522
3663271 9 18334009455262064834
392239 28 18335711558515736848
397830 11 18272653437724888742
4015057 19 14201409312455743615
4058900 60 9654759385705416237
4073 2 18339646629444055306
4144715 1 18126291835808356146
4280585 95 18408882971366174333
5104073 3 18198910219062235026
5969126 39 18343011203913098269
6328613 192 9583518733234391618
6673363 416 18268728241760567892

> <PUBCHEM_SHAPE_MULTIPOLES>
565.14
17.51
3.75
1.22
21.23
2.96
-0.27
-10.2
5.68
-6.82
0.57
0.56
-0.5
0.74

> <PUBCHEM_SHAPE_SELFOVERLAP>
1260.788

> <PUBCHEM_SHAPE_VOLUME>
299.5

> <PUBCHEM_COORDINATE_TYPE>
2
5
10

$$$$
