23647319
  -OEChem-10062121563D

 39 42  0     0  0  0  0  0  0999 V2000
    3.0376   -0.7824   -2.3508 Cl  0  0  0  0  0  0  0  0  0  0  0  0
    2.5451   -3.9340    1.5628 F   0  0  0  0  0  0  0  0  0  0  0  0
    1.3116    3.2928   -0.7569 O   0  0  0  0  0  0  0  0  0  0  0  0
   -2.2473    0.3501    0.0212 N   0  0  0  0  0  0  0  0  0  0  0  0
   -4.2091   -0.5990    0.2831 N   0  0  0  0  0  0  0  0  0  0  0  0
   -4.1107    0.4347    1.1928 N   0  0  0  0  0  0  0  0  0  0  0  0
    3.1829    2.0231   -0.7802 N   0  0  0  0  0  0  0  0  0  0  0  0
   -2.7562   -1.5831   -1.4866 C   0  0  0  0  0  0  0  0  0  0  0  0
   -3.0905   -0.6358   -0.4062 C   0  0  0  0  0  0  0  0  0  0  0  0
   -2.9332    0.9997    1.0317 C   0  0  0  0  0  0  0  0  0  0  0  0
   -0.3276    1.7308    0.1875 C   0  0  0  0  0  0  0  0  0  0  0  0
   -0.9693    0.6961   -0.4020 C   0  0  0  0  0  0  0  0  0  0  0  0
   -2.0035   -2.8393   -0.9855 C   0  0  0  0  0  0  0  0  0  0  0  0
   -3.9875   -2.0234   -2.3146 C   0  0  0  0  0  0  0  0  0  0  0  0
    0.9975    2.0663   -0.2545 C   0  0  0  0  0  0  0  0  0  0  0  0
   -2.2772    2.0860    1.6668 C   0  0  0  0  0  0  0  0  0  0  0  0
   -1.0385    2.4348    1.2684 C   0  0  0  0  0  0  0  0  0  0  0  0
    2.1357    1.2991   -0.2706 C   0  0  0  0  0  0  0  0  0  0  0  0
    2.2513   -0.0580    0.1699 C   0  0  0  0  0  0  0  0  0  0  0  0
    2.6519   -1.0799   -0.6910 C   0  0  0  0  0  0  0  0  0  0  0  0
    1.9499   -0.3456    1.5011 C   0  0  0  0  0  0  0  0  0  0  0  0
    2.6369    3.1876   -1.0485 C   0  0  0  0  0  0  0  0  0  0  0  0
    2.7512   -2.3892   -0.2204 C   0  0  0  0  0  0  0  0  0  0  0  0
    2.0492   -1.6548    1.9717 C   0  0  0  0  0  0  0  0  0  0  0  0
    2.4499   -2.6767    1.1108 C   0  0  0  0  0  0  0  0  0  0  0  0
   -2.0967   -1.0847   -2.2083 H   0  0  0  0  0  0  0  0  0  0  0  0
   -0.5305    0.1135   -1.2037 H   0  0  0  0  0  0  0  0  0  0  0  0
   -1.7339   -3.4917   -1.8225 H   0  0  0  0  0  0  0  0  0  0  0  0
   -1.0820   -2.5586   -0.4639 H   0  0  0  0  0  0  0  0  0  0  0  0
   -2.6217   -3.4131   -0.2863 H   0  0  0  0  0  0  0  0  0  0  0  0
   -4.5095   -1.1518   -2.7246 H   0  0  0  0  0  0  0  0  0  0  0  0
   -3.6850   -2.6627   -3.1506 H   0  0  0  0  0  0  0  0  0  0  0  0
   -4.6998   -2.5821   -1.6974 H   0  0  0  0  0  0  0  0  0  0  0  0
   -2.7779    2.6215    2.4654 H   0  0  0  0  0  0  0  0  0  0  0  0
   -0.5270    3.2629    1.7499 H   0  0  0  0  0  0  0  0  0  0  0  0
    1.6461    0.4342    2.1958 H   0  0  0  0  0  0  0  0  0  0  0  0
    3.1087    4.0631   -1.4686 H   0  0  0  0  0  0  0  0  0  0  0  0
    3.0614   -3.1978   -0.8773 H   0  0  0  0  0  0  0  0  0  0  0  0
    1.8166   -1.8789    3.0085 H   0  0  0  0  0  0  0  0  0  0  0  0
  1 20  1  0  0  0  0
  2 25  1  0  0  0  0
  3 15  1  0  0  0  0
  3 22  1  0  0  0  0
  4  9  1  0  0  0  0
  4 10  1  0  0  0  0
  4 12  1  0  0  0  0
  5  6  1  0  0  0  0
  5  9  2  0  0  0  0
  6 10  2  0  0  0  0
  7 18  1  0  0  0  0
  7 22  2  0  0  0  0
  8  9  1  0  0  0  0
  8 13  1  0  0  0  0
  8 14  1  0  0  0  0
  8 26  1  0  0  0  0
 10 16  1  0  0  0  0
 11 12  2  0  0  0  0
 11 15  1  0  0  0  0
 11 17  1  0  0  0  0
 12 27  1  0  0  0  0
 13 28  1  0  0  0  0
 13 29  1  0  0  0  0
 13 30  1  0  0  0  0
 14 31  1  0  0  0  0
 14 32  1  0  0  0  0
 14 33  1  0  0  0  0
 15 18  2  0  0  0  0
 16 17  2  0  0  0  0
 16 34  1  0  0  0  0
 17 35  1  0  0  0  0
 18 19  1  0  0  0  0
 19 20  2  0  0  0  0
 19 21  1  0  0  0  0
 20 23  1  0  0  0  0
 21 24  2  0  0  0  0
 21 36  1  0  0  0  0
 22 37  1  0  0  0  0
 23 25  2  0  0  0  0
 23 38  1  0  0  0  0
 24 25  1  0  0  0  0
 24 39  1  0  0  0  0
M  END
> <PUBCHEM_COMPOUND_CID>
23647319

> <PUBCHEM_CONFORMER_RMSD>
0.6

> <PUBCHEM_CONFORMER_DIVERSEORDER>
1
9
25
21
30
39
3
19
49
29
36
46
4
33
31
41
37
18
47
16
38
26
44
27
43
11
42
20
48
28
2
24
32
40
22
17
50
23
8
14
45
15
12
7
6
5
35
34
10
13

> <PUBCHEM_MMFF94_PARTIAL_CHARGES>
30
1 -0.18
10 0.14
11 0.05
12 -0.18
15 0.09
16 -0.11
17 -0.15
18 0.17
19 0.05
2 -0.19
20 0.18
21 -0.15
22 0.33
23 -0.15
24 -0.15
25 0.19
27 0.15
3 -0.28
34 0.15
35 0.15
36 0.15
37 0.15
38 0.15
39 0.15
4 0.33
5 -0.34
6 -0.34
7 -0.57
8 0.18
9 0.01

> <PUBCHEM_EFFECTIVE_ROTOR_COUNT>
3

> <PUBCHEM_PHARMACOPHORE_FEATURES>
7
3 4 5 9 cation
3 4 6 10 cation
3 8 13 14 hydrophobe
5 3 7 15 18 22 rings
5 4 5 6 9 10 rings
6 19 20 21 23 24 25 rings
6 4 10 11 12 16 17 rings

> <PUBCHEM_HEAVY_ATOM_COUNT>
25

> <PUBCHEM_ATOM_DEF_STEREO_COUNT>
0

> <PUBCHEM_ATOM_UDEF_STEREO_COUNT>
0

> <PUBCHEM_BOND_DEF_STEREO_COUNT>
0

> <PUBCHEM_BOND_UDEF_STEREO_COUNT>
0

> <PUBCHEM_ISOTOPIC_ATOM_COUNT>
0

> <PUBCHEM_COMPONENT_COUNT>
1

> <PUBCHEM_CACTVS_TAUTO_COUNT>
1

> <PUBCHEM_CONFORMER_ID>
0168D45700000001

> <PUBCHEM_MMFF94_ENERGY>
53.5457

> <PUBCHEM_FEATURE_SELFOVERLAP>
38.107

> <PUBCHEM_SHAPE_FINGERPRINT>
10616163 171 17915472798652660917
11069576 57 18125132034918278990
11578080 2 18190441806080430636
12156800 1 13457411889004174803
12403259 327 16557891309134246971
12553582 1 18263926540424927394
12788726 201 17988933314183659737
13402501 40 16965202471014143027
13583140 156 18114476591151667609
14844126 61 17107043328209695162
16752209 62 18129662976940171937
17138139 8 17335324412956388535
17818456 19 18057608672931907497
18981168 100 11167359786673442084
19026451 147 17841128250362621143
20291156 8 18264774255130846104
20442098 301 18272653415632555513
21315764 21 17605532402297272191
21421861 104 18409736161744659817
21634736 98 18339936964732251044
21731516 1 18117843196517794520
2255824 54 18261967322547479572
23419403 2 13413753250467360840
23559900 14 17417818318088760581
23598288 3 17539410925492526198
23728640 28 16457966369657460560
238 59 17901941164736580937
404807 78 16453173074661288259
7097593 13 18341052921626565545

> <PUBCHEM_SHAPE_MULTIPOLES>
483.29
7.08
4.22
2
4.98
0.36
-0.12
2.75
-1.22
-2.11
0.06
-0.34
0.92
-3.47

> <PUBCHEM_SHAPE_SELFOVERLAP>
1066.223

> <PUBCHEM_SHAPE_VOLUME>
263.1

> <PUBCHEM_COORDINATE_TYPE>
2
5
10

$$$$
