135566504
  -OEChem-10062122033D

 20 22  0     0  0  0  0  0  0999 V2000
    1.0812    3.1649    0.0000 Cl  0  0  0  0  0  0  0  0  0  0  0  0
    3.0649   -2.7519   -0.0005 Cl  0  0  0  0  0  0  0  0  0  0  0  0
   -0.2125   -1.9593   -0.0012 S   0  0  0  0  0  0  0  0  0  0  0  0
   -3.3412   -2.0331    0.0010 O   0  0  0  0  0  0  0  0  0  0  0  0
   -1.5448    1.7129   -0.0010 N   0  0  0  0  0  0  0  0  0  0  0  0
   -3.4695    0.2732    0.0014 N   0  0  0  0  0  0  0  0  0  0  0  0
    0.6400    0.4956   -0.0009 C   0  0  0  0  0  0  0  0  0  0  0  0
   -0.7872    0.5234   -0.0012 C   0  0  0  0  0  0  0  0  0  0  0  0
    1.0994   -0.8293   -0.0004 C   0  0  0  0  0  0  0  0  0  0  0  0
   -1.3608   -0.7215   -0.0008 C   0  0  0  0  0  0  0  0  0  0  0  0
    1.6014    1.5357   -0.0004 C   0  0  0  0  0  0  0  0  0  0  0  0
    2.4757   -1.1306    0.0005 C   0  0  0  0  0  0  0  0  0  0  0  0
   -2.7837   -0.9395    0.0007 C   0  0  0  0  0  0  0  0  0  0  0  0
    2.9667    1.2377    0.0009 C   0  0  0  0  0  0  0  0  0  0  0  0
    3.3968   -0.0816    0.0017 C   0  0  0  0  0  0  0  0  0  0  0  0
   -2.8263    1.5033    0.0002 C   0  0  0  0  0  0  0  0  0  0  0  0
    3.7058    2.0353    0.0016 H   0  0  0  0  0  0  0  0  0  0  0  0
    4.4652   -0.2856    0.0026 H   0  0  0  0  0  0  0  0  0  0  0  0
   -4.4852    0.2523    0.0024 H   0  0  0  0  0  0  0  0  0  0  0  0
   -3.5331    2.3477    0.0005 H   0  0  0  0  0  0  0  0  0  0  0  0
  1 11  1  0  0  0  0
  2 12  1  0  0  0  0
  3  9  1  0  0  0  0
  3 10  1  0  0  0  0
  4 13  2  0  0  0  0
  5  8  1  0  0  0  0
  5 16  2  0  0  0  0
  6 13  1  0  0  0  0
  6 16  1  0  0  0  0
  6 19  1  0  0  0  0
  7  8  1  0  0  0  0
  7  9  1  0  0  0  0
  7 11  2  0  0  0  0
  8 10  2  0  0  0  0
  9 12  2  0  0  0  0
 10 13  1  0  0  0  0
 11 14  1  0  0  0  0
 12 15  1  0  0  0  0
 14 15  2  0  0  0  0
 14 17  1  0  0  0  0
 15 18  1  0  0  0  0
 16 20  1  0  0  0  0
M  END
> <PUBCHEM_COMPOUND_CID>
135566504

> <PUBCHEM_CONFORMER_RMSD>
0.4

> <PUBCHEM_CONFORMER_DIVERSEORDER>
1

> <PUBCHEM_MMFF94_PARTIAL_CHARGES>
19
1 -0.18
10 -0.05
11 0.18
12 0.18
13 0.71
14 -0.15
15 -0.15
16 0.45
17 0.15
18 0.15
19 0.37
2 -0.18
20 0.06
3 -0.08
4 -0.57
5 -0.57
6 -0.49
8 0.12
9 0.04

> <PUBCHEM_EFFECTIVE_ROTOR_COUNT>
0

> <PUBCHEM_PHARMACOPHORE_FEATURES>
5
1 4 acceptor
1 6 donor
5 3 7 8 9 10 rings
6 5 6 8 10 13 16 rings
6 7 9 11 12 14 15 rings

> <PUBCHEM_HEAVY_ATOM_COUNT>
16

> <PUBCHEM_ATOM_DEF_STEREO_COUNT>
0

> <PUBCHEM_ATOM_UDEF_STEREO_COUNT>
0

> <PUBCHEM_BOND_DEF_STEREO_COUNT>
0

> <PUBCHEM_BOND_UDEF_STEREO_COUNT>
0

> <PUBCHEM_ISOTOPIC_ATOM_COUNT>
0

> <PUBCHEM_COMPONENT_COUNT>
1

> <PUBCHEM_CACTVS_TAUTO_COUNT>
-1

> <PUBCHEM_CONFORMER_ID>
081494A800000001

> <PUBCHEM_MMFF94_ENERGY>
38.8859

> <PUBCHEM_FEATURE_SELFOVERLAP>
25.514

> <PUBCHEM_SHAPE_FINGERPRINT>
10608611 8 18410007758243835317
10967382 1 18410575058909105894
10980938 120 18410012165228096410
11132069 177 18337666421465053792
11471102 20 18410288155109564055
116883 192 17909834236879988126
12553582 1 18049158865478585266
13140716 1 18267021657066955266
13380535 76 18264204897434625418
14144814 61 18411136952342770554
14178342 30 18339911688881668328
14325111 11 18410856563955946817
14790565 3 15173065992423796118
15196674 1 18410856576846045510
15375462 6 18265616657226450383
15442244 35 18267585710774132890
15536298 74 18342737386689158506
16945 1 18266740362457687174
17804303 29 18267309716123152318
17990270 104 18410011044078251290
18186145 218 18343590624406638342
193761 8 14807695820858724995
19591789 44 16179616161837438020
20559304 39 18337672022355706136
20645477 70 18409722993697021375
21267235 1 18410865342922185162
21501502 16 18410295808720179815
221490 88 18336554884045335226
2334 1 18410855443164635406
23402539 116 18342165657870018142
23463225 33 18337954480827173566
23559900 14 18197211452586759770
2748010 2 18339357470512058068
335352 9 18050568434899918933
5104073 3 18411136935120749675
54173680 148 18050286973135319778
7364860 26 18341050834515098120
7832392 63 18339924814006253881
8809292 202 18262806150787071875
9709674 26 18409734001234016098

> <PUBCHEM_SHAPE_MULTIPOLES>
321.03
5.68
3.11
0.61
1.43
0.64
0
-1.65
0
-1.14
0
-0.05
-0.01
0

> <PUBCHEM_SHAPE_SELFOVERLAP>
690.969

> <PUBCHEM_SHAPE_VOLUME>
179.3

> <PUBCHEM_COORDINATE_TYPE>
2
5
10

$$$$
