71553154
  -OEChem-10052120443D

 57 60  0     0  0  0  0  0  0999 V2000
    4.0895   -2.2668    2.2468 Cl  0  0  0  0  0  0  0  0  0  0  0  0
    7.4361   -0.2859   -1.4952 Cl  0  0  0  0  0  0  0  0  0  0  0  0
   -3.2442    1.3026   -0.2517 O   0  0  0  0  0  0  0  0  0  0  0  0
   -3.4493   -3.8897   -0.8990 N   0  0  0  0  0  0  0  0  0  0  0  0
   -1.1478    0.0178    0.5966 N   0  0  0  0  0  0  0  0  0  0  0  0
    0.9208    0.9909    0.1158 N   0  0  0  0  0  0  0  0  0  0  0  0
    1.0377    3.2905   -0.5951 N   0  0  0  0  0  0  0  0  0  0  0  0
    2.9832    1.9971   -0.3753 N   0  0  0  0  0  0  0  0  0  0  0  0
   -4.5992    1.5893   -0.1379 N   0  0  0  0  0  0  0  0  0  0  0  0
   -2.2749   -3.4163   -0.1670 C   0  0  0  0  0  0  0  0  0  0  0  0
   -0.5471   -1.2583    0.9317 C   0  0  0  0  0  0  0  0  0  0  0  0
   -1.4009   -2.5603   -1.0889 C   0  0  0  0  0  0  0  0  0  0  0  0
   -2.6987   -2.6305    1.0785 C   0  0  0  0  0  0  0  0  0  0  0  0
   -0.1792   -2.0127   -0.3484 C   0  0  0  0  0  0  0  0  0  0  0  0
   -1.4877   -2.0695    1.8273 C   0  0  0  0  0  0  0  0  0  0  0  0
   -3.0446   -4.5886   -2.1186 C   0  0  0  0  0  0  0  0  0  0  0  0
   -4.2605   -4.7655   -0.0539 C   0  0  0  0  0  0  0  0  0  0  0  0
   -0.4197    1.1223    0.1952 C   0  0  0  0  0  0  0  0  0  0  0  0
   -1.0946    2.2892   -0.1001 C   0  0  0  0  0  0  0  0  0  0  0  0
   -2.5261    2.4302   -0.0151 C   0  0  0  0  0  0  0  0  0  0  0  0
   -0.3064    3.3514   -0.4939 C   0  0  0  0  0  0  0  0  0  0  0  0
    1.5779    2.0979   -0.2799 C   0  0  0  0  0  0  0  0  0  0  0  0
   -3.3761    3.4697    0.2557 C   0  0  0  0  0  0  0  0  0  0  0  0
   -4.6531    2.8893    0.1655 C   0  0  0  0  0  0  0  0  0  0  0  0
    3.8806    0.9407   -0.1338 C   0  0  0  0  0  0  0  0  0  0  0  0
   -5.9561    3.5441    0.3631 C   0  0  0  0  0  0  0  0  0  0  0  0
    5.0745    0.8608   -0.8507 C   0  0  0  0  0  0  0  0  0  0  0  0
    3.5764   -0.0265    0.8243 C   0  0  0  0  0  0  0  0  0  0  0  0
    4.4659   -1.0735    1.0653 C   0  0  0  0  0  0  0  0  0  0  0  0
    5.9639   -0.1862   -0.6097 C   0  0  0  0  0  0  0  0  0  0  0  0
    5.6597   -1.1534    0.3484 C   0  0  0  0  0  0  0  0  0  0  0  0
   -1.6723   -4.2757    0.1633 H   0  0  0  0  0  0  0  0  0  0  0  0
    0.3656   -1.0819    1.5150 H   0  0  0  0  0  0  0  0  0  0  0  0
   -1.9807   -1.7273   -1.5072 H   0  0  0  0  0  0  0  0  0  0  0  0
   -1.0042   -3.1359   -1.9320 H   0  0  0  0  0  0  0  0  0  0  0  0
   -3.2372   -3.2623    1.7929 H   0  0  0  0  0  0  0  0  0  0  0  0
   -3.3758   -1.8120    0.8030 H   0  0  0  0  0  0  0  0  0  0  0  0
    0.4698   -2.8567   -0.0792 H   0  0  0  0  0  0  0  0  0  0  0  0
    0.4032   -1.3853   -1.0325 H   0  0  0  0  0  0  0  0  0  0  0  0
   -1.8339   -1.4573    2.6691 H   0  0  0  0  0  0  0  0  0  0  0  0
   -0.9260   -2.9088    2.2578 H   0  0  0  0  0  0  0  0  0  0  0  0
   -2.1271   -0.0110    0.3401 H   0  0  0  0  0  0  0  0  0  0  0  0
   -3.9071   -5.0877   -2.5779 H   0  0  0  0  0  0  0  0  0  0  0  0
   -2.2836   -5.3556   -1.9335 H   0  0  0  0  0  0  0  0  0  0  0  0
   -2.6907   -3.8971   -2.8897 H   0  0  0  0  0  0  0  0  0  0  0  0
   -5.0683   -5.2222   -0.6390 H   0  0  0  0  0  0  0  0  0  0  0  0
   -4.7734   -4.2114    0.7380 H   0  0  0  0  0  0  0  0  0  0  0  0
   -3.6758   -5.5780    0.3927 H   0  0  0  0  0  0  0  0  0  0  0  0
   -0.7279    4.3176   -0.7547 H   0  0  0  0  0  0  0  0  0  0  0  0
   -3.1158    4.4928    0.4854 H   0  0  0  0  0  0  0  0  0  0  0  0
    3.4024    2.8157   -0.8062 H   0  0  0  0  0  0  0  0  0  0  0  0
   -6.5662    3.4738   -0.5433 H   0  0  0  0  0  0  0  0  0  0  0  0
   -6.5054    3.0733    1.1850 H   0  0  0  0  0  0  0  0  0  0  0  0
   -5.8365    4.6053    0.6048 H   0  0  0  0  0  0  0  0  0  0  0  0
    5.3100    1.6153   -1.5982 H   0  0  0  0  0  0  0  0  0  0  0  0
    2.6784    0.0351    1.4307 H   0  0  0  0  0  0  0  0  0  0  0  0
    6.3533   -1.9703    0.5361 H   0  0  0  0  0  0  0  0  0  0  0  0
  1 29  1  0  0  0  0
  2 30  1  0  0  0  0
  3  9  1  0  0  0  0
  3 20  1  0  0  0  0
  4 10  1  0  0  0  0
  4 16  1  0  0  0  0
  4 17  1  0  0  0  0
  5 11  1  0  0  0  0
  5 18  1  0  0  0  0
  5 42  1  0  0  0  0
  6 18  2  0  0  0  0
  6 22  1  0  0  0  0
  7 21  1  0  0  0  0
  7 22  2  0  0  0  0
  8 22  1  0  0  0  0
  8 25  1  0  0  0  0
  8 51  1  0  0  0  0
  9 24  2  0  0  0  0
 10 12  1  0  0  0  0
 10 13  1  0  0  0  0
 10 32  1  0  0  0  0
 11 14  1  0  0  0  0
 11 15  1  0  0  0  0
 11 33  1  0  0  0  0
 12 14  1  0  0  0  0
 12 34  1  0  0  0  0
 12 35  1  0  0  0  0
 13 15  1  0  0  0  0
 13 36  1  0  0  0  0
 13 37  1  0  0  0  0
 14 38  1  0  0  0  0
 14 39  1  0  0  0  0
 15 40  1  0  0  0  0
 15 41  1  0  0  0  0
 16 43  1  0  0  0  0
 16 44  1  0  0  0  0
 16 45  1  0  0  0  0
 17 46  1  0  0  0  0
 17 47  1  0  0  0  0
 17 48  1  0  0  0  0
 18 19  1  0  0  0  0
 19 20  1  0  0  0  0
 19 21  2  0  0  0  0
 20 23  2  0  0  0  0
 21 49  1  0  0  0  0
 23 24  1  0  0  0  0
 23 50  1  0  0  0  0
 24 26  1  0  0  0  0
 25 27  2  0  0  0  0
 25 28  1  0  0  0  0
 26 52  1  0  0  0  0
 26 53  1  0  0  0  0
 26 54  1  0  0  0  0
 27 30  1  0  0  0  0
 27 55  1  0  0  0  0
 28 29  2  0  0  0  0
 28 56  1  0  0  0  0
 29 31  1  0  0  0  0
 30 31  2  0  0  0  0
 31 57  1  0  0  0  0
M  END
> <PUBCHEM_COMPOUND_CID>
71553154

> <PUBCHEM_CONFORMER_RMSD>
1

> <PUBCHEM_CONFORMER_DIVERSEORDER>
1
89
82
23
85
69
26
86
41
14
54
18
50
74
21
75
27
77
35
70
7
17
67
88
73
57
11
72
80
33
47
51
8
76
48
30
5
60
28
59
46
65
87
64
36
84
44
56
39
83
10
43
20
63
62
45
13
16
42
37
22
81
2
40
71
25
90
19
24
49
66
15
32
38
9
61
29
78
12
3
4
53
31
55
79
68
58
6
34
52

> <PUBCHEM_MMFF94_PARTIAL_CHARGES>
34
1 -0.18
10 0.27
11 0.37
16 0.27
17 0.27
18 0.41
19 0.05
2 -0.18
20 0.09
21 0.16
22 0.72
23 -0.15
24 0.11
25 0.1
26 0.18
27 -0.15
28 -0.15
29 0.18
3 -0.02
30 0.18
31 -0.15
4 -0.81
42 0.4
49 0.15
5 -0.87
50 0.15
51 0.4
55 0.15
56 0.15
57 0.15
6 -0.62
7 -0.62
8 -0.6
9 -0.41

> <PUBCHEM_EFFECTIVE_ROTOR_COUNT>
7.2

> <PUBCHEM_PHARMACOPHORE_FEATURES>
9
1 4 cation
1 5 donor
1 8 donor
1 9 acceptor
4 6 7 8 22 cation
5 3 9 20 23 24 rings
6 10 11 12 13 14 15 rings
6 25 27 28 29 30 31 rings
6 6 7 18 19 21 22 rings

> <PUBCHEM_HEAVY_ATOM_COUNT>
31

> <PUBCHEM_ATOM_DEF_STEREO_COUNT>
0

> <PUBCHEM_ATOM_UDEF_STEREO_COUNT>
0

> <PUBCHEM_BOND_DEF_STEREO_COUNT>
0

> <PUBCHEM_BOND_UDEF_STEREO_COUNT>
0

> <PUBCHEM_ISOTOPIC_ATOM_COUNT>
0

> <PUBCHEM_COMPONENT_COUNT>
1

> <PUBCHEM_CACTVS_TAUTO_COUNT>
21

> <PUBCHEM_CONFORMER_ID>
0443D08200000001

> <PUBCHEM_MMFF94_ENERGY>
86.5624

> <PUBCHEM_FEATURE_SELFOVERLAP>
45.672

> <PUBCHEM_SHAPE_FINGERPRINT>
10050765 1 18339644563887078604
102385 1 18196371648382802561
10675989 125 17615403001505096893
11227688 84 17254298115851459054
11297010 23 17179100930489957020
11513181 2 18053096220696263110
11524674 6 18340209583798101473
11719270 70 18122336879409160929
11991303 11 18260828168450332669
12553582 1 18190180277421894634
12788726 201 18336539533721748666
13692114 37 18271509937184147625
13757389 114 18337963293947688748
14674994 50 18271816725959681505
14681490 219 18048875500552422198
14790565 3 18119813512633823136
14866123 147 18411418419188729223
15131766 46 15287648753480871134
15927050 60 18338237059384093759
16728300 4 16739720712547722186
18681886 176 18334857191006353161
19301679 30 18122058972969804082
19319366 153 17459193984967410402
20642791 13 18192422190110159368
21133410 171 17474332232526239770
21478907 32 18194964273703905583
21703447 108 17981314905009454232
21781051 124 18044404671789186577
22223350 30 18272362118382716073
23536364 44 18191846020342269047
23559900 14 18411418419595599856
38695281 34 18194961847227082229
4017518 198 18200037214296813598
44062 13 18413111675664262022
4461854 278 18340782451463590275
5309563 4 17974578197398283802
59025328 239 17195423631802009143
613672 6 17831289867862322874
6438754 60 17977653531072883275
70251023 43 18050568748480354994
7164475 11 18122623022471724085
9658208 31 18271512118215508728
9896288 288 18129108827807659953

> <PUBCHEM_SHAPE_MULTIPOLES>
605.95
13.66
6.58
1.42
17.27
4.34
-0.18
-1.68
2.08
-13.55
1.61
0.9
1.63
-2.64

> <PUBCHEM_SHAPE_SELFOVERLAP>
1280.16

> <PUBCHEM_SHAPE_VOLUME>
341.1

> <PUBCHEM_COORDINATE_TYPE>
2
5
10

$$$$
