16664858
  -OEChem-10052120443D

 48 52  0     0  0  0  0  0  0999 V2000
   -1.2883    0.4228   -0.1698 S   0  0  0  0  0  0  0  0  0  0  0  0
   -3.2799    2.4569   -0.3031 O   0  0  0  0  0  0  0  0  0  0  0  0
    1.3053    1.3550   -0.6971 O   0  0  0  0  0  0  0  0  0  0  0  0
   -4.0117    0.2703    0.2269 N   0  0  0  0  0  0  0  0  0  0  0  0
    0.9610   -0.9272   -0.2175 N   0  0  0  0  0  0  0  0  0  0  0  0
   -0.2675   -4.4913    0.6305 N   0  0  0  0  0  0  0  0  0  0  0  0
   -5.5406    2.2166    0.1591 C   0  0  0  0  0  0  0  0  0  0  0  0
   -5.9072    3.4689   -0.5822 C   0  0  0  0  0  0  0  0  0  0  0  0
   -6.4850    2.1500   -1.0049 C   0  0  0  0  0  0  0  0  0  0  0  0
   -4.1550    1.6568    0.0085 C   0  0  0  0  0  0  0  0  0  0  0  0
   -5.1753   -0.5757    0.6025 C   0  0  0  0  0  0  0  0  0  0  0  0
   -2.7531   -0.3654    0.1709 C   0  0  0  0  0  0  0  0  0  0  0  0
   -5.0133   -2.0470    0.1982 C   0  0  0  0  0  0  0  0  0  0  0  0
   -3.7042   -2.6300    0.7323 C   0  0  0  0  0  0  0  0  0  0  0  0
   -2.5667   -1.7189    0.4016 C   0  0  0  0  0  0  0  0  0  0  0  0
   -1.1949   -2.0955    0.2903 C   0  0  0  0  0  0  0  0  0  0  0  0
   -0.3905   -1.0229   -0.0203 C   0  0  0  0  0  0  0  0  0  0  0  0
   -0.6827   -3.4184    0.4783 C   0  0  0  0  0  0  0  0  0  0  0  0
    1.7337    0.2171   -0.5375 C   0  0  0  0  0  0  0  0  0  0  0  0
    3.1925   -0.0048   -0.7170 C   0  0  0  0  0  0  0  0  0  0  0  0
    4.1554    0.6382    0.0779 C   0  0  0  0  0  0  0  0  0  0  0  0
    5.5275    0.3775   -0.1511 C   0  0  0  0  0  0  0  0  0  0  0  0
    3.5767   -0.8918   -1.7231 C   0  0  0  0  0  0  0  0  0  0  0  0
    3.7870    1.5339    1.0948 C   0  0  0  0  0  0  0  0  0  0  0  0
    5.8962   -0.5185   -1.1678 C   0  0  0  0  0  0  0  0  0  0  0  0
    4.9260   -1.1484   -1.9479 C   0  0  0  0  0  0  0  0  0  0  0  0
    6.4906    1.0203    0.6436 C   0  0  0  0  0  0  0  0  0  0  0  0
    4.7573    2.1639    1.8745 C   0  0  0  0  0  0  0  0  0  0  0  0
    6.1066    1.9076    1.6494 C   0  0  0  0  0  0  0  0  0  0  0  0
   -5.9646    2.1174    1.1540 H   0  0  0  0  0  0  0  0  0  0  0  0
   -6.5673    4.1717   -0.0879 H   0  0  0  0  0  0  0  0  0  0  0  0
   -5.1882    3.9313   -1.2470 H   0  0  0  0  0  0  0  0  0  0  0  0
   -6.1330    1.7217   -1.9355 H   0  0  0  0  0  0  0  0  0  0  0  0
   -7.5319    1.9674   -0.7954 H   0  0  0  0  0  0  0  0  0  0  0  0
   -6.0904   -0.1950    0.1439 H   0  0  0  0  0  0  0  0  0  0  0  0
   -5.2913   -0.4881    1.6898 H   0  0  0  0  0  0  0  0  0  0  0  0
   -5.8626   -2.6335    0.5656 H   0  0  0  0  0  0  0  0  0  0  0  0
   -5.0207   -2.1169   -0.8976 H   0  0  0  0  0  0  0  0  0  0  0  0
   -3.5510   -3.6250    0.3003 H   0  0  0  0  0  0  0  0  0  0  0  0
   -3.7648   -2.7460    1.8212 H   0  0  0  0  0  0  0  0  0  0  0  0
    1.4682   -1.8036   -0.1167 H   0  0  0  0  0  0  0  0  0  0  0  0
    2.8358   -1.3877   -2.3453 H   0  0  0  0  0  0  0  0  0  0  0  0
    2.7477    1.7566    1.3200 H   0  0  0  0  0  0  0  0  0  0  0  0
    6.9450   -0.7337   -1.3615 H   0  0  0  0  0  0  0  0  0  0  0  0
    5.2247   -1.8381   -2.7320 H   0  0  0  0  0  0  0  0  0  0  0  0
    7.5510    0.8347    0.4855 H   0  0  0  0  0  0  0  0  0  0  0  0
    4.4593    2.8522    2.6601 H   0  0  0  0  0  0  0  0  0  0  0  0
    6.8615    2.3976    2.2574 H   0  0  0  0  0  0  0  0  0  0  0  0
  1 12  1  0  0  0  0
  1 17  1  0  0  0  0
  2 10  2  0  0  0  0
  3 19  2  0  0  0  0
  4 10  1  0  0  0  0
  4 11  1  0  0  0  0
  4 12  1  0  0  0  0
  5 17  1  0  0  0  0
  5 19  1  0  0  0  0
  5 41  1  0  0  0  0
  6 18  3  0  0  0  0
  7  8  1  0  0  0  0
  7  9  1  0  0  0  0
  7 10  1  0  0  0  0
  7 30  1  0  0  0  0
  8  9  1  0  0  0  0
  8 31  1  0  0  0  0
  8 32  1  0  0  0  0
  9 33  1  0  0  0  0
  9 34  1  0  0  0  0
 11 13  1  0  0  0  0
 11 35  1  0  0  0  0
 11 36  1  0  0  0  0
 12 15  2  0  0  0  0
 13 14  1  0  0  0  0
 13 37  1  0  0  0  0
 13 38  1  0  0  0  0
 14 15  1  0  0  0  0
 14 39  1  0  0  0  0
 14 40  1  0  0  0  0
 15 16  1  0  0  0  0
 16 17  2  0  0  0  0
 16 18  1  0  0  0  0
 19 20  1  0  0  0  0
 20 21  1  0  0  0  0
 20 23  2  0  0  0  0
 21 22  1  0  0  0  0
 21 24  2  0  0  0  0
 22 25  1  0  0  0  0
 22 27  2  0  0  0  0
 23 26  1  0  0  0  0
 23 42  1  0  0  0  0
 24 28  1  0  0  0  0
 24 43  1  0  0  0  0
 25 26  2  0  0  0  0
 25 44  1  0  0  0  0
 26 45  1  0  0  0  0
 27 29  1  0  0  0  0
 27 46  1  0  0  0  0
 28 29  2  0  0  0  0
 28 47  1  0  0  0  0
 29 48  1  0  0  0  0
M  END
> <PUBCHEM_COMPOUND_CID>
16664858

> <PUBCHEM_CONFORMER_RMSD>
0.8

> <PUBCHEM_CONFORMER_DIVERSEORDER>
1
17
48
43
47
32
20
18
40
12
6
34
39
15
42
37
30
4
25
41
38
24
11
27
21
26
29
14
44
45
23
36
13
35
16
46
22
10
3
19
33
9
2
5
28
7
8
31

> <PUBCHEM_MMFF94_PARTIAL_CHARGES>
39
1 -0.08
10 0.63
11 0.3
12 0.1
14 0.18
15 -0.18
16 0.02
17 0.1
18 0.54
19 0.54
2 -0.57
20 0.09
23 -0.15
24 -0.15
25 -0.15
26 -0.15
27 -0.15
28 -0.15
29 -0.15
3 -0.57
30 0.1
31 0.1
32 0.1
33 0.1
34 0.1
4 -0.42
41 0.37
42 0.15
43 0.15
44 0.15
45 0.15
46 0.15
47 0.15
48 0.15
5 -0.49
6 -0.56
7 -0.1
8 -0.2
9 -0.2

> <PUBCHEM_EFFECTIVE_ROTOR_COUNT>
6.4

> <PUBCHEM_PHARMACOPHORE_FEATURES>
8
1 2 acceptor
1 3 acceptor
1 5 donor
1 6 acceptor
5 1 12 15 16 17 rings
6 20 21 22 23 25 26 rings
6 21 22 24 27 28 29 rings
6 4 11 12 13 14 15 rings

> <PUBCHEM_HEAVY_ATOM_COUNT>
29

> <PUBCHEM_ATOM_DEF_STEREO_COUNT>
0

> <PUBCHEM_ATOM_UDEF_STEREO_COUNT>
0

> <PUBCHEM_BOND_DEF_STEREO_COUNT>
0

> <PUBCHEM_BOND_UDEF_STEREO_COUNT>
0

> <PUBCHEM_ISOTOPIC_ATOM_COUNT>
0

> <PUBCHEM_COMPONENT_COUNT>
1

> <PUBCHEM_CACTVS_TAUTO_COUNT>
3

> <PUBCHEM_CONFORMER_ID>
00FE491A00000001

> <PUBCHEM_MMFF94_ENERGY>
88.8729

> <PUBCHEM_FEATURE_SELFOVERLAP>
40.686

> <PUBCHEM_SHAPE_FINGERPRINT>
10411042 1 17903644322072794787
10835480 77 18202281407549376224
10864689 126 18266741277202001093
12107183 9 18116701925181696826
12403259 415 18343308071382599883
12422481 6 17096357354655248110
12616971 3 16081089281465648692
13402501 40 18272647956819494936
14223995 32 18336823078925443117
14294032 229 17604145909154426228
15799311 1 14345799370064821890
20554085 129 18268692957938930241
21033648 29 18410293622756204904
21279426 13 18272094868252662678
21859007 373 18410570656778949212
23522609 53 17023204724693646348
23559900 14 18341624702581075076
23569914 2 17554561297680626424
2747138 104 18189911975210198707
2916195 48 18271804648406078344
3383291 50 18117281569810985835
4015057 19 17203609319481509258
4073 2 18411140246994214544
508706 21 18408882966828815277
5104073 3 18334012765737922995
5283173 99 18341615936014876976
5385378 56 18118409445306734009
5969126 39 18199178672289110351
59755656 215 18338521815773380029
6371380 46 18411704245284075430
6697151 62 17559113160677616118
6698420 124 18058464110432058097
9981440 41 18261115171335394155
9995097 60 18202004352225277620

> <PUBCHEM_SHAPE_MULTIPOLES>
573.97
17.81
3.92
1.34
3.92
1.83
0.11
-12.73
0.14
-5.6
-0.86
2.25
-0.21
4.03

> <PUBCHEM_SHAPE_SELFOVERLAP>
1256.45

> <PUBCHEM_SHAPE_VOLUME>
310.1

> <PUBCHEM_COORDINATE_TYPE>
2
5
10

$$$$
