10338500
  -OEChem-10052115193D

 44 47  0     0  0  0  0  0  0999 V2000
    5.6185    1.3723    1.3259 O   0  0  0  0  0  0  0  0  0  0  0  0
   -2.7267   -0.6192    1.1250 O   0  0  0  0  0  0  0  0  0  0  0  0
   -1.8613    0.7386   -0.5771 N   0  0  0  0  0  0  0  0  0  0  0  0
   -4.1377    0.3665   -0.4582 N   0  0  0  0  0  0  0  0  0  0  0  0
    7.0991   -0.2463    0.3827 N   0  0  0  0  0  0  0  0  0  0  0  0
    5.9926   -1.8695   -1.0569 N   0  0  0  0  0  0  0  0  0  0  0  0
    3.6462   -1.8336   -1.4760 N   0  0  0  0  0  0  0  0  0  0  0  0
    3.6676    0.6864    0.4353 C   0  0  0  0  0  0  0  0  0  0  0  0
    2.2581    0.7004    0.1777 C   0  0  0  0  0  0  0  0  0  0  0  0
    4.6908   -0.1777   -0.0240 C   0  0  0  0  0  0  0  0  0  0  0  0
    5.8731    0.2810    0.5483 C   0  0  0  0  0  0  0  0  0  0  0  0
    1.7502    1.4279   -0.9004 C   0  0  0  0  0  0  0  0  0  0  0  0
    1.3881   -0.0146    1.0035 C   0  0  0  0  0  0  0  0  0  0  0  0
   -0.4890    0.7257   -0.3254 C   0  0  0  0  0  0  0  0  0  0  0  0
    4.2826    1.6086    1.2505 C   0  0  0  0  0  0  0  0  0  0  0  0
    0.3782    1.4407   -1.1516 C   0  0  0  0  0  0  0  0  0  0  0  0
    0.0161   -0.0019    0.7523 C   0  0  0  0  0  0  0  0  0  0  0  0
    4.7854   -1.2942   -0.8511 C   0  0  0  0  0  0  0  0  0  0  0  0
   -5.4169   -0.0871   -0.0584 C   0  0  0  0  0  0  0  0  0  0  0  0
   -6.5453    0.2919   -0.7682 C   0  0  0  0  0  0  0  0  0  0  0  0
   -2.8967    0.0860    0.1354 C   0  0  0  0  0  0  0  0  0  0  0  0
   -5.5090   -0.9125    1.0519 C   0  0  0  0  0  0  0  0  0  0  0  0
   -7.7975   -0.1659   -0.3580 C   0  0  0  0  0  0  0  0  0  0  0  0
    7.0595   -1.3174   -0.4357 C   0  0  0  0  0  0  0  0  0  0  0  0
   -6.4598    1.1810   -1.9664 C   0  0  0  0  0  0  0  0  0  0  0  0
   -6.7611   -1.3703    1.4619 C   0  0  0  0  0  0  0  0  0  0  0  0
   -7.9053   -0.9969    0.7571 C   0  0  0  0  0  0  0  0  0  0  0  0
    2.4120    1.9899   -1.5554 H   0  0  0  0  0  0  0  0  0  0  0  0
    1.7663   -0.5880    1.8469 H   0  0  0  0  0  0  0  0  0  0  0  0
    3.9315    2.4549    1.8242 H   0  0  0  0  0  0  0  0  0  0  0  0
   -0.0014    2.0118   -1.9951 H   0  0  0  0  0  0  0  0  0  0  0  0
   -0.5878   -0.5803    1.4367 H   0  0  0  0  0  0  0  0  0  0  0  0
   -2.1523    1.2913   -1.3797 H   0  0  0  0  0  0  0  0  0  0  0  0
   -4.1096    0.9691   -1.2749 H   0  0  0  0  0  0  0  0  0  0  0  0
   -4.6805   -1.2504    1.6548 H   0  0  0  0  0  0  0  0  0  0  0  0
   -8.6994    0.1150   -0.8953 H   0  0  0  0  0  0  0  0  0  0  0  0
   -6.0307    2.1515   -1.6960 H   0  0  0  0  0  0  0  0  0  0  0  0
   -5.8506    0.7158   -2.7486 H   0  0  0  0  0  0  0  0  0  0  0  0
   -7.4474    1.3746   -2.3995 H   0  0  0  0  0  0  0  0  0  0  0  0
    8.0118   -1.8024   -0.6216 H   0  0  0  0  0  0  0  0  0  0  0  0
    3.7552   -2.6448   -2.0698 H   0  0  0  0  0  0  0  0  0  0  0  0
    2.7320   -1.4267   -1.3424 H   0  0  0  0  0  0  0  0  0  0  0  0
   -6.8469   -2.0176    2.3300 H   0  0  0  0  0  0  0  0  0  0  0  0
   -8.8802   -1.3533    1.0766 H   0  0  0  0  0  0  0  0  0  0  0  0
  1 11  1  0  0  0  0
  1 15  1  0  0  0  0
  2 21  2  0  0  0  0
  3 14  1  0  0  0  0
  3 21  1  0  0  0  0
  3 33  1  0  0  0  0
  4 19  1  0  0  0  0
  4 21  1  0  0  0  0
  4 34  1  0  0  0  0
  5 11  2  0  0  0  0
  5 24  1  0  0  0  0
  6 18  1  0  0  0  0
  6 24  2  0  0  0  0
  7 18  1  0  0  0  0
  7 41  1  0  0  0  0
  7 42  1  0  0  0  0
  8  9  1  0  0  0  0
  8 10  1  0  0  0  0
  8 15  2  0  0  0  0
  9 12  2  0  0  0  0
  9 13  1  0  0  0  0
 10 11  1  0  0  0  0
 10 18  2  0  0  0  0
 12 16  1  0  0  0  0
 12 28  1  0  0  0  0
 13 17  2  0  0  0  0
 13 29  1  0  0  0  0
 14 16  2  0  0  0  0
 14 17  1  0  0  0  0
 15 30  1  0  0  0  0
 16 31  1  0  0  0  0
 17 32  1  0  0  0  0
 19 20  1  0  0  0  0
 19 22  2  0  0  0  0
 20 23  2  0  0  0  0
 20 25  1  0  0  0  0
 22 26  1  0  0  0  0
 22 35  1  0  0  0  0
 23 27  1  0  0  0  0
 23 36  1  0  0  0  0
 24 40  1  0  0  0  0
 25 37  1  0  0  0  0
 25 38  1  0  0  0  0
 25 39  1  0  0  0  0
 26 27  2  0  0  0  0
 26 43  1  0  0  0  0
 27 44  1  0  0  0  0
M  END
> <PUBCHEM_COMPOUND_CID>
10338500

> <PUBCHEM_CONFORMER_RMSD>
0.8

> <PUBCHEM_CONFORMER_DIVERSEORDER>
1
12
4
13
10
7
9
5
2
8
11
3
6

> <PUBCHEM_MMFF94_PARTIAL_CHARGES>
40
1 -0.28
11 0.4
12 -0.15
13 -0.15
14 0.12
15 -0.01
16 -0.15
17 -0.15
18 0.41
19 0.12
2 -0.57
20 -0.14
21 0.69
22 -0.15
23 -0.15
24 0.47
25 0.14
26 -0.15
27 -0.15
28 0.15
29 0.15
3 -0.55
30 0.15
31 0.15
32 0.15
33 0.37
34 0.37
35 0.15
36 0.15
4 -0.55
40 0.15
41 0.4
42 0.4
43 0.15
44 0.15
5 -0.57
6 -0.62
7 -0.9
8 -0.05
9 0.05

> <PUBCHEM_EFFECTIVE_ROTOR_COUNT>
5

> <PUBCHEM_PHARMACOPHORE_FEATURES>
10
1 2 acceptor
1 3 donor
1 4 donor
1 7 cation
1 7 donor
3 5 6 24 cation
5 1 8 10 11 15 rings
6 19 20 22 23 26 27 rings
6 5 6 10 11 18 24 rings
6 9 12 13 14 16 17 rings

> <PUBCHEM_HEAVY_ATOM_COUNT>
27

> <PUBCHEM_ATOM_DEF_STEREO_COUNT>
0

> <PUBCHEM_ATOM_UDEF_STEREO_COUNT>
0

> <PUBCHEM_BOND_DEF_STEREO_COUNT>
0

> <PUBCHEM_BOND_UDEF_STEREO_COUNT>
0

> <PUBCHEM_ISOTOPIC_ATOM_COUNT>
0

> <PUBCHEM_COMPONENT_COUNT>
1

> <PUBCHEM_CACTVS_TAUTO_COUNT>
12

> <PUBCHEM_CONFORMER_ID>
009DC0C400000001

> <PUBCHEM_MMFF94_ENERGY>
84.0569

> <PUBCHEM_FEATURE_SELFOVERLAP>
50.918

> <PUBCHEM_SHAPE_FINGERPRINT>
10299344 5 16702302360432697567
11181472 205 12036541231345254551
11524674 6 18412544345229924703
11719270 70 18040429992857567779
11963148 33 17458337563355870995
12236239 1 16128655254179417416
12516196 113 18334010605554014593
13533116 47 17561365067406391138
13668630 136 18260551139023365635
13685833 64 18412829079231556110
14028597 1 16271938068946066331
14068700 675 16732984223953276333
14170010 4 18343020008321852024
14251764 18 16128654158588217025
14294032 229 16517082909326379189
14856354 85 16008753524625351275
15119646 104 16773801372240637655
15183329 4 15791733001328288007
15328684 2 15625955178964483299
15352257 5 18412828001585746191
15419008 47 18335412470195585053
15419008 91 18115006594084602869
15510794 2 18410009949352266131
15716309 27 17418375796802096113
1577012 14 15068337891555059405
15840311 113 15339112477956880104
15849732 13 18334856134380081543
18681886 176 17749104534866366337
19377110 9 15841278077649863343
20554085 129 12319738046689427132
21150785 3 15357698599782473254
21267235 1 17603309280517843593
21315759 40 16845286172850899757
21344244 78 16773789252845092914
22224240 67 12751235900300080893
22956985 138 16590811739991042642
23081809 10 16271924939351835441
23559900 14 18201147871374888729
23569943 247 17973162825222387394
23576562 1 15937275432527327399
3004659 81 17095244739034753156
3383291 50 18187088390632112899
34797466 226 18187086182818241236
3633792 109 18130222667065792769
397830 11 18193553600364811785
4073 2 18271240646460437298
4340502 62 17775567554942949198
5758199 1 11959735975720028381
59755656 215 18186237312143296707

> <PUBCHEM_SHAPE_MULTIPOLES>
519
24.85
1.57
1.39
19.65
0.06
0.15
-7.64
1.76
0.49
0.29
-1.22
-0.08
3.42

> <PUBCHEM_SHAPE_SELFOVERLAP>
1154.342

> <PUBCHEM_SHAPE_VOLUME>
275.3

> <PUBCHEM_COORDINATE_TYPE>
2
5
10

$$$$
