49830685
  -OEChem-10052115173D

 38 40  0     0  0  0  0  0  0999 V2000
    6.6998   -0.7461    0.0019 F   0  0  0  0  0  0  0  0  0  0  0  0
    5.1384   -1.8029    1.0849 F   0  0  0  0  0  0  0  0  0  0  0  0
    5.1405   -1.8031   -1.0839 F   0  0  0  0  0  0  0  0  0  0  0  0
    0.7222   -1.2207   -0.0009 O   0  0  0  0  0  0  0  0  0  0  0  0
   -1.1002    0.2501   -0.0005 N   0  0  0  0  0  0  0  0  0  0  0  0
   -4.3305   -2.4055    0.0001 N   0  0  0  0  0  0  0  0  0  0  0  0
    1.0445    1.0956   -0.0006 N   0  0  0  0  0  0  0  0  0  0  0  0
    3.1952    0.0812   -0.0008 N   0  0  0  0  0  0  0  0  0  0  0  0
   -3.5197   -0.1362    0.0000 C   0  0  0  0  0  0  0  0  0  0  0  0
   -2.2021   -0.6134   -0.0005 C   0  0  0  0  0  0  0  0  0  0  0  0
   -4.5679   -1.0802    0.0003 C   0  0  0  0  0  0  0  0  0  0  0  0
   -3.8040    1.2400   -0.0001 C   0  0  0  0  0  0  0  0  0  0  0  0
   -5.1223    1.6867    0.0003 C   0  0  0  0  0  0  0  0  0  0  0  0
   -5.8767   -0.6055    0.0008 C   0  0  0  0  0  0  0  0  0  0  0  0
   -6.1596    0.7625    0.0008 C   0  0  0  0  0  0  0  0  0  0  0  0
   -1.9543   -1.9785   -0.0007 C   0  0  0  0  0  0  0  0  0  0  0  0
   -5.4204    3.1474    0.0005 C   0  0  0  0  0  0  0  0  0  0  0  0
   -3.0444   -2.8249   -0.0003 C   0  0  0  0  0  0  0  0  0  0  0  0
    0.2744   -0.0784   -0.0007 C   0  0  0  0  0  0  0  0  0  0  0  0
    2.4546    1.2121   -0.0007 C   0  0  0  0  0  0  0  0  0  0  0  0
    4.5374    0.2424   -0.0005 C   0  0  0  0  0  0  0  0  0  0  0  0
    2.9900    2.4901   -0.0001 C   0  0  0  0  0  0  0  0  0  0  0  0
    5.1705    1.4749   -0.0001 C   0  0  0  0  0  0  0  0  0  0  0  0
    4.3748    2.6153    0.0002 C   0  0  0  0  0  0  0  0  0  0  0  0
    5.3598   -1.0029    0.0006 C   0  0  0  0  0  0  0  0  0  0  0  0
   -3.0258    1.9966    0.0015 H   0  0  0  0  0  0  0  0  0  0  0  0
   -6.7071   -1.3093    0.0015 H   0  0  0  0  0  0  0  0  0  0  0  0
   -7.1964    1.0884    0.0029 H   0  0  0  0  0  0  0  0  0  0  0  0
   -0.9896   -2.4575   -0.0011 H   0  0  0  0  0  0  0  0  0  0  0  0
   -1.2904    1.2449   -0.0003 H   0  0  0  0  0  0  0  0  0  0  0  0
   -6.4430    3.3496   -0.3358 H   0  0  0  0  0  0  0  0  0  0  0  0
   -4.7473    3.6814   -0.6789 H   0  0  0  0  0  0  0  0  0  0  0  0
   -5.3025    3.5551    1.0095 H   0  0  0  0  0  0  0  0  0  0  0  0
   -2.9138   -3.9022   -0.0003 H   0  0  0  0  0  0  0  0  0  0  0  0
    0.5334    1.9747   -0.0004 H   0  0  0  0  0  0  0  0  0  0  0  0
    2.3646    3.3768    0.0002 H   0  0  0  0  0  0  0  0  0  0  0  0
    6.2506    1.5718    0.0003 H   0  0  0  0  0  0  0  0  0  0  0  0
    4.8331    3.5997    0.0007 H   0  0  0  0  0  0  0  0  0  0  0  0
  1 25  1  0  0  0  0
  2 25  1  0  0  0  0
  3 25  1  0  0  0  0
  4 19  2  0  0  0  0
  5 10  1  0  0  0  0
  5 19  1  0  0  0  0
  5 30  1  0  0  0  0
  6 11  2  0  0  0  0
  6 18  1  0  0  0  0
  7 19  1  0  0  0  0
  7 20  1  0  0  0  0
  7 35  1  0  0  0  0
  8 20  1  0  0  0  0
  8 21  2  0  0  0  0
  9 10  2  0  0  0  0
  9 11  1  0  0  0  0
  9 12  1  0  0  0  0
 10 16  1  0  0  0  0
 11 14  1  0  0  0  0
 12 13  2  0  0  0  0
 12 26  1  0  0  0  0
 13 15  1  0  0  0  0
 13 17  1  0  0  0  0
 14 15  2  0  0  0  0
 14 27  1  0  0  0  0
 15 28  1  0  0  0  0
 16 18  2  0  0  0  0
 16 29  1  0  0  0  0
 17 31  1  0  0  0  0
 17 32  1  0  0  0  0
 17 33  1  0  0  0  0
 18 34  1  0  0  0  0
 20 22  2  0  0  0  0
 21 23  1  0  0  0  0
 21 25  1  0  0  0  0
 22 24  1  0  0  0  0
 22 36  1  0  0  0  0
 23 24  2  0  0  0  0
 23 37  1  0  0  0  0
 24 38  1  0  0  0  0
M  END
> <PUBCHEM_COMPOUND_CID>
49830685

> <PUBCHEM_CONFORMER_RMSD>
0.8

> <PUBCHEM_CONFORMER_DIVERSEORDER>
1
22
16
6
19
9
24
10
11
25
8
4
7
5
26
12
15
18
23
2
3
17
14
21
13
20

> <PUBCHEM_MMFF94_PARTIAL_CHARGES>
34
1 -0.34
10 0.12
11 0.31
12 -0.15
13 -0.14
14 -0.15
15 -0.15
16 -0.15
17 0.14
18 0.16
19 0.69
2 -0.34
20 0.43
21 0.17
22 -0.15
23 -0.15
24 -0.15
25 1.16
26 0.15
27 0.15
28 0.15
29 0.15
3 -0.34
30 0.37
34 0.15
35 0.37
36 0.15
37 0.15
38 0.15
4 -0.57
5 -0.55
6 -0.62
7 -0.55
8 -0.62

> <PUBCHEM_EFFECTIVE_ROTOR_COUNT>
5

> <PUBCHEM_PHARMACOPHORE_FEATURES>
8
1 4 acceptor
1 5 donor
1 6 acceptor
1 7 donor
1 8 acceptor
6 6 9 10 11 16 18 rings
6 8 20 21 22 23 24 rings
6 9 11 12 13 14 15 rings

> <PUBCHEM_HEAVY_ATOM_COUNT>
25

> <PUBCHEM_ATOM_DEF_STEREO_COUNT>
0

> <PUBCHEM_ATOM_UDEF_STEREO_COUNT>
0

> <PUBCHEM_BOND_DEF_STEREO_COUNT>
0

> <PUBCHEM_BOND_UDEF_STEREO_COUNT>
0

> <PUBCHEM_ISOTOPIC_ATOM_COUNT>
0

> <PUBCHEM_COMPONENT_COUNT>
1

> <PUBCHEM_CACTVS_TAUTO_COUNT>
11

> <PUBCHEM_CONFORMER_ID>
02F85B1D00000001

> <PUBCHEM_MMFF94_ENERGY>
71.891

> <PUBCHEM_FEATURE_SELFOVERLAP>
40.681

> <PUBCHEM_SHAPE_FINGERPRINT>
10595046 47 18265332996032368724
10835480 77 18271238421730922016
11405975 8 18409447011650529760
11796584 16 18342459236112255858
12107183 9 18264201405309534200
12166972 35 18408608088748395593
13073987 5 18336827597209225048
13167823 11 18337669827511561754
13785724 45 18052540968052541254
14341114 176 18336550503278751061
14420673 8 18336267851323077026
14904525 67 15430034361572127205
14933364 13 18409451401059938644
15042514 8 18192153918353669827
15183329 4 18410011022318409321
15196674 1 18410855507378089792
15250474 111 18268134526144047398
15419008 42 17986110704025197485
17844677 252 18337961180701959184
1813 80 16877938373554907564
19611394 137 17969799639060573905
19958102 18 18334849528926141199
20281389 69 18408323285335197105
21065198 57 18338797947705363360
21236236 1 18340768230436463039
21267235 1 18336271219072913131
21279426 13 18340488880630131836
21315763 129 18412545431222810063
21315763 28 18410854373907955623
21315764 268 18338230570121234221
23522609 53 17823441343383733580
23536379 177 18410292518796518712
23559900 14 18343578538421480178
23569943 247 16951952982289451570
2838139 119 18412258411960694309
3004659 81 18408887339437565656
335352 9 18410573972282484381
4073 2 18042126621351549322
4197921 191 18335143132748492709
4214541 1 18410574011179919141
5104073 3 18411138073297619464
5283173 99 18412263939151042001
531348 171 18202280312685916543
559249 180 18411416194095093547
59755656 215 18340489954487903054
59755656 520 18334852810697918959
6327066 14 18190172396621487389
633830 44 17749387126275656360
90127 26 18260837028498606008
9965369 4 18410291389599798057
9995097 60 18341895181856153142
9996256 80 18411981395033267127

> <PUBCHEM_SHAPE_MULTIPOLES>
466.87
17.77
3.1
0.65
7.76
0.56
0
1.93
0.01
-1.41
0
0.28
-0.1
0

> <PUBCHEM_SHAPE_SELFOVERLAP>
1024.724

> <PUBCHEM_SHAPE_VOLUME>
251.8

> <PUBCHEM_COORDINATE_TYPE>
2
5
10

$$$$
