49830349
  -OEChem-10052115183D

 41 44  0     0  0  0  0  0  0999 V2000
    5.6662   -1.9557    0.9007 S   0  0  0  0  0  0  0  0  0  0  0  0
   -2.9714    0.1180    1.1228 O   0  0  0  0  0  0  0  0  0  0  0  0
   -2.0494   -0.5239   -0.9333 N   0  0  0  0  0  0  0  0  0  0  0  0
    6.8397    0.3950    0.4586 N   0  0  0  0  0  0  0  0  0  0  0  0
    5.5004    2.2624   -0.3146 N   0  0  0  0  0  0  0  0  0  0  0  0
    3.1661    2.0974   -0.7018 N   0  0  0  0  0  0  0  0  0  0  0  0
   -4.3309   -0.2125   -0.7509 N   0  0  0  0  0  0  0  0  0  0  0  0
    3.4541   -0.8656    0.1841 C   0  0  0  0  0  0  0  0  0  0  0  0
    2.0441   -0.7787   -0.1019 C   0  0  0  0  0  0  0  0  0  0  0  0
    4.4422    0.1634    0.0785 C   0  0  0  0  0  0  0  0  0  0  0  0
    5.6940   -0.3137    0.4448 C   0  0  0  0  0  0  0  0  0  0  0  0
    1.1494   -0.4149    0.9046 C   0  0  0  0  0  0  0  0  0  0  0  0
    1.5742   -1.0577   -1.3852 C   0  0  0  0  0  0  0  0  0  0  0  0
    3.9825   -2.0619    0.6182 C   0  0  0  0  0  0  0  0  0  0  0  0
   -0.6849   -0.6095   -0.6557 C   0  0  0  0  0  0  0  0  0  0  0  0
    4.3821    1.5057   -0.3097 C   0  0  0  0  0  0  0  0  0  0  0  0
   -0.2151   -0.3303    0.6278 C   0  0  0  0  0  0  0  0  0  0  0  0
    0.2098   -0.9732   -1.6622 C   0  0  0  0  0  0  0  0  0  0  0  0
   -3.1088   -0.1742   -0.0608 C   0  0  0  0  0  0  0  0  0  0  0  0
    6.6478    1.6669    0.0657 C   0  0  0  0  0  0  0  0  0  0  0  0
   -5.6238    0.0677   -0.2490 C   0  0  0  0  0  0  0  0  0  0  0  0
   -6.7326   -0.0230   -1.0904 C   0  0  0  0  0  0  0  0  0  0  0  0
   -5.7899    0.4347    1.0864 C   0  0  0  0  0  0  0  0  0  0  0  0
   -8.0076    0.2531   -0.5963 C   0  0  0  0  0  0  0  0  0  0  0  0
   -7.0647    0.7107    1.5805 C   0  0  0  0  0  0  0  0  0  0  0  0
   -8.1736    0.6201    0.7391 C   0  0  0  0  0  0  0  0  0  0  0  0
    1.5007   -0.1931    1.9098 H   0  0  0  0  0  0  0  0  0  0  0  0
    2.2584   -1.3414   -2.1815 H   0  0  0  0  0  0  0  0  0  0  0  0
    3.4697   -2.9997    0.7866 H   0  0  0  0  0  0  0  0  0  0  0  0
   -0.8418   -0.0423    1.4595 H   0  0  0  0  0  0  0  0  0  0  0  0
   -0.1423   -1.1929   -2.6669 H   0  0  0  0  0  0  0  0  0  0  0  0
   -2.3150   -0.7419   -1.8905 H   0  0  0  0  0  0  0  0  0  0  0  0
    7.5312    2.2957    0.0531 H   0  0  0  0  0  0  0  0  0  0  0  0
    2.2971    1.5889   -0.7204 H   0  0  0  0  0  0  0  0  0  0  0  0
    3.1749    3.0717   -0.9739 H   0  0  0  0  0  0  0  0  0  0  0  0
   -4.2924   -0.4726   -1.7332 H   0  0  0  0  0  0  0  0  0  0  0  0
   -6.6172   -0.3078   -2.1330 H   0  0  0  0  0  0  0  0  0  0  0  0
   -4.9837    0.5272    1.8000 H   0  0  0  0  0  0  0  0  0  0  0  0
   -8.8710    0.1825   -1.2514 H   0  0  0  0  0  0  0  0  0  0  0  0
   -7.1956    0.9964    2.6203 H   0  0  0  0  0  0  0  0  0  0  0  0
   -9.1662    0.8351    1.1238 H   0  0  0  0  0  0  0  0  0  0  0  0
  1 11  1  0  0  0  0
  1 14  1  0  0  0  0
  2 19  2  0  0  0  0
  3 15  1  0  0  0  0
  3 19  1  0  0  0  0
  3 32  1  0  0  0  0
  4 11  2  0  0  0  0
  4 20  1  0  0  0  0
  5 16  1  0  0  0  0
  5 20  2  0  0  0  0
  6 16  1  0  0  0  0
  6 34  1  0  0  0  0
  6 35  1  0  0  0  0
  7 19  1  0  0  0  0
  7 21  1  0  0  0  0
  7 36  1  0  0  0  0
  8  9  1  0  0  0  0
  8 10  1  0  0  0  0
  8 14  2  0  0  0  0
  9 12  2  0  0  0  0
  9 13  1  0  0  0  0
 10 11  1  0  0  0  0
 10 16  2  0  0  0  0
 12 17  1  0  0  0  0
 12 27  1  0  0  0  0
 13 18  2  0  0  0  0
 13 28  1  0  0  0  0
 14 29  1  0  0  0  0
 15 17  2  0  0  0  0
 15 18  1  0  0  0  0
 17 30  1  0  0  0  0
 18 31  1  0  0  0  0
 20 33  1  0  0  0  0
 21 22  2  0  0  0  0
 21 23  1  0  0  0  0
 22 24  1  0  0  0  0
 22 37  1  0  0  0  0
 23 25  2  0  0  0  0
 23 38  1  0  0  0  0
 24 26  2  0  0  0  0
 24 39  1  0  0  0  0
 25 26  1  0  0  0  0
 25 40  1  0  0  0  0
 26 41  1  0  0  0  0
M  END
> <PUBCHEM_COMPOUND_CID>
49830349

> <PUBCHEM_CONFORMER_RMSD>
0.8

> <PUBCHEM_CONFORMER_DIVERSEORDER>
1
5
14
4
6
7
2
8
12
13
3
11
10
9

> <PUBCHEM_MMFF94_PARTIAL_CHARGES>
40
1 -0.08
11 0.3
12 -0.15
13 -0.15
14 -0.11
15 0.12
16 0.41
17 -0.15
18 -0.15
19 0.69
2 -0.57
20 0.47
21 0.12
22 -0.15
23 -0.15
24 -0.15
25 -0.15
26 -0.15
27 0.15
28 0.15
29 0.15
3 -0.55
30 0.15
31 0.15
32 0.37
33 0.15
34 0.4
35 0.4
36 0.37
37 0.15
38 0.15
39 0.15
4 -0.57
40 0.15
41 0.15
5 -0.62
6 -0.9
7 -0.55
8 -0.05
9 0.05

> <PUBCHEM_EFFECTIVE_ROTOR_COUNT>
5

> <PUBCHEM_PHARMACOPHORE_FEATURES>
11
1 2 acceptor
1 3 donor
1 4 acceptor
1 6 cation
1 6 donor
1 7 donor
3 4 5 20 cation
5 1 8 10 11 14 rings
6 21 22 23 24 25 26 rings
6 4 5 10 11 16 20 rings
6 9 12 13 15 17 18 rings

> <PUBCHEM_HEAVY_ATOM_COUNT>
26

> <PUBCHEM_ATOM_DEF_STEREO_COUNT>
0

> <PUBCHEM_ATOM_UDEF_STEREO_COUNT>
0

> <PUBCHEM_BOND_DEF_STEREO_COUNT>
0

> <PUBCHEM_BOND_UDEF_STEREO_COUNT>
0

> <PUBCHEM_ISOTOPIC_ATOM_COUNT>
0

> <PUBCHEM_COMPONENT_COUNT>
1

> <PUBCHEM_CACTVS_TAUTO_COUNT>
12

> <PUBCHEM_CONFORMER_ID>
02F859CD00000001

> <PUBCHEM_MMFF94_ENERGY>
82.4638

> <PUBCHEM_FEATURE_SELFOVERLAP>
55.951

> <PUBCHEM_SHAPE_FINGERPRINT>
10 15 17530965799922912979
10162869 55 18335692893009945983
10299344 5 18131067130645433555
10411042 1 17974562504479340682
10554248 39 17702938111752950493
106641 1 14634870877523791116
10906281 52 17774736311341574135
11315181 36 18272368682041744035
11524674 6 16515409569331265195
11646440 116 16660368069381482021
11719270 70 17131832032205583511
12236239 1 18202560696535029902
125118 31 18410294671171642005
12516196 113 16153428333416508271
12730499 353 17748822995628670258
13167372 99 18341332197453550032
13533116 47 18041560239376828266
14068700 675 13334740120323961879
14170010 4 17894349977818847710
14251757 52 17703785951050382576
14251764 18 18060134341287021363
14294032 229 17417809509453903197
14341114 176 18186519895411096932
14849402 71 18340488971363067377
14933364 13 18259702294255290373
15183329 4 17346883355872444873
15301273 46 16443059487218346063
15348495 7 17386296496852425441
15419008 47 17095235913230680941
15419008 91 16443333300416429005
15475509 35 16081633488957147226
1577012 14 18202560700428934415
15840311 113 18342176696142067532
15849732 13 13542459874027755721
16120349 18 18408598180458628397
16989713 51 16414902185218496631
18335252 114 18202281411981344148
20157964 124 18408603652294520602
20281389 69 18408321069121204661
21033648 29 17532090669328047816
21150785 3 14117800223823940213
21344244 78 18198043817396217322
21521721 280 18334013895393280403
22122407 14 18270693059330825281
22224240 67 18260827103014203635
22956985 138 13192273022810592184
23081809 10 18060412517576192967
23522609 53 17916604101913861265
23576562 1 17058919155818615909
255183 451 17843412778623804166
3383291 50 15647345152044719737
397830 11 17604723290719531763
4073 2 17895197761013076578
4325135 7 18272932717677775637
4340502 62 17894911832519224602
445580 37 15913054201301356699
45377200 153 11743536814529881165
465052 167 12107789605434572002
5758199 1 17632859711876104079
59682541 35 16153429480109635012

> <PUBCHEM_SHAPE_MULTIPOLES>
508.14
24.12
1.68
1.27
33
0.42
0.06
7.02
-4.67
-4.28
0.03
1.24
-0.19
-1.47

> <PUBCHEM_SHAPE_SELFOVERLAP>
1116.145

> <PUBCHEM_SHAPE_VOLUME>
274.6

> <PUBCHEM_COORDINATE_TYPE>
2
5
10

$$$$
