24899917
  -OEChem-10062122023D

 33 35  0     0  0  0  0  0  0999 V2000
   -0.3786    2.6568    0.3547 O   0  0  0  0  0  0  0  0  0  0  0  0
    3.2801   -2.6614    0.3850 O   0  0  0  0  0  0  0  0  0  0  0  0
    3.3971    2.0157   -0.3707 O   0  0  0  0  0  0  0  0  0  0  0  0
   -3.7771   -2.3503   -1.1672 O   0  0  0  0  0  0  0  0  0  0  0  0
   -5.1595   -0.3864    0.2279 O   0  0  0  0  0  0  0  0  0  0  0  0
    1.0765    2.9473   -1.3469 O   0  0  0  0  0  0  0  0  0  0  0  0
   -0.9795   -0.2914    0.0433 C   0  0  0  0  0  0  0  0  0  0  0  0
    0.4990   -0.2676    0.0057 C   0  0  0  0  0  0  0  0  0  0  0  0
   -1.6972    0.7021    0.7409 C   0  0  0  0  0  0  0  0  0  0  0  0
    1.2456    0.9155   -0.1849 C   0  0  0  0  0  0  0  0  0  0  0  0
   -0.9541    1.8342    1.3894 C   0  0  0  0  0  0  0  0  0  0  0  0
   -1.7120   -1.3102   -0.5950 C   0  0  0  0  0  0  0  0  0  0  0  0
    1.2227   -1.4631    0.2002 C   0  0  0  0  0  0  0  0  0  0  0  0
   -3.0988    0.6592    0.7960 C   0  0  0  0  0  0  0  0  0  0  0  0
    2.6506    0.8849   -0.2013 C   0  0  0  0  0  0  0  0  0  0  0  0
    0.6330    2.2405   -0.4482 C   0  0  0  0  0  0  0  0  0  0  0  0
    2.6195   -1.4872    0.1911 C   0  0  0  0  0  0  0  0  0  0  0  0
   -3.1067   -1.3465   -0.5353 C   0  0  0  0  0  0  0  0  0  0  0  0
   -3.7995   -0.3637    0.1624 C   0  0  0  0  0  0  0  0  0  0  0  0
    3.3329   -0.3131   -0.0108 C   0  0  0  0  0  0  0  0  0  0  0  0
    4.7060   -2.6153    0.3636 C   0  0  0  0  0  0  0  0  0  0  0  0
   -1.6325    2.4740    1.9641 H   0  0  0  0  0  0  0  0  0  0  0  0
   -0.1832    1.4877    2.0878 H   0  0  0  0  0  0  0  0  0  0  0  0
   -1.1887   -2.0840   -1.1544 H   0  0  0  0  0  0  0  0  0  0  0  0
    0.6954   -2.3997    0.3773 H   0  0  0  0  0  0  0  0  0  0  0  0
   -3.6404    1.4352    1.3324 H   0  0  0  0  0  0  0  0  0  0  0  0
    4.4167   -0.2653   -0.0261 H   0  0  0  0  0  0  0  0  0  0  0  0
    2.8351    2.8063   -0.3675 H   0  0  0  0  0  0  0  0  0  0  0  0
   -3.1347   -2.9397   -1.5984 H   0  0  0  0  0  0  0  0  0  0  0  0
   -5.4650    0.3735    0.7525 H   0  0  0  0  0  0  0  0  0  0  0  0
    5.0647   -3.6361    0.5316 H   0  0  0  0  0  0  0  0  0  0  0  0
    5.1012   -1.9999    1.1791 H   0  0  0  0  0  0  0  0  0  0  0  0
    5.0842   -2.3010   -0.6152 H   0  0  0  0  0  0  0  0  0  0  0  0
  1 11  1  0  0  0  0
  1 16  1  0  0  0  0
  2 17  1  0  0  0  0
  2 21  1  0  0  0  0
  3 15  1  0  0  0  0
  3 28  1  0  0  0  0
  4 18  1  0  0  0  0
  4 29  1  0  0  0  0
  5 19  1  0  0  0  0
  5 30  1  0  0  0  0
  6 16  2  0  0  0  0
  7  8  1  0  0  0  0
  7  9  1  0  0  0  0
  7 12  2  0  0  0  0
  8 10  2  0  0  0  0
  8 13  1  0  0  0  0
  9 11  1  0  0  0  0
  9 14  2  0  0  0  0
 10 15  1  0  0  0  0
 10 16  1  0  0  0  0
 11 22  1  0  0  0  0
 11 23  1  0  0  0  0
 12 18  1  0  0  0  0
 12 24  1  0  0  0  0
 13 17  2  0  0  0  0
 13 25  1  0  0  0  0
 14 19  1  0  0  0  0
 14 26  1  0  0  0  0
 15 20  2  0  0  0  0
 17 20  1  0  0  0  0
 18 19  2  0  0  0  0
 20 27  1  0  0  0  0
 21 31  1  0  0  0  0
 21 32  1  0  0  0  0
 21 33  1  0  0  0  0
M  END
> <PUBCHEM_COMPOUND_CID>
24899917

> <PUBCHEM_CONFORMER_RMSD>
0.6

> <PUBCHEM_CONFORMER_DIVERSEORDER>
1
2

> <PUBCHEM_MMFF94_PARTIAL_CHARGES>
26
1 -0.43
10 0.09
11 0.42
12 -0.15
13 -0.15
14 -0.15
15 0.08
16 0.63
17 0.08
18 0.08
19 0.08
2 -0.36
20 -0.15
21 0.28
24 0.15
25 0.15
26 0.15
27 0.15
28 0.45
29 0.45
3 -0.53
30 0.45
4 -0.53
5 -0.53
6 -0.57
9 -0.14

> <PUBCHEM_EFFECTIVE_ROTOR_COUNT>
1.4

> <PUBCHEM_PHARMACOPHORE_FEATURES>
8
1 2 acceptor
1 3 donor
1 4 donor
1 5 donor
1 6 acceptor
6 7 9 12 14 18 19 rings
6 8 10 13 15 17 20 rings
7 1 7 8 9 10 11 16 rings

> <PUBCHEM_HEAVY_ATOM_COUNT>
21

> <PUBCHEM_ATOM_DEF_STEREO_COUNT>
0

> <PUBCHEM_ATOM_UDEF_STEREO_COUNT>
0

> <PUBCHEM_BOND_DEF_STEREO_COUNT>
0

> <PUBCHEM_BOND_UDEF_STEREO_COUNT>
0

> <PUBCHEM_ISOTOPIC_ATOM_COUNT>
0

> <PUBCHEM_COMPONENT_COUNT>
1

> <PUBCHEM_CACTVS_TAUTO_COUNT>
72

> <PUBCHEM_CONFORMER_ID>
017BF14D00000001

> <PUBCHEM_MMFF94_ENERGY>
87.4765

> <PUBCHEM_FEATURE_SELFOVERLAP>
40.623

> <PUBCHEM_SHAPE_FINGERPRINT>
10062212 137 18130506431255057439
10967382 1 18337956787177021850
10989021 7 18336828598147530104
11265709 11 18337953394153117866
11578080 2 18128792227602115113
12236239 1 18272654549535687131
12293681 160 17696215954958936464
12553582 1 18262511469092270978
13004483 165 18338227151004902561
13009979 54 18201447951722709554
13083527 12 18190157084640161400
13140716 1 18341055120538941131
14576447 43 18198337553565787871
14787075 74 17556857245810767088
14790565 3 17975421522880260276
15042514 8 17616246988770752802
15196674 1 18410857620586577497
15375462 189 18271251637465942035
15375462 478 18202561752574563367
15442244 35 18411703144943746259
15536298 74 18343866627985339096
16945 1 18189062060472760357
17492 89 18338517546824619227
1813 80 17969229953891822982
18186145 218 17313099757017699219
200 152 18411415077350738683
20291156 8 18411699863588985442
21267235 1 18340216214742309747
21634736 98 18411144619244730094
22112679 90 18342185418486941896
221490 88 18189906481266538179
2255824 54 18119249703712679892
2334 1 18411421725944191122
23388829 49 18412270557373891600
23402539 116 18267859497596295039
23419403 2 17913455052850305520
23463225 33 18413392024932188671
23557571 272 16773248287784728184
23559900 14 18201429238877060074
25147074 1 18266194863357537032
2748010 2 16970278336409686758
335352 9 18194684765706347669
34934 24 18200311142588313689
394222 165 17390218570946437000
4409770 3 17179679256968693636
46194498 28 17677601137717223231
474 4 18117564143670828964
5104073 3 18343308071936755107
6992083 37 18197230147719322681
7064713 232 17701547207931911569
7364860 26 18341612684687807952
9709674 26 18261678193860231747
9981440 41 17545314641187499640

> <PUBCHEM_SHAPE_MULTIPOLES>
396.95
7.76
3.14
0.94
1.28
0.7
0
-5.68
-0.28
-1.99
0.48
0.33
0.26
-1.58

> <PUBCHEM_SHAPE_SELFOVERLAP>
884.006

> <PUBCHEM_SHAPE_VOLUME>
209.9

> <PUBCHEM_COORDINATE_TYPE>
2
5
10

$$$$
