25165278
  -OEChem-10052115143D

 36 39  0     0  0  0  0  0  0999 V2000
   -0.3339   -2.2144   -0.0640 O   0  0  0  0  0  0  0  0  0  0  0  0
    5.5039    0.0751   -0.7024 N   0  0  0  0  0  0  0  0  0  0  0  0
    5.6807    1.3160   -0.2192 N   0  0  0  0  0  0  0  0  0  0  0  0
   -1.6783   -2.2786    0.2817 N   0  0  0  0  0  0  0  0  0  0  0  0
    4.1506    2.8141    0.8514 N   0  0  0  0  0  0  0  0  0  0  0  0
    1.5653   -0.7961    0.0183 C   0  0  0  0  0  0  0  0  0  0  0  0
    3.5245    0.6082    0.0768 C   0  0  0  0  0  0  0  0  0  0  0  0
    4.2315   -0.4080   -0.5563 C   0  0  0  0  0  0  0  0  0  0  0  0
    0.1688   -1.0112    0.3139 C   0  0  0  0  0  0  0  0  0  0  0  0
    2.1647    0.4187    0.3737 C   0  0  0  0  0  0  0  0  0  0  0  0
   -3.2983   -0.8203    1.3588 C   0  0  0  0  0  0  0  0  0  0  0  0
   -1.9431   -1.1039    0.8603 C   0  0  0  0  0  0  0  0  0  0  0  0
    2.2987   -1.8000   -0.6168 C   0  0  0  0  0  0  0  0  0  0  0  0
   -0.8154   -0.2660    0.9075 C   0  0  0  0  0  0  0  0  0  0  0  0
    3.6534   -1.6266   -0.9189 C   0  0  0  0  0  0  0  0  0  0  0  0
    4.4746    1.6369    0.2544 C   0  0  0  0  0  0  0  0  0  0  0  0
   -4.1303    0.0825    0.4566 C   0  0  0  0  0  0  0  0  0  0  0  0
   -3.9364    1.4637    0.4824 C   0  0  0  0  0  0  0  0  0  0  0  0
   -5.0852   -0.4718   -0.3958 C   0  0  0  0  0  0  0  0  0  0  0  0
   -4.6975    2.2904   -0.3439 C   0  0  0  0  0  0  0  0  0  0  0  0
   -5.8461    0.3551   -1.2222 C   0  0  0  0  0  0  0  0  0  0  0  0
   -5.6523    1.7362   -1.1963 C   0  0  0  0  0  0  0  0  0  0  0  0
    1.6070    1.2085    0.8679 H   0  0  0  0  0  0  0  0  0  0  0  0
   -3.2343   -0.3498    2.3495 H   0  0  0  0  0  0  0  0  0  0  0  0
   -3.8467   -1.7564    1.5317 H   0  0  0  0  0  0  0  0  0  0  0  0
    1.8460   -2.7484   -0.8984 H   0  0  0  0  0  0  0  0  0  0  0  0
   -0.7386    0.7308    1.3167 H   0  0  0  0  0  0  0  0  0  0  0  0
    4.2251   -2.4048   -1.4120 H   0  0  0  0  0  0  0  0  0  0  0  0
    6.2977   -0.3914   -1.1233 H   0  0  0  0  0  0  0  0  0  0  0  0
   -3.1987    1.9091    1.1443 H   0  0  0  0  0  0  0  0  0  0  0  0
   -5.2446   -1.5463   -0.4273 H   0  0  0  0  0  0  0  0  0  0  0  0
    3.2197    3.0215    1.2000 H   0  0  0  0  0  0  0  0  0  0  0  0
    4.8335    3.5543    0.9798 H   0  0  0  0  0  0  0  0  0  0  0  0
   -4.5471    3.3658   -0.3231 H   0  0  0  0  0  0  0  0  0  0  0  0
   -6.5893   -0.0764   -1.8865 H   0  0  0  0  0  0  0  0  0  0  0  0
   -6.2449    2.3799   -1.8398 H   0  0  0  0  0  0  0  0  0  0  0  0
  1  4  1  0  0  0  0
  1  9  1  0  0  0  0
  2  3  1  0  0  0  0
  2  8  1  0  0  0  0
  2 29  1  0  0  0  0
  3 16  2  0  0  0  0
  4 12  2  0  0  0  0
  5 16  1  0  0  0  0
  5 32  1  0  0  0  0
  5 33  1  0  0  0  0
  6  9  1  0  0  0  0
  6 10  2  0  0  0  0
  6 13  1  0  0  0  0
  7  8  2  0  0  0  0
  7 10  1  0  0  0  0
  7 16  1  0  0  0  0
  8 15  1  0  0  0  0
  9 14  2  0  0  0  0
 10 23  1  0  0  0  0
 11 12  1  0  0  0  0
 11 17  1  0  0  0  0
 11 24  1  0  0  0  0
 11 25  1  0  0  0  0
 12 14  1  0  0  0  0
 13 15  2  0  0  0  0
 13 26  1  0  0  0  0
 14 27  1  0  0  0  0
 15 28  1  0  0  0  0
 17 18  2  0  0  0  0
 17 19  1  0  0  0  0
 18 20  1  0  0  0  0
 18 30  1  0  0  0  0
 19 21  2  0  0  0  0
 19 31  1  0  0  0  0
 20 22  2  0  0  0  0
 20 34  1  0  0  0  0
 21 22  1  0  0  0  0
 21 35  1  0  0  0  0
 22 36  1  0  0  0  0
M  END
> <PUBCHEM_COMPOUND_CID>
25165278

> <PUBCHEM_CONFORMER_RMSD>
0.6

> <PUBCHEM_CONFORMER_DIVERSEORDER>
1
21
43
32
5
16
34
9
29
26
25
42
11
15
39
27
41
12
18
10
31
44
28
3
38
8
37
24
30
17
23
7
35
13
40
20
2
33
45
14
19
36
22
4
6

> <PUBCHEM_MMFF94_PARTIAL_CHARGES>
33
1 -0.02
10 -0.15
11 0.32
12 0.11
13 -0.15
14 -0.15
15 -0.15
16 0.37
17 -0.14
18 -0.15
19 -0.15
2 0.3
20 -0.15
21 -0.15
22 -0.15
23 0.15
26 0.15
27 0.15
28 0.15
29 0.27
3 -0.71
30 0.15
31 0.15
32 0.4
33 0.4
34 0.15
35 0.15
36 0.15
4 -0.41
5 -0.88
6 0.05
8 -0.15
9 0.09

> <PUBCHEM_EFFECTIVE_ROTOR_COUNT>
3

> <PUBCHEM_PHARMACOPHORE_FEATURES>
8
1 2 donor
1 4 acceptor
1 5 donor
3 3 5 16 cation
5 1 4 9 12 14 rings
5 2 3 7 8 16 rings
6 17 18 19 20 21 22 rings
6 6 7 8 10 13 15 rings

> <PUBCHEM_HEAVY_ATOM_COUNT>
22

> <PUBCHEM_ATOM_DEF_STEREO_COUNT>
0

> <PUBCHEM_ATOM_UDEF_STEREO_COUNT>
0

> <PUBCHEM_BOND_DEF_STEREO_COUNT>
0

> <PUBCHEM_BOND_UDEF_STEREO_COUNT>
0

> <PUBCHEM_ISOTOPIC_ATOM_COUNT>
0

> <PUBCHEM_COMPONENT_COUNT>
1

> <PUBCHEM_CACTVS_TAUTO_COUNT>
7

> <PUBCHEM_CONFORMER_ID>
017FFDDE00000001

> <PUBCHEM_MMFF94_ENERGY>
45.4375

> <PUBCHEM_FEATURE_SELFOVERLAP>
40.688

> <PUBCHEM_SHAPE_FINGERPRINT>
10014705 185 18410014376835924403
10498660 4 18334574595248035865
10763959 59 18335708247618431212
11089746 13 18408318865660686858
11128504 68 15841549699491575409
11595378 159 16515677810690881308
12403259 415 18335995190019742931
12422481 6 12396290452777895209
12596602 18 14779562196011523772
12633257 1 15285365032869036047
12670546 177 17918272043799052471
12769317 202 18272367590191746944
12969540 114 18335128783383686711
13103583 49 11602826753270325189
13402501 40 18408037416322326997
13551218 46 9079106774812898145
13941219 33 8718835305850251221
14251757 5 16987704865898384663
14251764 38 18334300881066713461
14528608 73 18342173354155805573
14739800 52 17968361386613020865
14848178 96 18411700980322784640
14950920 106 13046240363754476629
15003188 100 18341047501356888365
15183329 4 18341333297007011914
15238133 3 16370733616727885782
15348495 7 8214133058678165167
15537594 2 13542471951644240141
16989378 47 15983723047597104214
17349148 13 14764350435476866479
17780758 139 7925913686533365543
17959699 21 18411138047664932530
193927 3 12607395620591286447
200 152 16702307832015505971
20281389 69 18113057142450238184
20621476 21 11312054383102040685
20645477 56 18337117847020646307
20645477 70 17846230920913602374
21033648 144 18130229375171830016
21033648 29 18336262422420826081
21054139 6 13758076281830423940
21150785 3 14692569953398737672
212916 134 17167863071392271275
21388113 180 18338233894146476248
21859007 373 18336252467409508320
221357 26 18202559558469118209
22289505 5 18413393120803061388
22950370 63 9943516436532896395
23402655 69 18202284675713084895
23522609 53 10447087367222680578
23559900 14 18200883885632042618
2767999 5 17967530160285986197
2838139 119 18335977593354134205
2916195 48 18333731338274474475
312425 54 8286197280077692213
335352 9 18342181068840462934
341906 21 17676209074059750545
34797466 226 18131355194075505559
351380 3 12607401092232052205
4371632 12 16197316610980359672
441001 317 18260550013662643873
465052 167 8358260354477811832
5104073 3 17822296726119619755
5283173 99 18411135844462760761
56633871 153 9510872918130538309
5924683 9 12324827725413263465
59682541 35 17968111785854833697
6328613 192 18041009474820541444
7237137 82 17489017297073056047
9981440 41 17822295665563514411

> <PUBCHEM_SHAPE_MULTIPOLES>
426.96
15.08
2.44
1.07
3.24
0.63
0.02
8.65
4.34
-0.59
-0.07
0.78
-0.01
1.73

> <PUBCHEM_SHAPE_SELFOVERLAP>
958.293

> <PUBCHEM_SHAPE_VOLUME>
227.6

> <PUBCHEM_COORDINATE_TYPE>
2
5
10

$$$$
