24905323
  -OEChem-10052115143D

 37 39  0     1  0  0  0  0  0999 V2000
    5.5029   -0.8528   -0.4052 F   0  0  0  0  0  0  0  0  0  0  0  0
    4.2167   -0.9333    2.0258 O   0  0  0  0  0  0  0  0  0  0  0  0
   -2.0558   -0.5510   -0.1847 N   0  0  0  0  0  0  0  0  0  0  0  0
   -0.8337   -1.1072   -0.2778 N   0  0  0  0  0  0  0  0  0  0  0  0
   -3.0836    1.6241    0.0895 N   0  0  0  0  0  0  0  0  0  0  0  0
   -4.4553   -3.2064    0.9223 N   0  0  0  0  0  0  0  0  0  0  0  0
   -1.4151    3.3959    0.2531 N   0  0  0  0  0  0  0  0  0  0  0  0
    0.9314    2.9719    0.1472 N   0  0  0  0  0  0  0  0  0  0  0  0
   -3.2276   -1.3916   -0.2534 C   0  0  2  0  0  0  0  0  0  0  0  0
   -2.0280    0.8032   -0.0299 C   0  0  0  0  0  0  0  0  0  0  0  0
   -0.6909    1.1593   -0.0209 C   0  0  0  0  0  0  0  0  0  0  0  0
   -0.0068   -0.0606   -0.1773 C   0  0  0  0  0  0  0  0  0  0  0  0
   -3.2424   -2.3936    0.9178 C   0  0  0  0  0  0  0  0  0  0  0  0
   -3.3257   -2.0834   -1.6195 C   0  0  0  0  0  0  0  0  0  0  0  0
    1.4186   -0.2659   -0.2347 C   0  0  0  0  0  0  0  0  0  0  0  0
   -0.3973    2.5108    0.1272 C   0  0  0  0  0  0  0  0  0  0  0  0
    2.1366   -0.5034    0.9373 C   0  0  0  0  0  0  0  0  0  0  0  0
    2.0801   -0.2274   -1.4622 C   0  0  0  0  0  0  0  0  0  0  0  0
   -2.6770    2.9046    0.2268 C   0  0  0  0  0  0  0  0  0  0  0  0
    3.5160   -0.7025    0.8820 C   0  0  0  0  0  0  0  0  0  0  0  0
    3.4595   -0.4264   -1.5177 C   0  0  0  0  0  0  0  0  0  0  0  0
    4.1775   -0.6640   -0.3455 C   0  0  0  0  0  0  0  0  0  0  0  0
   -4.1018   -0.7352   -0.1548 H   0  0  0  0  0  0  0  0  0  0  0  0
   -3.1699   -1.8549    1.8703 H   0  0  0  0  0  0  0  0  0  0  0  0
   -2.3771   -3.0645    0.8628 H   0  0  0  0  0  0  0  0  0  0  0  0
   -2.5218   -2.8148   -1.7585 H   0  0  0  0  0  0  0  0  0  0  0  0
   -4.2809   -2.6057   -1.7330 H   0  0  0  0  0  0  0  0  0  0  0  0
   -3.2515   -1.3513   -2.4317 H   0  0  0  0  0  0  0  0  0  0  0  0
   -5.2713   -2.6017    1.0074 H   0  0  0  0  0  0  0  0  0  0  0  0
   -4.4565   -3.8068    1.7457 H   0  0  0  0  0  0  0  0  0  0  0  0
    1.6235   -0.5333    1.8964 H   0  0  0  0  0  0  0  0  0  0  0  0
    1.5351   -0.0428   -2.3849 H   0  0  0  0  0  0  0  0  0  0  0  0
   -3.4675    3.6402    0.3301 H   0  0  0  0  0  0  0  0  0  0  0  0
    3.9750   -0.3959   -2.4730 H   0  0  0  0  0  0  0  0  0  0  0  0
    1.7101    2.3363    0.0556 H   0  0  0  0  0  0  0  0  0  0  0  0
    1.1004    3.9629    0.2568 H   0  0  0  0  0  0  0  0  0  0  0  0
    3.6020   -0.9255    2.7796 H   0  0  0  0  0  0  0  0  0  0  0  0
  1 22  1  0  0  0  0
  2 20  1  0  0  0  0
  2 37  1  0  0  0  0
  3  4  1  0  0  0  0
  3  9  1  0  0  0  0
  3 10  1  0  0  0  0
  4 12  2  0  0  0  0
  5 10  2  0  0  0  0
  5 19  1  0  0  0  0
  6 13  1  0  0  0  0
  6 29  1  0  0  0  0
  6 30  1  0  0  0  0
  7 16  1  0  0  0  0
  7 19  2  0  0  0  0
  8 16  1  0  0  0  0
  8 35  1  0  0  0  0
  8 36  1  0  0  0  0
  9 13  1  0  0  0  0
  9 14  1  0  0  0  0
  9 23  1  0  0  0  0
 10 11  1  0  0  0  0
 11 12  1  0  0  0  0
 11 16  2  0  0  0  0
 12 15  1  0  0  0  0
 13 24  1  0  0  0  0
 13 25  1  0  0  0  0
 14 26  1  0  0  0  0
 14 27  1  0  0  0  0
 14 28  1  0  0  0  0
 15 17  2  0  0  0  0
 15 18  1  0  0  0  0
 17 20  1  0  0  0  0
 17 31  1  0  0  0  0
 18 21  2  0  0  0  0
 18 32  1  0  0  0  0
 19 33  1  0  0  0  0
 20 22  2  0  0  0  0
 21 22  1  0  0  0  0
 21 34  1  0  0  0  0
M  END
> <PUBCHEM_COMPOUND_CID>
24905323

> <PUBCHEM_CONFORMER_RMSD>
0.6

> <PUBCHEM_CONFORMER_DIVERSEORDER>
2
14
22
19
20
7
15
8
3
17
18
23
5
13
21
6
12
16
9
4
10
24
1
11
25

> <PUBCHEM_MMFF94_PARTIAL_CHARGES>
29
1 -0.19
10 0.11
12 0.23
13 0.27
15 0.05
16 0.41
17 -0.15
18 -0.15
19 0.47
2 -0.53
20 0.08
21 -0.15
22 0.19
29 0.36
3 0.31
30 0.36
31 0.15
32 0.15
33 0.15
34 0.15
35 0.4
36 0.4
37 0.45
4 -0.71
5 -0.57
6 -0.99
7 -0.62
8 -0.9
9 0.26

> <PUBCHEM_EFFECTIVE_ROTOR_COUNT>
3

> <PUBCHEM_PHARMACOPHORE_FEATURES>
11
1 2 donor
1 4 acceptor
1 6 cation
1 6 donor
1 8 cation
1 8 donor
3 3 5 10 cation
3 5 7 19 cation
5 3 4 10 11 12 rings
6 15 17 18 20 21 22 rings
6 5 7 10 11 16 19 rings

> <PUBCHEM_HEAVY_ATOM_COUNT>
22

> <PUBCHEM_ATOM_DEF_STEREO_COUNT>
1

> <PUBCHEM_ATOM_UDEF_STEREO_COUNT>
0

> <PUBCHEM_BOND_DEF_STEREO_COUNT>
0

> <PUBCHEM_BOND_UDEF_STEREO_COUNT>
0

> <PUBCHEM_ISOTOPIC_ATOM_COUNT>
0

> <PUBCHEM_COMPONENT_COUNT>
1

> <PUBCHEM_CACTVS_TAUTO_COUNT>
15

> <PUBCHEM_CONFORMER_ID>
017C066B00000002

> <PUBCHEM_MMFF94_ENERGY>
46.1563

> <PUBCHEM_FEATURE_SELFOVERLAP>
56.101

> <PUBCHEM_SHAPE_FINGERPRINT>
10319926 262 18126543680054002170
10411042 1 18339366395702441151
10989021 7 18269558406638822093
1100329 8 18410578371015278225
11578080 2 17130973430268473705
12236239 1 17822581491030696260
12363563 72 18339361988892045663
12553582 1 18268996547470548391
12707595 3 18264486372348363815
12788726 201 18189351189150108802
12824470 246 17894627080086607067
13052359 8 18263641771624934709
13083527 12 17912903256926490469
13103583 49 17901706875009602747
13140716 1 18340773723415233473
13538477 17 18261394382389104676
13583140 156 17702363088889572082
14178342 30 18264202526591799826
14787075 74 17899700347586853084
14790565 3 18053117124566596505
15042514 8 18338245868825669825
15099037 37 18343299262605233486
15842332 3 17822582599116362902
16752209 62 18410003330217124687
16945 1 18340208466874469893
17357779 13 17916563428393732693
17492 89 18409175394115036478
1813 80 18129111180710863463
18222031 100 18200589336363322599
18927931 339 18343587317630448406
20097449 115 18339646766766626419
20905425 154 18198349639762417156
21041028 32 18267876149901374321
21065201 7 18270118998961406438
21304303 282 17758924101299161493
21452121 199 18195802088458043829
23184049 29 18411134779179366253
2334 1 18268429225540820477
23366157 5 18043532921929587916
23402539 116 18408604734710604062
23419403 2 17903596938996157404
23557571 272 18201441324777887268
23559900 14 18057044597881164270
23598288 3 18410864265270100583
2748010 2 18269826666149226421
3091708 16 8845330806990037881
312423 11 18262530281032449724
314173 85 18343021137845769611
474 4 17459210589417088772
5104073 3 18342173350383136850
6049 1 17632578228071653280
7097593 13 17755287982086666018
7471813 234 18338508763583974012
7615 1 17894634729829303052
77492 1 17822298925090009980
7970288 3 18339084920357387903
81228 2 18341616967144702873
84936 182 10883327316057822607
8863177 126 17536608657444727931
9709674 26 18057328275627621134

> <PUBCHEM_SHAPE_MULTIPOLES>
409.72
8.47
3.48
1.27
6.03
2.28
-0.03
-6.39
0.71
-5.12
0.6
0.8
-0.76
-0.04

> <PUBCHEM_SHAPE_SELFOVERLAP>
898.642

> <PUBCHEM_SHAPE_VOLUME>
222.7

> <PUBCHEM_COORDINATE_TYPE>
2
5
10

$$$$
