24769780
  -OEChem-10062122013D

 78 83  0     0  0  0  0  0  0999 V2000
   12.2688    2.6264    0.6032 F   0  0  0  0  0  0  0  0  0  0  0  0
  -10.1099    1.3993    2.2773 O   0  0  0  0  0  0  0  0  0  0  0  0
   -6.3536   -0.2457   -2.2325 O   0  0  0  0  0  0  0  0  0  0  0  0
   -4.7127    1.9643   -1.8197 O   0  0  0  0  0  0  0  0  0  0  0  0
   -1.2025    0.4161    1.5095 O   0  0  0  0  0  0  0  0  0  0  0  0
    3.9581   -2.6987   -0.0354 O   0  0  0  0  0  0  0  0  0  0  0  0
   -9.0351    0.7738   -0.2830 N   0  0  0  0  0  0  0  0  0  0  0  0
   -3.7231   -2.8007    0.8060 N   0  0  0  0  0  0  0  0  0  0  0  0
    6.0297   -1.7418   -0.5422 N   0  0  0  0  0  0  0  0  0  0  0  0
    8.1363   -0.6685   -0.9899 N   0  0  0  0  0  0  0  0  0  0  0  0
    1.8229   -0.5331   -0.3390 N   0  0  0  0  0  0  0  0  0  0  0  0
    6.3239    0.6039   -0.3237 N   0  0  0  0  0  0  0  0  0  0  0  0
   -8.6704    2.0101    0.4226 C   0  0  0  0  0  0  0  0  0  0  0  0
  -10.3881    0.3524    0.1062 C   0  0  0  0  0  0  0  0  0  0  0  0
   -8.9447    0.9563   -1.7302 C   0  0  0  0  0  0  0  0  0  0  0  0
   -8.7836    1.7985    1.9296 C   0  0  0  0  0  0  0  0  0  0  0  0
  -10.4617    0.1807    1.6209 C   0  0  0  0  0  0  0  0  0  0  0  0
   -8.7372   -0.3875   -2.4213 C   0  0  0  0  0  0  0  0  0  0  0  0
   -7.4683   -1.0754   -1.9359 C   0  0  0  0  0  0  0  0  0  0  0  0
   -5.2859   -0.3146   -1.3757 C   0  0  0  0  0  0  0  0  0  0  0  0
   -4.4696    0.7912   -1.1728 C   0  0  0  0  0  0  0  0  0  0  0  0
   -5.0216   -1.5110   -0.7044 C   0  0  0  0  0  0  0  0  0  0  0  0
   -3.1249   -0.5062    0.3765 C   0  0  0  0  0  0  0  0  0  0  0  0
   -3.9495   -1.6328    0.1753 C   0  0  0  0  0  0  0  0  0  0  0  0
   -3.3905    0.6973   -0.2986 C   0  0  0  0  0  0  0  0  0  0  0  0
   -2.0455   -0.6283    1.2619 C   0  0  0  0  0  0  0  0  0  0  0  0
   -1.8098   -1.8304    1.9133 C   0  0  0  0  0  0  0  0  0  0  0  0
   -2.6708   -2.8770    1.6526 C   0  0  0  0  0  0  0  0  0  0  0  0
    0.1366    0.2425    1.2102 C   0  0  0  0  0  0  0  0  0  0  0  0
    4.1599   -0.3533    0.1587 C   0  0  0  0  0  0  0  0  0  0  0  0
    2.7580   -0.1332    0.5518 C   0  0  0  0  0  0  0  0  0  0  0  0
   -3.8248    3.0485   -1.5528 C   0  0  0  0  0  0  0  0  0  0  0  0
    4.6862   -1.7142   -0.1485 C   0  0  0  0  0  0  0  0  0  0  0  0
    6.8161   -0.5726   -0.6116 C   0  0  0  0  0  0  0  0  0  0  0  0
    1.1274    0.6410    2.1007 C   0  0  0  0  0  0  0  0  0  0  0  0
    2.4655    0.4531    1.7728 C   0  0  0  0  0  0  0  0  0  0  0  0
    0.5332   -0.3344    0.0144 C   0  0  0  0  0  0  0  0  0  0  0  0
    5.0115    0.6753    0.0448 C   0  0  0  0  0  0  0  0  0  0  0  0
    6.6186   -3.0385   -0.8740 C   0  0  0  0  0  0  0  0  0  0  0  0
    9.1777    0.1617   -0.5885 C   0  0  0  0  0  0  0  0  0  0  0  0
   10.2585    0.3870   -1.4412 C   0  0  0  0  0  0  0  0  0  0  0  0
    9.1412    0.7693    0.6666 C   0  0  0  0  0  0  0  0  0  0  0  0
   11.3025    1.2198   -1.0389 C   0  0  0  0  0  0  0  0  0  0  0  0
   10.1853    1.6021    1.0689 C   0  0  0  0  0  0  0  0  0  0  0  0
   11.2659    1.8273    0.2162 C   0  0  0  0  0  0  0  0  0  0  0  0
   -9.3317    2.8310    0.1162 H   0  0  0  0  0  0  0  0  0  0  0  0
   -7.6391    2.2955    0.1848 H   0  0  0  0  0  0  0  0  0  0  0  0
  -10.6553   -0.6014   -0.3600 H   0  0  0  0  0  0  0  0  0  0  0  0
  -11.1265    1.1021   -0.2070 H   0  0  0  0  0  0  0  0  0  0  0  0
   -8.0953    1.6042   -1.9834 H   0  0  0  0  0  0  0  0  0  0  0  0
   -9.8335    1.4581   -2.1338 H   0  0  0  0  0  0  0  0  0  0  0  0
   -8.0690    1.0470    2.2873 H   0  0  0  0  0  0  0  0  0  0  0  0
   -8.5696    2.7350    2.4545 H   0  0  0  0  0  0  0  0  0  0  0  0
  -11.4841   -0.0736    1.9181 H   0  0  0  0  0  0  0  0  0  0  0  0
   -9.8046   -0.6257    1.9690 H   0  0  0  0  0  0  0  0  0  0  0  0
   -9.5979   -1.0497   -2.2804 H   0  0  0  0  0  0  0  0  0  0  0  0
   -8.6526   -0.2012   -3.4993 H   0  0  0  0  0  0  0  0  0  0  0  0
   -7.3500   -2.0239   -2.4729 H   0  0  0  0  0  0  0  0  0  0  0  0
   -7.5672   -1.2926   -0.8651 H   0  0  0  0  0  0  0  0  0  0  0  0
   -5.6273   -2.3984   -0.8763 H   0  0  0  0  0  0  0  0  0  0  0  0
   -2.7250    1.5324   -0.1069 H   0  0  0  0  0  0  0  0  0  0  0  0
   -0.9915   -1.9580    2.6133 H   0  0  0  0  0  0  0  0  0  0  0  0
   -2.5377   -3.8399    2.1347 H   0  0  0  0  0  0  0  0  0  0  0  0
   -3.8717    3.3599   -0.5037 H   0  0  0  0  0  0  0  0  0  0  0  0
   -2.8031    2.8236   -1.8776 H   0  0  0  0  0  0  0  0  0  0  0  0
   -4.1674    3.8992   -2.1512 H   0  0  0  0  0  0  0  0  0  0  0  0
    0.8620    1.0961    3.0506 H   0  0  0  0  0  0  0  0  0  0  0  0
    3.2406    0.7582    2.4685 H   0  0  0  0  0  0  0  0  0  0  0  0
   -0.1823   -0.6551   -0.7361 H   0  0  0  0  0  0  0  0  0  0  0  0
    4.6722    1.6880    0.2463 H   0  0  0  0  0  0  0  0  0  0  0  0
    8.4267   -1.4511   -1.5672 H   0  0  0  0  0  0  0  0  0  0  0  0
    6.8870   -3.0384   -1.9350 H   0  0  0  0  0  0  0  0  0  0  0  0
    5.9305   -3.8653   -0.6820 H   0  0  0  0  0  0  0  0  0  0  0  0
    7.5259   -3.1850   -0.2798 H   0  0  0  0  0  0  0  0  0  0  0  0
   10.2981   -0.0800   -2.4221 H   0  0  0  0  0  0  0  0  0  0  0  0
    8.3290    0.5927    1.3664 H   0  0  0  0  0  0  0  0  0  0  0  0
   12.1440    1.3956   -1.7025 H   0  0  0  0  0  0  0  0  0  0  0  0
   10.1606    2.0703    2.0485 H   0  0  0  0  0  0  0  0  0  0  0  0
  1 45  1  0  0  0  0
  2 16  1  0  0  0  0
  2 17  1  0  0  0  0
  3 19  1  0  0  0  0
  3 20  1  0  0  0  0
  4 21  1  0  0  0  0
  4 32  1  0  0  0  0
  5 26  1  0  0  0  0
  5 29  1  0  0  0  0
  6 33  2  0  0  0  0
  7 13  1  0  0  0  0
  7 14  1  0  0  0  0
  7 15  1  0  0  0  0
  8 24  2  0  0  0  0
  8 28  1  0  0  0  0
  9 33  1  0  0  0  0
  9 34  1  0  0  0  0
  9 39  1  0  0  0  0
 10 34  1  0  0  0  0
 10 40  1  0  0  0  0
 10 71  1  0  0  0  0
 11 31  2  0  0  0  0
 11 37  1  0  0  0  0
 12 34  2  0  0  0  0
 12 38  1  0  0  0  0
 13 16  1  0  0  0  0
 13 46  1  0  0  0  0
 13 47  1  0  0  0  0
 14 17  1  0  0  0  0
 14 48  1  0  0  0  0
 14 49  1  0  0  0  0
 15 18  1  0  0  0  0
 15 50  1  0  0  0  0
 15 51  1  0  0  0  0
 16 52  1  0  0  0  0
 16 53  1  0  0  0  0
 17 54  1  0  0  0  0
 17 55  1  0  0  0  0
 18 19  1  0  0  0  0
 18 56  1  0  0  0  0
 18 57  1  0  0  0  0
 19 58  1  0  0  0  0
 19 59  1  0  0  0  0
 20 21  1  0  0  0  0
 20 22  2  0  0  0  0
 21 25  2  0  0  0  0
 22 24  1  0  0  0  0
 22 60  1  0  0  0  0
 23 24  1  0  0  0  0
 23 25  1  0  0  0  0
 23 26  2  0  0  0  0
 25 61  1  0  0  0  0
 26 27  1  0  0  0  0
 27 28  2  0  0  0  0
 27 62  1  0  0  0  0
 28 63  1  0  0  0  0
 29 35  1  0  0  0  0
 29 37  2  0  0  0  0
 30 31  1  0  0  0  0
 30 33  1  0  0  0  0
 30 38  2  0  0  0  0
 31 36  1  0  0  0  0
 32 64  1  0  0  0  0
 32 65  1  0  0  0  0
 32 66  1  0  0  0  0
 35 36  2  0  0  0  0
 35 67  1  0  0  0  0
 36 68  1  0  0  0  0
 37 69  1  0  0  0  0
 38 70  1  0  0  0  0
 39 72  1  0  0  0  0
 39 73  1  0  0  0  0
 39 74  1  0  0  0  0
 40 41  2  0  0  0  0
 40 42  1  0  0  0  0
 41 43  1  0  0  0  0
 41 75  1  0  0  0  0
 42 44  2  0  0  0  0
 42 76  1  0  0  0  0
 43 45  2  0  0  0  0
 43 77  1  0  0  0  0
 44 45  1  0  0  0  0
 44 78  1  0  0  0  0
M  END
> <PUBCHEM_COMPOUND_CID>
24769780

> <PUBCHEM_CONFORMER_RMSD>
1.4

> <PUBCHEM_CONFORMER_DIVERSEORDER>
10
61
83
84
32
80
17
35
78
99
48
15
72
85
55
54
51
9
23
82
19
93
50
71
22
95
33
53
30
89
77
41
62
57
90
43
69
38
94
70
58
20
26
14
68
86
47
28
91
74
67
79
81
31
2
46
73
59
97
64
65
76
21
49
63
60
29
42
56
92
52
96
34
75
40
24
11
5
98
13
12
66
88
25
7
3
45
36
1
27
87
44
18
4
37
8
16
39
6

> <PUBCHEM_MMFF94_PARTIAL_CHARGES>
56
1 -0.19
10 -0.55
11 -0.62
12 -0.62
13 0.27
14 0.27
15 0.27
16 0.28
17 0.28
19 0.28
2 -0.56
20 0.08
21 0.08
22 -0.15
24 0.31
25 -0.15
26 0.08
27 -0.15
28 0.16
29 0.08
3 -0.36
30 -0.01
31 0.34
32 0.28
33 0.62
34 0.56
35 -0.15
36 -0.15
37 0.16
38 0.02
39 0.3
4 -0.36
40 0.1
41 -0.15
42 -0.15
43 -0.15
44 -0.15
45 0.19
5 -0.17
6 -0.57
60 0.15
61 0.15
62 0.15
63 0.15
67 0.15
68 0.15
69 0.15
7 -0.81
70 0.15
71 0.4
75 0.15
76 0.15
77 0.15
78 0.15
8 -0.62
9 -0.42

> <PUBCHEM_EFFECTIVE_ROTOR_COUNT>
12.2

> <PUBCHEM_PHARMACOPHORE_FEATURES>
15
1 10 donor
1 11 acceptor
1 2 acceptor
1 3 acceptor
1 4 acceptor
1 5 acceptor
1 6 acceptor
1 7 cation
1 8 acceptor
6 11 29 31 35 36 37 rings
6 2 7 13 14 16 17 rings
6 20 21 22 23 24 25 rings
6 40 41 42 43 44 45 rings
6 8 23 24 26 27 28 rings
6 9 12 30 33 34 38 rings

> <PUBCHEM_HEAVY_ATOM_COUNT>
45

> <PUBCHEM_ATOM_DEF_STEREO_COUNT>
0

> <PUBCHEM_ATOM_UDEF_STEREO_COUNT>
0

> <PUBCHEM_BOND_DEF_STEREO_COUNT>
0

> <PUBCHEM_BOND_UDEF_STEREO_COUNT>
0

> <PUBCHEM_ISOTOPIC_ATOM_COUNT>
0

> <PUBCHEM_COMPONENT_COUNT>
1

> <PUBCHEM_CACTVS_TAUTO_COUNT>
4

> <PUBCHEM_CONFORMER_ID>
0179F4F40000000A

> <PUBCHEM_MMFF94_ENERGY>
160.9889

> <PUBCHEM_FEATURE_SELFOVERLAP>
76.166

> <PUBCHEM_SHAPE_FINGERPRINT>
10049733 35 17275106136967290312
10533779 47 11530751593391669572
10674148 151 18273496771880657113
10677351 14 16774079579306067408
11828042 206 17632573863984929296
12144603 126 17703792504806322962
12559415 135 16917067716545418595
12664476 115 17022906760936812221
13740195 50 14707213231871971061
13947947 74 18412544331579755458
14279260 333 12967134883872754803
150020 25 18411982482282205868
15392192 29 18341614837315561029
20156587 128 17775008960271118518
3525247 94 13984378872691695336
4339292 15 11455894658731443962
4874694 18 18187079564601042714
5028188 123 18412257347288469759
5381727 24 13118001101952315689
54039377 194 15697996374753049037
59398613 412 12901811806343836056

> <PUBCHEM_SHAPE_MULTIPOLES>
859.57
46.86
2.58
2.09
50.71
0.74
-0.05
-26.43
6.23
0.8
-0.1
-4.78
-0.25
0.91

> <PUBCHEM_SHAPE_SELFOVERLAP>
1880.338

> <PUBCHEM_SHAPE_VOLUME>
466.9

> <PUBCHEM_COORDINATE_TYPE>
2
5
10

$$$$
