948954
  -OEChem-10062122033D

 34 36  0     0  0  0  0  0  0999 V2000
   -2.2837    1.1806    0.4245 N   0  0  0  0  0  0  0  0  0  0  0  0
    2.4121    1.1960   -0.1213 N   0  0  0  0  0  0  0  0  0  0  0  0
    0.0819    1.1664    0.1520 N   0  0  0  0  0  0  0  0  0  0  0  0
    1.2540    3.2325   -0.2539 N   0  0  0  0  0  0  0  0  0  0  0  0
   -2.7124   -0.1280    0.1192 C   0  0  0  0  0  0  0  0  0  0  0  0
   -1.0753    1.8664    0.1945 C   0  0  0  0  0  0  0  0  0  0  0  0
    2.7329   -0.1671    0.0191 C   0  0  0  0  0  0  0  0  0  0  0  0
    1.1889    1.8997   -0.0720 C   0  0  0  0  0  0  0  0  0  0  0  0
   -3.9948   -0.5430    0.4780 C   0  0  0  0  0  0  0  0  0  0  0  0
   -1.8545   -1.0067   -0.5421 C   0  0  0  0  0  0  0  0  0  0  0  0
   -1.1369    3.2380    0.0227 C   0  0  0  0  0  0  0  0  0  0  0  0
    3.8352   -0.6999   -0.6525 C   0  0  0  0  0  0  0  0  0  0  0  0
    1.9506   -0.9910    0.8309 C   0  0  0  0  0  0  0  0  0  0  0  0
   -4.4193   -1.8369    0.1755 C   0  0  0  0  0  0  0  0  0  0  0  0
   -2.2791   -2.3004   -0.8448 C   0  0  0  0  0  0  0  0  0  0  0  0
    0.0678    3.8730   -0.2002 C   0  0  0  0  0  0  0  0  0  0  0  0
    4.1538   -2.0507   -0.5129 C   0  0  0  0  0  0  0  0  0  0  0  0
    2.2693   -2.3418    0.9707 C   0  0  0  0  0  0  0  0  0  0  0  0
   -3.5614   -2.7155   -0.4859 C   0  0  0  0  0  0  0  0  0  0  0  0
    3.3709   -2.8715    0.2986 C   0  0  0  0  0  0  0  0  0  0  0  0
   -2.9853    1.7409    0.9007 H   0  0  0  0  0  0  0  0  0  0  0  0
    3.1844    1.7807   -0.4263 H   0  0  0  0  0  0  0  0  0  0  0  0
   -4.6740    0.1312    0.9935 H   0  0  0  0  0  0  0  0  0  0  0  0
   -0.8604   -0.7306   -0.8712 H   0  0  0  0  0  0  0  0  0  0  0  0
   -2.0663    3.7931    0.0568 H   0  0  0  0  0  0  0  0  0  0  0  0
    4.4533   -0.0713   -1.2887 H   0  0  0  0  0  0  0  0  0  0  0  0
    1.1118   -0.6135    1.4062 H   0  0  0  0  0  0  0  0  0  0  0  0
   -5.4179   -2.1601    0.4545 H   0  0  0  0  0  0  0  0  0  0  0  0
   -1.6138   -2.9831   -1.3657 H   0  0  0  0  0  0  0  0  0  0  0  0
    0.1139    4.9468   -0.3462 H   0  0  0  0  0  0  0  0  0  0  0  0
    5.0118   -2.4634   -1.0357 H   0  0  0  0  0  0  0  0  0  0  0  0
    1.6656   -2.9793    1.6101 H   0  0  0  0  0  0  0  0  0  0  0  0
   -3.8924   -3.7224   -0.7229 H   0  0  0  0  0  0  0  0  0  0  0  0
    3.6202   -3.9229    0.4092 H   0  0  0  0  0  0  0  0  0  0  0  0
  1  5  1  0  0  0  0
  1  6  1  0  0  0  0
  1 21  1  0  0  0  0
  2  7  1  0  0  0  0
  2  8  1  0  0  0  0
  2 22  1  0  0  0  0
  3  6  2  0  0  0  0
  3  8  1  0  0  0  0
  4  8  2  0  0  0  0
  4 16  1  0  0  0  0
  5  9  2  0  0  0  0
  5 10  1  0  0  0  0
  6 11  1  0  0  0  0
  7 12  2  0  0  0  0
  7 13  1  0  0  0  0
  9 14  1  0  0  0  0
  9 23  1  0  0  0  0
 10 15  2  0  0  0  0
 10 24  1  0  0  0  0
 11 16  2  0  0  0  0
 11 25  1  0  0  0  0
 12 17  1  0  0  0  0
 12 26  1  0  0  0  0
 13 18  2  0  0  0  0
 13 27  1  0  0  0  0
 14 19  2  0  0  0  0
 14 28  1  0  0  0  0
 15 19  1  0  0  0  0
 15 29  1  0  0  0  0
 16 30  1  0  0  0  0
 17 20  2  0  0  0  0
 17 31  1  0  0  0  0
 18 20  1  0  0  0  0
 18 32  1  0  0  0  0
 19 33  1  0  0  0  0
 20 34  1  0  0  0  0
M  END
> <PUBCHEM_COMPOUND_CID>
948954

> <PUBCHEM_CONFORMER_RMSD>
0.6

> <PUBCHEM_CONFORMER_DIVERSEORDER>
1
16
46
20
68
12
67
4
51
37
72
32
24
27
2
52
10
25
43
48
59
71
75
3
38
39
22
23
15
45
29
76
61
40
44
53
47
18
49
36
28
70
55
42
54
41
30
63
64
26
65
74
73
31
17
19
62
56
21
57
60
66
69
14
58
50
33
13
9
6
34
11
7
8
5
35

> <PUBCHEM_MMFF94_PARTIAL_CHARGES>
34
1 -0.6
10 -0.15
11 -0.15
12 -0.15
13 -0.15
14 -0.15
15 -0.15
16 0.16
17 -0.15
18 -0.15
19 -0.15
2 -0.6
20 -0.15
21 0.4
22 0.4
23 0.15
24 0.15
25 0.15
26 0.15
27 0.15
28 0.15
29 0.15
3 -0.62
30 0.15
31 0.15
32 0.15
33 0.15
34 0.15
4 -0.62
5 0.1
6 0.41
7 0.1
8 0.72
9 -0.15

> <PUBCHEM_EFFECTIVE_ROTOR_COUNT>
4

> <PUBCHEM_PHARMACOPHORE_FEATURES>
6
1 1 donor
1 2 donor
4 2 3 4 8 cation
6 3 4 6 8 11 16 rings
6 5 9 10 14 15 19 rings
6 7 12 13 17 18 20 rings

> <PUBCHEM_HEAVY_ATOM_COUNT>
20

> <PUBCHEM_ATOM_DEF_STEREO_COUNT>
0

> <PUBCHEM_ATOM_UDEF_STEREO_COUNT>
0

> <PUBCHEM_BOND_DEF_STEREO_COUNT>
0

> <PUBCHEM_BOND_UDEF_STEREO_COUNT>
0

> <PUBCHEM_ISOTOPIC_ATOM_COUNT>
0

> <PUBCHEM_COMPONENT_COUNT>
1

> <PUBCHEM_CACTVS_TAUTO_COUNT>
9

> <PUBCHEM_CONFORMER_ID>
000E7ADA00000001

> <PUBCHEM_MMFF94_ENERGY>
78.0473

> <PUBCHEM_FEATURE_SELFOVERLAP>
30.446

> <PUBCHEM_SHAPE_FINGERPRINT>
10616163 171 18050290271707399230
12107183 9 18341910575994622307
12403259 327 14979963596274177279
12553582 1 18410288107870633635
12788726 201 18117561729972912706
12990986 174 18265889160401881042
13533116 47 18053382391037767247
13785724 45 18269575900405252239
138480 1 14807975324440256509
14178342 30 17624117704896643193
14767858 380 18189354501439741564
14790565 3 17762906459137556961
14863182 85 18048599514871340332
14866123 147 18052821339084740473
15042514 8 18122348977904207233
15352361 1 18411136930836642734
16752209 62 17979337677948596165
17818456 19 17988658389106078361
19930381 70 17977102684632616883
20291156 8 18411136930841833019
20645477 70 17975120248251176263
21634736 98 18334583395704460718
2255824 54 17904481049487303325
23184049 29 18339357474796709668
23379529 103 18055928601900582510
23728640 28 17761204419247065096
238 59 17758677041568274227
3091708 16 9282167880047918073
3117164 225 18265917889997339323
314173 41 18338240465424800951
3421961 26 18339924938718489713
59682541 52 17837455865284958303
6443956 14 18336263560676797549
7097593 13 18270120261496830831
9709674 26 18119810463528348203

> <PUBCHEM_SHAPE_MULTIPOLES>
391.67
7.82
4.82
0.82
0.49
3.57
-0.02
-8.25
0.27
0.05
0.32
-0.12
-0.33
-0.7

> <PUBCHEM_SHAPE_SELFOVERLAP>
850.442

> <PUBCHEM_SHAPE_VOLUME>
206.7

> <PUBCHEM_COORDINATE_TYPE>
2
5
10

$$$$
