23295827
  -OEChem-10062121543D

 42 44  0     0  0  0  0  0  0999 V2000
    1.9058    3.7431    0.0004 O   0  0  0  0  0  0  0  0  0  0  0  0
    5.2337   -0.3653    0.0008 O   0  0  0  0  0  0  0  0  0  0  0  0
    4.0929   -2.3538   -0.0018 O   0  0  0  0  0  0  0  0  0  0  0  0
   -5.3508    1.2389   -1.0966 O   0  5  0  0  0  0  0  0  0  0  0  0
   -5.3488    1.2390    1.0986 O   0  0  0  0  0  0  0  0  0  0  0  0
   -2.2421   -3.3596    0.0037 O   0  0  0  0  0  0  0  0  0  0  0  0
    0.7910    0.3150   -0.0010 N   0  0  0  0  0  0  0  0  0  0  0  0
   -0.2290    2.8861    0.0003 N   0  0  0  0  0  0  0  0  0  0  0  0
    2.8965    1.0463    0.0008 N   0  0  0  0  0  0  0  0  0  0  0  0
   -3.7065   -1.5132   -0.0003 N   0  0  0  0  0  0  0  0  0  0  0  0
   -4.7544    1.1361    0.0005 N   0  3  0  0  0  0  0  0  0  0  0  0
   -0.6057    0.4602   -0.0011 C   0  0  0  0  0  0  0  0  0  0  0  0
   -1.1052    1.7743   -0.0003 C   0  0  0  0  0  0  0  0  0  0  0  0
    1.5778   -0.8040   -0.0014 C   0  0  0  0  0  0  0  0  0  0  0  0
    1.6311    1.4043   -0.0001 C   0  0  0  0  0  0  0  0  0  0  0  0
   -1.4684   -0.6350   -0.0017 C   0  0  0  0  0  0  0  0  0  0  0  0
    2.8698   -0.3258   -0.0004 C   0  0  0  0  0  0  0  0  0  0  0  0
    1.1594    2.7668    0.0004 C   0  0  0  0  0  0  0  0  0  0  0  0
   -2.4838    1.9873   -0.0003 C   0  0  0  0  0  0  0  0  0  0  0  0
   -2.8460   -0.4098   -0.0014 C   0  0  0  0  0  0  0  0  0  0  0  0
   -3.3514    0.8934   -0.0008 C   0  0  0  0  0  0  0  0  0  0  0  0
    1.1346   -2.2111   -0.0037 C   0  0  0  0  0  0  0  0  0  0  0  0
    4.0690   -1.1091   -0.0007 C   0  0  0  0  0  0  0  0  0  0  0  0
   -3.3669   -2.8701    0.0006 C   0  0  0  0  0  0  0  0  0  0  0  0
    6.4711   -1.0862    0.0010 C   0  0  0  0  0  0  0  0  0  0  0  0
   -4.5918   -3.7499    0.0016 C   0  0  0  0  0  0  0  0  0  0  0  0
    7.6177   -0.0978    0.0027 C   0  0  0  0  0  0  0  0  0  0  0  0
   -1.0859   -1.6258   -0.0026 H   0  0  0  0  0  0  0  0  0  0  0  0
   -0.6387    3.8158    0.0007 H   0  0  0  0  0  0  0  0  0  0  0  0
   -2.8790    3.0009    0.0004 H   0  0  0  0  0  0  0  0  0  0  0  0
    0.5600   -2.4437    0.8988 H   0  0  0  0  0  0  0  0  0  0  0  0
    0.5595   -2.4406   -0.9066 H   0  0  0  0  0  0  0  0  0  0  0  0
    1.9499   -2.9339   -0.0052 H   0  0  0  0  0  0  0  0  0  0  0  0
   -4.7013   -1.3019   -0.0003 H   0  0  0  0  0  0  0  0  0  0  0  0
    6.5235   -1.7175    0.8947 H   0  0  0  0  0  0  0  0  0  0  0  0
    6.5247   -1.7159   -0.8937 H   0  0  0  0  0  0  0  0  0  0  0  0
   -5.2023   -3.5373   -0.8806 H   0  0  0  0  0  0  0  0  0  0  0  0
   -5.1787   -3.5655    0.9058 H   0  0  0  0  0  0  0  0  0  0  0  0
   -4.2927   -4.8015   -0.0198 H   0  0  0  0  0  0  0  0  0  0  0  0
    8.5808   -0.6158    0.0029 H   0  0  0  0  0  0  0  0  0  0  0  0
    7.5652    0.5517    0.8827 H   0  0  0  0  0  0  0  0  0  0  0  0
    7.5664    0.5533   -0.8763 H   0  0  0  0  0  0  0  0  0  0  0  0
  1 18  2  0  0  0  0
  2 23  1  0  0  0  0
  2 25  1  0  0  0  0
  3 23  2  0  0  0  0
  4 11  1  0  0  0  0
  5 11  2  0  0  0  0
  6 24  2  0  0  0  0
  7 12  1  0  0  0  0
  7 14  1  0  0  0  0
  7 15  1  0  0  0  0
  8 13  1  0  0  0  0
  8 18  1  0  0  0  0
  8 29  1  0  0  0  0
  9 15  2  0  0  0  0
  9 17  1  0  0  0  0
 10 20  1  0  0  0  0
 10 24  1  0  0  0  0
 10 34  1  0  0  0  0
 11 21  1  0  0  0  0
 12 13  1  0  0  0  0
 12 16  2  0  0  0  0
 13 19  2  0  0  0  0
 14 17  2  0  0  0  0
 14 22  1  0  0  0  0
 15 18  1  0  0  0  0
 16 20  1  0  0  0  0
 16 28  1  0  0  0  0
 17 23  1  0  0  0  0
 19 21  1  0  0  0  0
 19 30  1  0  0  0  0
 20 21  2  0  0  0  0
 22 31  1  0  0  0  0
 22 32  1  0  0  0  0
 22 33  1  0  0  0  0
 24 26  1  0  0  0  0
 25 27  1  0  0  0  0
 25 35  1  0  0  0  0
 25 36  1  0  0  0  0
 26 37  1  0  0  0  0
 26 38  1  0  0  0  0
 26 39  1  0  0  0  0
 27 40  1  0  0  0  0
 27 41  1  0  0  0  0
 27 42  1  0  0  0  0
M  CHG  2   4  -1  11   1
M  END
> <PUBCHEM_COMPOUND_CID>
23295827

> <PUBCHEM_CONFORMER_RMSD>
0.8

> <PUBCHEM_CONFORMER_DIVERSEORDER>
1
5
8
7
10
6
4
2
9
3

> <PUBCHEM_MMFF94_PARTIAL_CHARGES>
30
1 -0.57
10 -0.55
11 0.91
12 -0.02
13 0.12
14 -0.33
15 0.1
16 -0.15
17 0.14
18 0.71
19 -0.15
2 -0.43
20 0.12
21 0.13
22 0.18
23 0.81
24 0.57
25 0.28
26 0.06
28 0.15
29 0.37
3 -0.57
30 0.15
34 0.37
4 -0.52
5 -0.52
6 -0.57
7 0.33
8 -0.55
9 -0.57

> <PUBCHEM_EFFECTIVE_ROTOR_COUNT>
6

> <PUBCHEM_PHARMACOPHORE_FEATURES>
12
1 1 acceptor
1 10 donor
1 3 acceptor
1 4 acceptor
1 4 anion
1 5 acceptor
1 6 acceptor
1 8 donor
3 7 9 15 cation
5 7 9 14 15 17 rings
6 12 13 16 19 20 21 rings
6 7 8 12 13 15 18 rings

> <PUBCHEM_HEAVY_ATOM_COUNT>
27

> <PUBCHEM_ATOM_DEF_STEREO_COUNT>
0

> <PUBCHEM_ATOM_UDEF_STEREO_COUNT>
0

> <PUBCHEM_BOND_DEF_STEREO_COUNT>
0

> <PUBCHEM_BOND_UDEF_STEREO_COUNT>
0

> <PUBCHEM_ISOTOPIC_ATOM_COUNT>
0

> <PUBCHEM_COMPONENT_COUNT>
1

> <PUBCHEM_CACTVS_TAUTO_COUNT>
5

> <PUBCHEM_CONFORMER_ID>
0163775300000001

> <PUBCHEM_MMFF94_ENERGY>
77.3319

> <PUBCHEM_FEATURE_SELFOVERLAP>
61.125

> <PUBCHEM_SHAPE_FINGERPRINT>
10050765 1 18266458891966289613
10411042 1 18338517572330250086
10616163 171 18411983580918803087
10622 236 16982074404334435967
10675989 125 16965471280322072213
10906281 52 18270416983169819780
10967382 1 18338516322794940613
1100329 8 18411140234114698081
11227688 84 17402616740748405238
11578080 2 17416673847180752073
12107183 9 18341345431107288355
12553582 1 18337096861588579963
12555020 224 18410282598255339581
12633257 1 18412551989912261865
12788726 201 18116711812054169232
12838862 33 18265315253596503725
13140716 1 18341896337434698225
14790565 3 17619634583484260832
14866123 147 18410860997370492899
15196674 1 18410855511873660068
15927050 60 17765434632339703004
16087824 20 18337671889929859437
17492 89 18122061163777664467
19141452 34 18411703166903963857
19319366 153 17822578196379999698
21133410 171 17402836505614544154
21236236 1 18411419535548261138
21267235 1 18338524049056335096
22122407 14 15769772463797014290
221490 88 18264774431192901963
22311459 1 18410856512443050820
23402539 116 18411415107800612198
23559900 14 18340760516042606136
23622692 118 18269832176544788039
3178227 256 18263941964364676985
335352 9 18410572873319651669
34934 24 18336824178347036363
350125 39 18266744760625628015
4616759 239 17987787524188506714
484989 97 18336258055483681663
5104073 3 18343018942779573248
5486654 2 18410015404129368318
5486654 36 18335709381326208643
59755656 215 18339644417710107998
9709674 26 18191306189912640131

> <PUBCHEM_SHAPE_MULTIPOLES>
495.53
13.33
4.02
0.65
14.98
0.81
0
5.45
-0.01
-3.51
0
-0.36
-0.08
0

> <PUBCHEM_SHAPE_SELFOVERLAP>
1079.811

> <PUBCHEM_SHAPE_VOLUME>
270.2

> <PUBCHEM_COORDINATE_TYPE>
2
5
10

$$$$
