5330389
  -OEChem-10052115173D

 47 49  0     0  0  0  0  0  0999 V2000
   -1.4420    3.1487   -0.2086 Cl  0  0  0  0  0  0  0  0  0  0  0  0
   -4.7217    1.4444    0.5364 N   0  0  0  0  0  0  0  0  0  0  0  0
   -3.0257   -1.7190   -0.4169 N   0  0  0  0  0  0  0  0  0  0  0  0
   -0.6384   -4.4495   -1.0989 N   0  0  0  0  0  0  0  0  0  0  0  0
    1.9284   -0.6541    0.1133 N   0  0  0  0  0  0  0  0  0  0  0  0
    3.2966    1.2797    0.4079 N   0  0  0  0  0  0  0  0  0  0  0  0
    4.0215   -2.2258    1.1208 N   0  0  0  0  0  0  0  0  0  0  0  0
   -4.5860    0.0893    0.0034 C   0  0  0  0  0  0  0  0  0  0  0  0
   -3.1363   -0.3711    0.0876 C   0  0  0  0  0  0  0  0  0  0  0  0
   -1.8295   -2.4139   -0.4990 C   0  0  0  0  0  0  0  0  0  0  0  0
   -0.6185   -1.8432   -0.0888 C   0  0  0  0  0  0  0  0  0  0  0  0
    0.5665   -2.5648   -0.1821 C   0  0  0  0  0  0  0  0  0  0  0  0
   -6.1091    1.8961    0.4377 C   0  0  0  0  0  0  0  0  0  0  0  0
   -4.2650    1.4955    1.9248 C   0  0  0  0  0  0  0  0  0  0  0  0
    1.8236   -1.9907    0.2367 C   0  0  0  0  0  0  0  0  0  0  0  0
   -1.7701   -3.7174   -0.9933 C   0  0  0  0  0  0  0  0  0  0  0  0
    0.5034   -3.8525   -0.6894 C   0  0  0  0  0  0  0  0  0  0  0  0
    3.1010   -0.1160    0.5030 C   0  0  0  0  0  0  0  0  0  0  0  0
    2.8489   -2.7639    0.7309 C   0  0  0  0  0  0  0  0  0  0  0  0
    2.4722    2.3279   -0.0406 C   0  0  0  0  0  0  0  0  0  0  0  0
    4.1291   -0.8879    0.9980 C   0  0  0  0  0  0  0  0  0  0  0  0
    1.0844    2.2309    0.0824 C   0  0  0  0  0  0  0  0  0  0  0  0
    3.0392    3.4694   -0.6117 C   0  0  0  0  0  0  0  0  0  0  0  0
    0.2677    3.2702   -0.3632 C   0  0  0  0  0  0  0  0  0  0  0  0
    2.2227    4.5087   -1.0574 C   0  0  0  0  0  0  0  0  0  0  0  0
    0.8369    4.4091   -0.9330 C   0  0  0  0  0  0  0  0  0  0  0  0
   -4.9016    0.0726   -1.0480 H   0  0  0  0  0  0  0  0  0  0  0  0
   -5.2359   -0.6150    0.5409 H   0  0  0  0  0  0  0  0  0  0  0  0
   -2.7775   -0.3813    1.1207 H   0  0  0  0  0  0  0  0  0  0  0  0
   -2.5045    0.3024   -0.5022 H   0  0  0  0  0  0  0  0  0  0  0  0
   -3.8645   -2.1957   -0.7302 H   0  0  0  0  0  0  0  0  0  0  0  0
   -0.6017   -0.8352    0.3172 H   0  0  0  0  0  0  0  0  0  0  0  0
   -6.2027    2.9324    0.7812 H   0  0  0  0  0  0  0  0  0  0  0  0
   -6.7906    1.2734    1.0286 H   0  0  0  0  0  0  0  0  0  0  0  0
   -6.4455    1.8823   -0.6051 H   0  0  0  0  0  0  0  0  0  0  0  0
   -3.1753    1.4392    2.0037 H   0  0  0  0  0  0  0  0  0  0  0  0
   -4.7164    0.7129    2.5456 H   0  0  0  0  0  0  0  0  0  0  0  0
   -4.5246    2.4621    2.3744 H   0  0  0  0  0  0  0  0  0  0  0  0
   -2.6680   -4.2275   -1.3308 H   0  0  0  0  0  0  0  0  0  0  0  0
    1.3821   -4.4773   -0.8165 H   0  0  0  0  0  0  0  0  0  0  0  0
    2.7866   -3.8378    0.8608 H   0  0  0  0  0  0  0  0  0  0  0  0
    4.2791    1.5409    0.4459 H   0  0  0  0  0  0  0  0  0  0  0  0
    5.0765   -0.4682    1.3165 H   0  0  0  0  0  0  0  0  0  0  0  0
    0.6189    1.3727    0.5571 H   0  0  0  0  0  0  0  0  0  0  0  0
    4.1175    3.5606   -0.7159 H   0  0  0  0  0  0  0  0  0  0  0  0
    2.6658    5.3953   -1.5014 H   0  0  0  0  0  0  0  0  0  0  0  0
    0.2130    5.2268   -1.2845 H   0  0  0  0  0  0  0  0  0  0  0  0
  1 24  1  0  0  0  0
  2  8  1  0  0  0  0
  2 13  1  0  0  0  0
  2 14  1  0  0  0  0
  3  9  1  0  0  0  0
  3 10  1  0  0  0  0
  3 31  1  0  0  0  0
  4 16  1  0  0  0  0
  4 17  2  0  0  0  0
  5 15  1  0  0  0  0
  5 18  2  0  0  0  0
  6 18  1  0  0  0  0
  6 20  1  0  0  0  0
  6 42  1  0  0  0  0
  7 19  1  0  0  0  0
  7 21  2  0  0  0  0
  8  9  1  0  0  0  0
  8 27  1  0  0  0  0
  8 28  1  0  0  0  0
  9 29  1  0  0  0  0
  9 30  1  0  0  0  0
 10 11  1  0  0  0  0
 10 16  2  0  0  0  0
 11 12  2  0  0  0  0
 11 32  1  0  0  0  0
 12 15  1  0  0  0  0
 12 17  1  0  0  0  0
 13 33  1  0  0  0  0
 13 34  1  0  0  0  0
 13 35  1  0  0  0  0
 14 36  1  0  0  0  0
 14 37  1  0  0  0  0
 14 38  1  0  0  0  0
 15 19  2  0  0  0  0
 16 39  1  0  0  0  0
 17 40  1  0  0  0  0
 18 21  1  0  0  0  0
 19 41  1  0  0  0  0
 20 22  2  0  0  0  0
 20 23  1  0  0  0  0
 21 43  1  0  0  0  0
 22 24  1  0  0  0  0
 22 44  1  0  0  0  0
 23 25  2  0  0  0  0
 23 45  1  0  0  0  0
 24 26  2  0  0  0  0
 25 26  1  0  0  0  0
 25 46  1  0  0  0  0
 26 47  1  0  0  0  0
M  END
> <PUBCHEM_COMPOUND_CID>
5330389

> <PUBCHEM_CONFORMER_RMSD>
1

> <PUBCHEM_CONFORMER_DIVERSEORDER>
1
233
177
180
151
97
208
49
213
297
198
92
64
28
258
199
182
158
61
95
7
225
293
304
126
161
127
18
249
257
150
165
100
147
235
55
303
205
109
68
212
24
21
13
31
128
56
155
197
294
5
243
252
27
37
15
8
89
295
36
242
78
302
187
50
134
80
184
289
176
230
122
181
274
110
117
47
33
229
83
76
2
114
112
69
251
237
247
14
59
9
234
178
201
153
152
45
164
262
125
22
175
214
10
101
63
40
108
88
238
263
185
224
159
227
271
216
139
93
266
256
70
132
131
12
189
228
135
91
296
260
186
16
275
261
246
279
11
145
311
143
211
141
67
39
74
305
104
26
81
170
272
202
146
82
193
116
281
79
231
307
94
290
160
57
276
219
285
43
129
168
215
232
166
299
298
280
309
172
120
156
259
195
192
267
102
51
240
3
283
162
54
200
167
73
203
48
286
58
72
190
291
75
111
119
65
204
90
77
239
220
277
44
84
38
287
223
98
196
264
60
35
86
265
207
157
209
34
123
206
210
278
301
174
248
17
144
62
96
71
105
217
171
30
148
194
113
29
288
308
136
221
103
268
87
300
19
106
138
52
118
250
273
32
23
306
20
244
310
53
169
133
218
154
163
292
115
188
269
173
46
179
107
137
245
284
130
66
255
222
149
254
236
4
183
253
226
191
241
270
99
124
25
282
142
85
140
121
42
41
6

> <PUBCHEM_MMFF94_PARTIAL_CHARGES>
36
1 -0.18
10 0.1
11 -0.15
13 0.27
14 0.27
15 0.31
16 0.16
17 0.16
18 0.41
19 0.16
2 -0.81
20 0.1
21 0.16
22 -0.15
23 -0.15
24 0.18
25 -0.15
26 -0.15
3 -0.87
31 0.4
32 0.15
39 0.15
4 -0.62
40 0.15
41 0.15
42 0.4
43 0.15
44 0.15
45 0.15
46 0.15
47 0.15
5 -0.62
6 -0.6
7 -0.62
8 0.27
9 0.37

> <PUBCHEM_EFFECTIVE_ROTOR_COUNT>
7

> <PUBCHEM_PHARMACOPHORE_FEATURES>
10
1 2 cation
1 3 cation
1 3 donor
1 4 acceptor
1 6 donor
1 7 acceptor
3 5 6 18 cation
6 20 22 23 24 25 26 rings
6 4 10 11 12 16 17 rings
6 5 7 15 18 19 21 rings

> <PUBCHEM_HEAVY_ATOM_COUNT>
26

> <PUBCHEM_ATOM_DEF_STEREO_COUNT>
0

> <PUBCHEM_ATOM_UDEF_STEREO_COUNT>
0

> <PUBCHEM_BOND_DEF_STEREO_COUNT>
0

> <PUBCHEM_BOND_UDEF_STEREO_COUNT>
0

> <PUBCHEM_ISOTOPIC_ATOM_COUNT>
0

> <PUBCHEM_COMPONENT_COUNT>
1

> <PUBCHEM_CACTVS_TAUTO_COUNT>
2

> <PUBCHEM_CONFORMER_ID>
005155D500000001

> <PUBCHEM_MMFF94_ENERGY>
94.2975

> <PUBCHEM_FEATURE_SELFOVERLAP>
50.746

> <PUBCHEM_SHAPE_FINGERPRINT>
10439779 11 18125706023306760032
10483366 6 18196398973623227078
10675989 125 17330821930632132253
10708813 3 18339365291668914801
1100329 8 18337670940272055812
11059048 146 17977396249662548037
11273773 38 18409736170234439044
11513181 2 18058738038349506606
12978246 48 18195247939114080489
14117953 113 18267864978195890373
14790565 3 17902236938050745636
14931854 50 17112971327648947564
15950262 2 14714749460219127783
16760501 71 18410582773646270531
19930381 70 16033791950614392047
20739085 24 18339083670462550858
20764821 26 18336529539401039629
21796203 349 17975734668797729344
22113638 7 18411130333893210317
245318 6 18189067545768672093
3534868 343 17839438318266051254
4573279 73 18200301261034643903
5048184 11 18122631810286106409
5309563 4 18120092775839162537
5895379 119 17908979151973195152
6371009 1 18269254894454071103

> <PUBCHEM_SHAPE_MULTIPOLES>
507.05
8.87
7.52
1.1
10.9
1.29
-0.21
4
-3.41
-3.02
3.03
0.23
-0.01
-2.86

> <PUBCHEM_SHAPE_SELFOVERLAP>
1072.662

> <PUBCHEM_SHAPE_VOLUME>
283.8

> <PUBCHEM_COORDINATE_TYPE>
2
5
10

$$$$
