2727417
  -OEChem-10062122013D

 35 38  0     0  0  0  0  0  0999 V2000
   -4.6486    1.7879   -0.4691 F   0  0  0  0  0  0  0  0  0  0  0  0
   -5.1182    0.6397    1.3099 F   0  0  0  0  0  0  0  0  0  0  0  0
   -5.5135   -0.1983   -0.6574 F   0  0  0  0  0  0  0  0  0  0  0  0
    3.3726    2.0564    0.3048 N   0  0  0  0  0  0  0  0  0  0  0  0
    1.7850   -1.0821    0.0084 N   0  0  0  0  0  0  0  0  0  0  0  0
    1.8999    0.2637    0.1271 N   0  0  0  0  0  0  0  0  0  0  0  0
    2.2789   -3.2145   -0.1692 N   0  0  0  0  0  0  0  0  0  0  0  0
    0.9054   -3.0817   -0.1784 N   0  0  0  0  0  0  0  0  0  0  0  0
    2.3121    3.0072    0.3924 C   0  0  0  0  0  0  0  0  0  0  0  0
    2.4865    4.4636   -0.0057 C   0  0  0  0  0  0  0  0  0  0  0  0
    1.6140    3.5683   -0.8359 C   0  0  0  0  0  0  0  0  0  0  0  0
    3.1354    0.7060    0.1847 C   0  0  0  0  0  0  0  0  0  0  0  0
    4.3261   -0.2132    0.1232 C   0  0  0  0  0  0  0  0  0  0  0  0
    2.7971   -2.0099   -0.0566 C   0  0  0  0  0  0  0  0  0  0  0  0
    0.6283   -1.8018   -0.0715 C   0  0  0  0  0  0  0  0  0  0  0  0
    4.1181   -1.5294    0.0055 C   0  0  0  0  0  0  0  0  0  0  0  0
   -0.6900   -1.2155   -0.0402 C   0  0  0  0  0  0  0  0  0  0  0  0
   -1.3449   -1.0365    1.1778 C   0  0  0  0  0  0  0  0  0  0  0  0
   -1.3077   -0.8273   -1.2288 C   0  0  0  0  0  0  0  0  0  0  0  0
   -3.2371   -0.0803    0.0190 C   0  0  0  0  0  0  0  0  0  0  0  0
   -2.6187   -0.4689    1.2075 C   0  0  0  0  0  0  0  0  0  0  0  0
   -2.5815   -0.2596   -1.1992 C   0  0  0  0  0  0  0  0  0  0  0  0
   -4.5991    0.5261    0.0514 C   0  0  0  0  0  0  0  0  0  0  0  0
    1.6913    2.8435    1.2695 H   0  0  0  0  0  0  0  0  0  0  0  0
    2.0023    5.2134    0.6078 H   0  0  0  0  0  0  0  0  0  0  0  0
    3.4372    4.7692   -0.4250 H   0  0  0  0  0  0  0  0  0  0  0  0
    1.9797    3.2725   -1.8115 H   0  0  0  0  0  0  0  0  0  0  0  0
    0.5419    3.7112   -0.7802 H   0  0  0  0  0  0  0  0  0  0  0  0
    4.3349    2.3810    0.3522 H   0  0  0  0  0  0  0  0  0  0  0  0
    5.3216    0.2105    0.1753 H   0  0  0  0  0  0  0  0  0  0  0  0
    4.9488   -2.2239   -0.0421 H   0  0  0  0  0  0  0  0  0  0  0  0
   -0.8758   -1.3339    2.1127 H   0  0  0  0  0  0  0  0  0  0  0  0
   -0.8094   -0.9600   -2.1862 H   0  0  0  0  0  0  0  0  0  0  0  0
   -3.1131   -0.3373    2.1661 H   0  0  0  0  0  0  0  0  0  0  0  0
   -3.0551    0.0402   -2.1303 H   0  0  0  0  0  0  0  0  0  0  0  0
  1 23  1  0  0  0  0
  2 23  1  0  0  0  0
  3 23  1  0  0  0  0
  4  9  1  0  0  0  0
  4 12  1  0  0  0  0
  4 29  1  0  0  0  0
  5  6  1  0  0  0  0
  5 14  1  0  0  0  0
  5 15  1  0  0  0  0
  6 12  2  0  0  0  0
  7  8  1  0  0  0  0
  7 14  2  0  0  0  0
  8 15  2  0  0  0  0
  9 10  1  0  0  0  0
  9 11  1  0  0  0  0
  9 24  1  0  0  0  0
 10 11  1  0  0  0  0
 10 25  1  0  0  0  0
 10 26  1  0  0  0  0
 11 27  1  0  0  0  0
 11 28  1  0  0  0  0
 12 13  1  0  0  0  0
 13 16  2  0  0  0  0
 13 30  1  0  0  0  0
 14 16  1  0  0  0  0
 15 17  1  0  0  0  0
 16 31  1  0  0  0  0
 17 18  2  0  0  0  0
 17 19  1  0  0  0  0
 18 21  1  0  0  0  0
 18 32  1  0  0  0  0
 19 22  2  0  0  0  0
 19 33  1  0  0  0  0
 20 21  2  0  0  0  0
 20 22  1  0  0  0  0
 20 23  1  0  0  0  0
 21 34  1  0  0  0  0
 22 35  1  0  0  0  0
M  END
> <PUBCHEM_COMPOUND_CID>
2727417

> <PUBCHEM_CONFORMER_RMSD>
0.8

> <PUBCHEM_CONFORMER_DIVERSEORDER>
1
6
5
2
4
3
7

> <PUBCHEM_MMFF94_PARTIAL_CHARGES>
35
1 -0.34
10 -0.2
11 -0.2
12 0.49
13 -0.14
14 0.14
15 0.13
16 -0.11
17 0.05
18 -0.15
19 -0.15
2 -0.34
20 -0.14
21 -0.15
22 -0.15
23 1.16
24 0.1
25 0.1
26 0.1
27 0.1
28 0.1
29 0.4
3 -0.34
30 0.15
31 0.15
32 0.15
33 0.15
34 0.15
35 0.15
4 -0.62
5 0.51
6 -0.65
7 -0.34
8 -0.34
9 0.07

> <PUBCHEM_EFFECTIVE_ROTOR_COUNT>
4.6

> <PUBCHEM_PHARMACOPHORE_FEATURES>
7
1 4 donor
3 4 6 12 cation
3 5 7 14 cation
3 5 8 15 cation
5 5 7 8 14 15 rings
6 17 18 19 20 21 22 rings
6 5 6 12 13 14 16 rings

> <PUBCHEM_HEAVY_ATOM_COUNT>
23

> <PUBCHEM_ATOM_DEF_STEREO_COUNT>
0

> <PUBCHEM_ATOM_UDEF_STEREO_COUNT>
0

> <PUBCHEM_BOND_DEF_STEREO_COUNT>
0

> <PUBCHEM_BOND_UDEF_STEREO_COUNT>
0

> <PUBCHEM_ISOTOPIC_ATOM_COUNT>
0

> <PUBCHEM_COMPONENT_COUNT>
1

> <PUBCHEM_CACTVS_TAUTO_COUNT>
2

> <PUBCHEM_CONFORMER_ID>
00299DF900000001

> <PUBCHEM_MMFF94_ENERGY>
51.9726

> <PUBCHEM_FEATURE_SELFOVERLAP>
38.137

> <PUBCHEM_SHAPE_FINGERPRINT>
10366900 7 18041001717450071871
10615611 76 17773621372291472673
10688039 33 17969221140571510764
10937287 8 17906453582064269924
11045977 3 18041003938370118339
11640471 11 17845939635772066724
11725454 13 16882397983895448687
12173636 292 17691404535135308812
12236239 1 17560796585176773158
12293681 4 17328289256588596759
12403259 327 17313374660841815946
12403260 363 18051393361164271598
12633257 1 17968079963296840632
12788726 201 17901386689302709394
13134695 92 18336542708177021998
13140716 1 18191300679495895106
13402501 40 18260542290795000844
13583140 156 18335147488008932867
138480 1 18338516339927837244
13965767 371 17974546285986446592
14251764 75 18050299355379198705
14466204 15 18337100169088275784
14790565 3 18119536681112995116
15003188 100 18335972130482820701
15081414 286 18340774741211439780
151778 21 18190750927734907484
15210252 30 18187661167539116684
15295992 7 18187367661593897698
15342168 16 18264770046147512877
15475509 84 17324355216827033571
1813 80 17556027887868931630
18785283 64 18262525899854798608
19930381 70 18265891539681822501
20567600 299 18413383237471916224
20621476 13 18410009965852017104
20681677 76 18262243329893692283
21033648 29 17385991872075875213
21041028 32 17976250245398862574
21475661 188 18187638094695376509
21641784 216 17900566505478713318
21709351 56 18341325652060560727
21860390 5 18343872099742130324
22289505 5 18263921038487042278
23227448 37 18340485659784552407
23558518 356 18049430745867810242
23559900 14 18409729556248612283
350125 39 17977391860728165306
4409770 3 15248524418069617623
474 4 18340764931131595874
5048184 11 17979077407315733300
5939293 188 18410289229542510330
6443956 14 18337956692888604356
9981440 41 17763452216626159944

> <PUBCHEM_SHAPE_MULTIPOLES>
426.6
9.54
4.3
0.99
10.44
3.97
-0.03
3.08
-0.56
-6.03
0.41
0.85
0.04
0.08

> <PUBCHEM_SHAPE_SELFOVERLAP>
938.363

> <PUBCHEM_SHAPE_VOLUME>
232.3

> <PUBCHEM_COORDINATE_TYPE>
2
5
10

$$$$
