49830724
  -OEChem-10052115193D

 44 46  0     0  0  0  0  0  0999 V2000
    2.5863    3.0793   -1.4076 Cl  0  0  0  0  0  0  0  0  0  0  0  0
   -8.0371    0.2879    0.0086 F   0  0  0  0  0  0  0  0  0  0  0  0
   -6.9172    0.6468    1.8376 F   0  0  0  0  0  0  0  0  0  0  0  0
   -6.5665    1.8874    0.0936 F   0  0  0  0  0  0  0  0  0  0  0  0
    8.5298   -1.8604   -0.5252 O   0  0  0  0  0  0  0  0  0  0  0  0
    7.6065   -1.4744    1.5065 O   0  0  0  0  0  0  0  0  0  0  0  0
   -1.4528    0.1795   -0.3551 O   0  0  0  0  0  0  0  0  0  0  0  0
    4.8775    0.7928   -0.4002 N   0  0  0  0  0  0  0  0  0  0  0  0
    6.5801   -0.4389   -0.4878 C   0  0  0  0  0  0  0  0  0  0  0  0
    6.2944    0.9913   -0.0086 C   0  0  0  0  0  0  0  0  0  0  0  0
    5.0815   -0.6684   -0.2460 C   0  0  0  0  0  0  0  0  0  0  0  0
    3.9987    1.2832    0.6613 C   0  0  0  0  0  0  0  0  0  0  0  0
    7.5978   -1.2942    0.2911 C   0  0  0  0  0  0  0  0  0  0  0  0
    2.5571    1.0157    0.3716 C   0  0  0  0  0  0  0  0  0  0  0  0
    1.8413    1.7799   -0.5502 C   0  0  0  0  0  0  0  0  0  0  0  0
    1.9284   -0.0291    1.0492 C   0  0  0  0  0  0  0  0  0  0  0  0
    0.4969    1.4992   -0.7941 C   0  0  0  0  0  0  0  0  0  0  0  0
    0.5838   -0.3095    0.8054 C   0  0  0  0  0  0  0  0  0  0  0  0
   -0.1318    0.4547   -0.1164 C   0  0  0  0  0  0  0  0  0  0  0  0
   -2.0240   -0.8995    0.3745 C   0  0  0  0  0  0  0  0  0  0  0  0
   -3.4444   -1.0823   -0.0418 C   0  0  0  0  0  0  0  0  0  0  0  0
   -4.4206   -0.1881    0.3976 C   0  0  0  0  0  0  0  0  0  0  0  0
   -5.7491   -0.3590    0.0082 C   0  0  0  0  0  0  0  0  0  0  0  0
   -3.7966   -2.1476   -0.8705 C   0  0  0  0  0  0  0  0  0  0  0  0
   -6.1014   -1.4243   -0.8205 C   0  0  0  0  0  0  0  0  0  0  0  0
   -5.1251   -2.3188   -1.2597 C   0  0  0  0  0  0  0  0  0  0  0  0
   -6.7934    0.5967    0.4784 C   0  0  0  0  0  0  0  0  0  0  0  0
    6.8082   -0.4514   -1.5663 H   0  0  0  0  0  0  0  0  0  0  0  0
    6.8088    1.7775   -0.5704 H   0  0  0  0  0  0  0  0  0  0  0  0
    6.4836    1.1537    1.0607 H   0  0  0  0  0  0  0  0  0  0  0  0
    4.8553   -1.0975    0.7389 H   0  0  0  0  0  0  0  0  0  0  0  0
    4.5805   -1.2750   -1.0073 H   0  0  0  0  0  0  0  0  0  0  0  0
    4.2629    0.8706    1.6467 H   0  0  0  0  0  0  0  0  0  0  0  0
    4.1429    2.3650    0.7848 H   0  0  0  0  0  0  0  0  0  0  0  0
    2.4707   -0.6340    1.7713 H   0  0  0  0  0  0  0  0  0  0  0  0
    9.1733   -2.4034   -0.0217 H   0  0  0  0  0  0  0  0  0  0  0  0
   -0.0703    2.0889   -1.5107 H   0  0  0  0  0  0  0  0  0  0  0  0
    0.1613   -1.1316    1.3722 H   0  0  0  0  0  0  0  0  0  0  0  0
   -1.4783   -1.8315    0.1770 H   0  0  0  0  0  0  0  0  0  0  0  0
   -2.0068   -0.6939    1.4533 H   0  0  0  0  0  0  0  0  0  0  0  0
   -4.1478    0.6435    1.0433 H   0  0  0  0  0  0  0  0  0  0  0  0
   -3.0475   -2.8515   -1.2231 H   0  0  0  0  0  0  0  0  0  0  0  0
   -7.1302   -1.5754   -1.1354 H   0  0  0  0  0  0  0  0  0  0  0  0
   -5.3992   -3.1480   -1.9054 H   0  0  0  0  0  0  0  0  0  0  0  0
  1 15  1  0  0  0  0
  2 27  1  0  0  0  0
  3 27  1  0  0  0  0
  4 27  1  0  0  0  0
  5 13  1  0  0  0  0
  5 36  1  0  0  0  0
  6 13  2  0  0  0  0
  7 19  1  0  0  0  0
  7 20  1  0  0  0  0
  8 10  1  0  0  0  0
  8 11  1  0  0  0  0
  8 12  1  0  0  0  0
  9 10  1  0  0  0  0
  9 11  1  0  0  0  0
  9 13  1  0  0  0  0
  9 28  1  0  0  0  0
 10 29  1  0  0  0  0
 10 30  1  0  0  0  0
 11 31  1  0  0  0  0
 11 32  1  0  0  0  0
 12 14  1  0  0  0  0
 12 33  1  0  0  0  0
 12 34  1  0  0  0  0
 14 15  2  0  0  0  0
 14 16  1  0  0  0  0
 15 17  1  0  0  0  0
 16 18  2  0  0  0  0
 16 35  1  0  0  0  0
 17 19  2  0  0  0  0
 17 37  1  0  0  0  0
 18 19  1  0  0  0  0
 18 38  1  0  0  0  0
 20 21  1  0  0  0  0
 20 39  1  0  0  0  0
 20 40  1  0  0  0  0
 21 22  2  0  0  0  0
 21 24  1  0  0  0  0
 22 23  1  0  0  0  0
 22 41  1  0  0  0  0
 23 25  2  0  0  0  0
 23 27  1  0  0  0  0
 24 26  2  0  0  0  0
 24 42  1  0  0  0  0
 25 26  1  0  0  0  0
 25 43  1  0  0  0  0
 26 44  1  0  0  0  0
M  END
> <PUBCHEM_COMPOUND_CID>
49830724

> <PUBCHEM_CONFORMER_RMSD>
1

> <PUBCHEM_CONFORMER_DIVERSEORDER>
1
127
213
185
138
51
124
146
158
125
212
39
226
223
133
110
53
247
216
42
140
175
169
188
106
47
41
210
72
136
170
150
144
206
167
123
55
246
139
77
129
221
121
255
48
73
135
11
88
249
176
186
16
31
99
66
217
189
214
245
108
181
241
58
44
224
49
222
191
159
36
130
95
45
243
50
153
96
244
248
111
4
179
201
168
164
236
134
83
76
79
233
70
147
43
131
205
218
190
81
220
78
202
194
98
132
196
126
251
61
200
37
28
184
152
143
203
15
101
151
94
227
211
8
166
46
26
102
67
119
235
162
115
3
149
209
86
172
225
117
82
145
198
57
107
33
161
54
207
116
84
157
25
105
193
114
219
2
187
156
120
204
180
142
12
182
208
148
56
183
178
80
197
154
17
109
14
7
155
165
93
29
253
252
128
250
85
75
229
215
89
59
237
40
118
87
68
160
19
30
103
192
238
34
232
113
9
173
104
174
231
32
10
239
163
199
100
254
64
52
122
171
141
242
60
90
5
97
137
20
195
27
62
69
65
35
13
74
230
71
112
21
92
228
18
24
91
240
22
177
234
23
63
38
6

> <PUBCHEM_MMFF94_PARTIAL_CHARGES>
35
1 -0.18
10 0.21
11 0.21
12 0.41
13 0.67
14 -0.14
15 0.18
16 -0.15
17 -0.15
18 -0.15
19 0.08
2 -0.34
20 0.42
21 -0.14
22 -0.15
23 -0.14
24 -0.15
25 -0.15
26 -0.15
27 1.16
3 -0.34
35 0.15
36 0.5
37 0.15
38 0.15
4 -0.34
41 0.15
42 0.15
43 0.15
44 0.15
5 -0.65
6 -0.57
7 -0.36
8 -0.69
9 0.05

> <PUBCHEM_EFFECTIVE_ROTOR_COUNT>
7.8

> <PUBCHEM_PHARMACOPHORE_FEATURES>
8
1 5 acceptor
1 6 acceptor
1 7 acceptor
1 8 cation
3 5 6 13 anion
4 8 9 10 11 rings
6 14 15 16 17 18 19 rings
6 21 22 23 24 25 26 rings

> <PUBCHEM_HEAVY_ATOM_COUNT>
27

> <PUBCHEM_ATOM_DEF_STEREO_COUNT>
0

> <PUBCHEM_ATOM_UDEF_STEREO_COUNT>
0

> <PUBCHEM_BOND_DEF_STEREO_COUNT>
0

> <PUBCHEM_BOND_UDEF_STEREO_COUNT>
0

> <PUBCHEM_ISOTOPIC_ATOM_COUNT>
0

> <PUBCHEM_COMPONENT_COUNT>
1

> <PUBCHEM_CACTVS_TAUTO_COUNT>
1

> <PUBCHEM_CONFORMER_ID>
02F85B4400000001

> <PUBCHEM_MMFF94_ENERGY>
72.0824

> <PUBCHEM_FEATURE_SELFOVERLAP>
40.656

> <PUBCHEM_SHAPE_FINGERPRINT>
10 15 14620791618234758850
100830 39 18342177718175784257
10299344 5 18409166614884910866
10674148 151 18259703389735773496
11273773 118 17095796617343097229
11315181 36 17060344067369734515
11331351 85 18408041814231935541
11719270 70 17060344028556884174
11796584 16 17703514384384083478
11973863 73 17823126835865614720
11991303 11 15864077610935856466
12236239 1 18341613771557146313
12592606 108 18408603686411743799
13885169 127 18202282485242756417
13914758 101 18131637772500160609
14216079 64 18409166585316070470
14251752 14 18131351921178498441
14347424 109 18059570322145661376
14856354 85 15719398347967466451
15021287 119 18187090563822273413
15183329 4 18187355541270099427
15475509 8 18187367627656165124
1577012 14 18339365282873388565
18335252 98 12179843883626197169
18643901 69 18334017147432492854
20105231 36 17313109648395967355
21130935 74 18270397321105106730
21267235 1 18040437698271346397
21315763 28 18341048618644042439
21792961 116 16008738096548578808
22224240 67 11815895652650448756
23035841 295 18409164419935011626
23081809 10 18340490092064064989
23522609 53 18193021359016860005
23559900 14 18264201594256556904
23569917 315 18337676433868517775
23569943 247 18261384491264877298
24180151 214 11819270032129909220
24771293 8 18118675750728909356
28498 318 18411982438578308446
3004659 81 18412259566568022346
3103668 31 17969214551601919996
3146122 72 16661508341277358028
34797466 226 13840269174116500746
4073 2 18263646328142416754
4258327 124 11527369572369325426
4339292 15 15769480042240941359
444769 64 18408608059025944523
5080951 261 14764058030763287719
5219985 9 18334293159290138252
5381727 24 18272653455569389659
559249 180 18201438108190598823
59755656 215 18202570553141933703
59755656 520 17676205805985693499
6126387 218 18202278096440210522
9689198 14 13840265888308458374

> <PUBCHEM_SHAPE_MULTIPOLES>
513.11
25.07
2.33
1.13
3.09
0.54
0.09
-9.18
2
1.07
-0.91
-0.3
0.03
-2.19

> <PUBCHEM_SHAPE_SELFOVERLAP>
1091.05

> <PUBCHEM_SHAPE_VOLUME>
288.3

> <PUBCHEM_COORDINATE_TYPE>
2
5
10

$$$$
