25165861
  -OEChem-10052115143D

 34 37  0     0  0  0  0  0  0999 V2000
   -1.6392   -0.9776   -0.7878 N   0  0  0  0  0  0  0  0  0  0  0  0
    5.7201    0.5167    0.3502 N   0  0  0  0  0  0  0  0  0  0  0  0
   -0.2396   -1.9517    0.5236 N   0  0  0  0  0  0  0  0  0  0  0  0
   -1.5081   -1.9502    0.1288 N   0  0  0  0  0  0  0  0  0  0  0  0
    5.7179    1.8319    0.0762 N   0  0  0  0  0  0  0  0  0  0  0  0
    1.8092   -0.6518   -0.0118 C   0  0  0  0  0  0  0  0  0  0  0  0
   -2.9122   -0.7232   -1.4127 C   0  0  0  0  0  0  0  0  0  0  0  0
    0.4148   -0.9657   -0.1612 C   0  0  0  0  0  0  0  0  0  0  0  0
    3.6111    0.9497   -0.0663 C   0  0  0  0  0  0  0  0  0  0  0  0
    4.4865   -0.0728    0.2820 C   0  0  0  0  0  0  0  0  0  0  0  0
    2.2442    0.6633   -0.2183 C   0  0  0  0  0  0  0  0  0  0  0  0
   -0.4616   -0.3308   -1.0051 C   0  0  0  0  0  0  0  0  0  0  0  0
   -3.8639    0.0527   -0.5363 C   0  0  0  0  0  0  0  0  0  0  0  0
    2.7100   -1.6596    0.3374 C   0  0  0  0  0  0  0  0  0  0  0  0
    4.0738   -1.3902    0.4925 C   0  0  0  0  0  0  0  0  0  0  0  0
    4.4332    2.0917   -0.1768 C   0  0  0  0  0  0  0  0  0  0  0  0
   -4.5483   -0.5937    0.4932 C   0  0  0  0  0  0  0  0  0  0  0  0
   -4.0589    1.4166   -0.7544 C   0  0  0  0  0  0  0  0  0  0  0  0
   -5.4278    0.1236    1.3041 C   0  0  0  0  0  0  0  0  0  0  0  0
   -4.9384    2.1338    0.0567 C   0  0  0  0  0  0  0  0  0  0  0  0
   -5.6227    1.4873    1.0859 C   0  0  0  0  0  0  0  0  0  0  0  0
   -3.3513   -1.6904   -1.6873 H   0  0  0  0  0  0  0  0  0  0  0  0
   -2.7269   -0.1904   -2.3533 H   0  0  0  0  0  0  0  0  0  0  0  0
    1.5597    1.4651   -0.4798 H   0  0  0  0  0  0  0  0  0  0  0  0
   -0.3642    0.4812   -1.7127 H   0  0  0  0  0  0  0  0  0  0  0  0
    2.3694   -2.6815    0.4935 H   0  0  0  0  0  0  0  0  0  0  0  0
    4.7752   -2.1716    0.7627 H   0  0  0  0  0  0  0  0  0  0  0  0
    4.1475    3.1025   -0.4314 H   0  0  0  0  0  0  0  0  0  0  0  0
    6.6033    0.0776    0.5784 H   0  0  0  0  0  0  0  0  0  0  0  0
   -4.4104   -1.6567    0.6716 H   0  0  0  0  0  0  0  0  0  0  0  0
   -3.5304    1.9329   -1.5513 H   0  0  0  0  0  0  0  0  0  0  0  0
   -5.9616   -0.3800    2.1047 H   0  0  0  0  0  0  0  0  0  0  0  0
   -5.0899    3.1959   -0.1127 H   0  0  0  0  0  0  0  0  0  0  0  0
   -6.3075    2.0458    1.7173 H   0  0  0  0  0  0  0  0  0  0  0  0
  1  4  1  0  0  0  0
  1  7  1  0  0  0  0
  1 12  1  0  0  0  0
  2  5  1  0  0  0  0
  2 10  1  0  0  0  0
  2 29  1  0  0  0  0
  3  4  2  0  0  0  0
  3  8  1  0  0  0  0
  5 16  2  0  0  0  0
  6  8  1  0  0  0  0
  6 11  2  0  0  0  0
  6 14  1  0  0  0  0
  7 13  1  0  0  0  0
  7 22  1  0  0  0  0
  7 23  1  0  0  0  0
  8 12  2  0  0  0  0
  9 10  2  0  0  0  0
  9 11  1  0  0  0  0
  9 16  1  0  0  0  0
 10 15  1  0  0  0  0
 11 24  1  0  0  0  0
 12 25  1  0  0  0  0
 13 17  2  0  0  0  0
 13 18  1  0  0  0  0
 14 15  2  0  0  0  0
 14 26  1  0  0  0  0
 15 27  1  0  0  0  0
 16 28  1  0  0  0  0
 17 19  1  0  0  0  0
 17 30  1  0  0  0  0
 18 20  2  0  0  0  0
 18 31  1  0  0  0  0
 19 21  2  0  0  0  0
 19 32  1  0  0  0  0
 20 21  1  0  0  0  0
 20 33  1  0  0  0  0
 21 34  1  0  0  0  0
M  END
> <PUBCHEM_COMPOUND_CID>
25165861

> <PUBCHEM_CONFORMER_RMSD>
0.6

> <PUBCHEM_CONFORMER_DIVERSEORDER>
1
32
11
50
46
49
40
28
4
33
51
23
37
38
19
17
42
3
21
36
26
10
29
12
47
34
43
16
14
48
41
24
7
20
18
25
5
15
13
9
45
44
27
35
30
2
31
8
22
6
39

> <PUBCHEM_MMFF94_PARTIAL_CHARGES>
31
1 0.31
10 -0.15
11 -0.15
12 -0.3
13 -0.14
14 -0.15
15 -0.15
16 0.14
17 -0.15
18 -0.15
19 -0.15
2 0.3
20 -0.15
21 -0.15
24 0.15
25 0.15
26 0.15
27 0.15
28 0.15
29 0.27
3 -0.23
30 0.15
31 0.15
32 0.15
33 0.15
34 0.15
4 -0.42
5 -0.71
6 0.05
7 0.4
8 0.17

> <PUBCHEM_EFFECTIVE_ROTOR_COUNT>
3

> <PUBCHEM_PHARMACOPHORE_FEATURES>
6
1 2 donor
1 5 acceptor
5 1 3 4 8 12 rings
5 2 5 9 10 16 rings
6 13 17 18 19 20 21 rings
6 6 9 10 11 14 15 rings

> <PUBCHEM_HEAVY_ATOM_COUNT>
21

> <PUBCHEM_ATOM_DEF_STEREO_COUNT>
0

> <PUBCHEM_ATOM_UDEF_STEREO_COUNT>
0

> <PUBCHEM_BOND_DEF_STEREO_COUNT>
0

> <PUBCHEM_BOND_UDEF_STEREO_COUNT>
0

> <PUBCHEM_ISOTOPIC_ATOM_COUNT>
0

> <PUBCHEM_COMPONENT_COUNT>
1

> <PUBCHEM_CACTVS_TAUTO_COUNT>
2

> <PUBCHEM_CONFORMER_ID>
0180002500000001

> <PUBCHEM_MMFF94_ENERGY>
41.7721

> <PUBCHEM_FEATURE_SELFOVERLAP>
30.539

> <PUBCHEM_SHAPE_FINGERPRINT>
10 15 17894914044179189121
105312 117 16559030502144199469
10912923 1 18341600534209847663
11046707 91 11097855185937075831
11089746 13 17632286904803706200
11370993 144 18114182965570012907
11796584 16 11241963768210786081
12107183 9 18122618349542142059
12236239 1 18202844361755105330
12403259 415 18040714714850211343
12555020 224 10735877274844504141
12596602 18 18040999527348931073
12670543 26 12751246886836810995
12788726 201 17561090159223849304
12839892 36 13045935802700886985
12892183 10 17822011965492959111
13167372 99 18342175540552843056
13398642 44 17171537780897231356
13675066 3 17822291258299346591
13785724 45 17835801894348091530
14251764 75 17826808228566871460
14341114 176 18260272910720105753
14848178 5 10737283558626905393
15081414 286 18333448738428172700
15163728 17 17489319555185047565
15183329 4 16702311126455654756
15188451 53 15792022220574073867
15475509 35 16009583561151175058
1601671 61 17847059982587103296
16760501 71 18262242225939546733
17349148 13 11602825657505122593
17844677 252 18338520733510264287
17857418 61 8790890683173416508
17870717 6 12679458682349552469
17959699 21 18342736351507068856
18222031 100 11674879987431501442
18785283 64 16951422085666488276
193927 3 11169912745325192977
20281389 69 18272930531138534505
21033648 29 17823115926427565341
21315759 148 17822583737108818563
21421861 104 17968642827889226722
21637258 2 12468641664028777115
21756936 100 18341890826965127687
22061861 79 11167940251503392737
22224240 67 18113059338086011515
22393880 68 11959724933280099509
23402655 69 18201996646980160694
23559900 14 17417533506149665638
2838139 119 17703784804078102697
2916195 48 18411416232680935161
312425 54 17023190379777209993
465052 167 11169919368122507208
5104073 3 18115015420526472882
5283173 99 11887682740794772963
542803 24 18202562890820109006
543358 83 18412541007870822538
5718773 13 12613336308103352329
57724786 102 17770790018307029249
59682541 52 14548183065354659637
602551 16 15430045369573214818
633830 44 18340762654852138167
636775 72 18054784251104620496
76465 3 8358260345233911767
8272917 22 18272089371064406454
90127 26 18337117782495961675
960060 61 12391510901633378210
9996256 80 18342174501197384407

> <PUBCHEM_SHAPE_MULTIPOLES>
407.27
14.99
2.15
1.02
1.11
0.41
0.05
8.54
-3.68
-0.59
-0.13
1.23
-0.05
-0.6

> <PUBCHEM_SHAPE_SELFOVERLAP>
912.114

> <PUBCHEM_SHAPE_VOLUME>
217.9

> <PUBCHEM_COORDINATE_TYPE>
2
5
10

$$$$
