9547398
  -OEChem-10062122013D

 72 74  0     1  0  0  0  0  0999 V2000
    2.6078   -1.0063   -2.8562 O   0  0  0  0  0  0  0  0  0  0  0  0
   -2.1810   -3.5154    1.1585 O   0  0  0  0  0  0  0  0  0  0  0  0
   -7.3688    0.8508    1.1815 O   0  0  0  0  0  0  0  0  0  0  0  0
    1.2435   -1.8731   -0.0024 C   0  0  1  0  0  0  0  0  0  0  0  0
   -0.0005   -1.1273   -0.5338 C   0  0  1  0  0  0  0  0  0  0  0  0
    2.3478   -0.8545   -0.3956 C   0  0  2  0  0  0  0  0  0  0  0  0
    1.9223   -0.3515   -1.7990 C   0  0  2  0  0  0  0  0  0  0  0  0
    0.4169   -0.6494   -1.9244 C   0  0  0  0  0  0  0  0  0  0  0  0
   -1.2717   -1.9733   -0.4524 C   0  0  1  0  0  0  0  0  0  0  0  0
    1.0912   -2.0789    1.5197 C   0  0  0  0  0  0  0  0  0  0  0  0
    3.7832   -1.3509   -0.2841 C   0  0  1  0  0  0  0  0  0  0  0  0
    1.4644   -3.2529   -0.6704 C   0  0  0  0  0  0  0  0  0  0  0  0
   -0.3672   -2.1845    1.9873 C   0  0  0  0  0  0  0  0  0  0  0  0
   -1.3325   -2.6567    0.9131 C   0  0  0  0  0  0  0  0  0  0  0  0
   -2.5269   -1.1367   -0.6723 C   0  0  0  0  0  0  0  0  0  0  0  0
    4.8199   -0.2561   -0.6110 C   0  0  0  0  0  0  0  0  0  0  0  0
    4.0438   -1.8887    1.1282 C   0  0  0  0  0  0  0  0  0  0  0  0
   -2.6412   -0.0298    0.3726 C   0  0  0  0  0  0  0  0  0  0  0  0
    4.7426    1.0195    0.2384 C   0  0  0  0  0  0  0  0  0  0  0  0
    5.7482    2.0959   -0.1828 C   0  0  0  0  0  0  0  0  0  0  0  0
   -3.8699    0.8143    0.1494 C   0  0  0  0  0  0  0  0  0  0  0  0
    5.7184    3.3479    0.7155 C   0  0  0  0  0  0  0  0  0  0  0  0
   -3.8124    1.9391   -0.6616 C   0  0  0  0  0  0  0  0  0  0  0  0
   -5.0536    0.4404    0.7705 C   0  0  0  0  0  0  0  0  0  0  0  0
    4.3678    4.0549    0.5731 C   0  0  0  0  0  0  0  0  0  0  0  0
    5.9738    3.0207    2.1876 C   0  0  0  0  0  0  0  0  0  0  0  0
   -4.9617    2.7054   -0.8554 C   0  0  0  0  0  0  0  0  0  0  0  0
   -6.2028    1.2069    0.5767 C   0  0  0  0  0  0  0  0  0  0  0  0
   -2.5445    2.3508   -1.3345 C   0  0  0  0  0  0  0  0  0  0  0  0
   -6.1568    2.3394   -0.2363 C   0  0  0  0  0  0  0  0  0  0  0  0
   -0.0919   -0.2301    0.0878 H   0  0  0  0  0  0  0  0  0  0  0  0
    2.2167   -0.0033    0.2876 H   0  0  0  0  0  0  0  0  0  0  0  0
    2.1199    0.7226   -1.8881 H   0  0  0  0  0  0  0  0  0  0  0  0
    0.2151   -1.4068   -2.6905 H   0  0  0  0  0  0  0  0  0  0  0  0
   -0.1336    0.2534   -2.2072 H   0  0  0  0  0  0  0  0  0  0  0  0
   -1.2391   -2.7688   -1.2069 H   0  0  0  0  0  0  0  0  0  0  0  0
    1.6016   -2.9915    1.8464 H   0  0  0  0  0  0  0  0  0  0  0  0
    1.5379   -1.2516    2.0823 H   0  0  0  0  0  0  0  0  0  0  0  0
    3.9620   -2.1720   -0.9890 H   0  0  0  0  0  0  0  0  0  0  0  0
    1.5210   -3.1839   -1.7605 H   0  0  0  0  0  0  0  0  0  0  0  0
    0.6545   -3.9516   -0.4363 H   0  0  0  0  0  0  0  0  0  0  0  0
    2.3841   -3.7366   -0.3306 H   0  0  0  0  0  0  0  0  0  0  0  0
   -0.4285   -2.8654    2.8439 H   0  0  0  0  0  0  0  0  0  0  0  0
   -0.7149   -1.2064    2.3382 H   0  0  0  0  0  0  0  0  0  0  0  0
   -2.5171   -0.7177   -1.6851 H   0  0  0  0  0  0  0  0  0  0  0  0
   -3.4130   -1.7829   -0.6196 H   0  0  0  0  0  0  0  0  0  0  0  0
    5.8280   -0.6808   -0.5158 H   0  0  0  0  0  0  0  0  0  0  0  0
    4.7216    0.0257   -1.6664 H   0  0  0  0  0  0  0  0  0  0  0  0
    3.6056   -2.8733    1.2908 H   0  0  0  0  0  0  0  0  0  0  0  0
    5.1210   -2.0372    1.2763 H   0  0  0  0  0  0  0  0  0  0  0  0
    3.7171   -1.1991    1.9113 H   0  0  0  0  0  0  0  0  0  0  0  0
    2.2691   -0.6444   -3.6928 H   0  0  0  0  0  0  0  0  0  0  0  0
   -2.7140   -0.4625    1.3780 H   0  0  0  0  0  0  0  0  0  0  0  0
   -1.7763    0.6320    0.4164 H   0  0  0  0  0  0  0  0  0  0  0  0
    4.9067    0.7451    1.2844 H   0  0  0  0  0  0  0  0  0  0  0  0
    3.7375    1.4411    0.1641 H   0  0  0  0  0  0  0  0  0  0  0  0
    6.7586    1.6686   -0.1546 H   0  0  0  0  0  0  0  0  0  0  0  0
    5.5614    2.3853   -1.2244 H   0  0  0  0  0  0  0  0  0  0  0  0
    6.5054    4.0285    0.3676 H   0  0  0  0  0  0  0  0  0  0  0  0
   -5.0967   -0.4425    1.4030 H   0  0  0  0  0  0  0  0  0  0  0  0
    3.5465    3.4820    1.0146 H   0  0  0  0  0  0  0  0  0  0  0  0
    4.3956    5.0243    1.0832 H   0  0  0  0  0  0  0  0  0  0  0  0
    4.1309    4.2439   -0.4793 H   0  0  0  0  0  0  0  0  0  0  0  0
    5.1440    2.4731    2.6451 H   0  0  0  0  0  0  0  0  0  0  0  0
    6.1052    3.9449    2.7614 H   0  0  0  0  0  0  0  0  0  0  0  0
    6.8863    2.4267    2.3023 H   0  0  0  0  0  0  0  0  0  0  0  0
   -4.9435    3.5911   -1.4850 H   0  0  0  0  0  0  0  0  0  0  0  0
   -2.1665    1.5567   -1.9835 H   0  0  0  0  0  0  0  0  0  0  0  0
   -2.6976    3.2287   -1.9727 H   0  0  0  0  0  0  0  0  0  0  0  0
   -1.7822    2.6247   -0.5983 H   0  0  0  0  0  0  0  0  0  0  0  0
   -7.0449    2.9451   -0.3951 H   0  0  0  0  0  0  0  0  0  0  0  0
   -8.0588    1.4916    0.9379 H   0  0  0  0  0  0  0  0  0  0  0  0
  1  7  1  0  0  0  0
  1 52  1  0  0  0  0
  2 14  2  0  0  0  0
  3 28  1  0  0  0  0
  3 72  1  0  0  0  0
  4  5  1  0  0  0  0
  4  6  1  0  0  0  0
  4 10  1  0  0  0  0
  4 12  1  0  0  0  0
  5  8  1  0  0  0  0
  5  9  1  0  0  0  0
  5 31  1  0  0  0  0
  6  7  1  0  0  0  0
  6 11  1  0  0  0  0
  6 32  1  0  0  0  0
  7  8  1  0  0  0  0
  7 33  1  0  0  0  0
  8 34  1  0  0  0  0
  8 35  1  0  0  0  0
  9 14  1  0  0  0  0
  9 15  1  0  0  0  0
  9 36  1  0  0  0  0
 10 13  1  0  0  0  0
 10 37  1  0  0  0  0
 10 38  1  0  0  0  0
 11 16  1  0  0  0  0
 11 17  1  0  0  0  0
 11 39  1  0  0  0  0
 12 40  1  0  0  0  0
 12 41  1  0  0  0  0
 12 42  1  0  0  0  0
 13 14  1  0  0  0  0
 13 43  1  0  0  0  0
 13 44  1  0  0  0  0
 15 18  1  0  0  0  0
 15 45  1  0  0  0  0
 15 46  1  0  0  0  0
 16 19  1  0  0  0  0
 16 47  1  0  0  0  0
 16 48  1  0  0  0  0
 17 49  1  0  0  0  0
 17 50  1  0  0  0  0
 17 51  1  0  0  0  0
 18 21  1  0  0  0  0
 18 53  1  0  0  0  0
 18 54  1  0  0  0  0
 19 20  1  0  0  0  0
 19 55  1  0  0  0  0
 19 56  1  0  0  0  0
 20 22  1  0  0  0  0
 20 57  1  0  0  0  0
 20 58  1  0  0  0  0
 21 23  2  0  0  0  0
 21 24  1  0  0  0  0
 22 25  1  0  0  0  0
 22 26  1  0  0  0  0
 22 59  1  0  0  0  0
 23 27  1  0  0  0  0
 23 29  1  0  0  0  0
 24 28  2  0  0  0  0
 24 60  1  0  0  0  0
 25 61  1  0  0  0  0
 25 62  1  0  0  0  0
 25 63  1  0  0  0  0
 26 64  1  0  0  0  0
 26 65  1  0  0  0  0
 26 66  1  0  0  0  0
 27 30  2  0  0  0  0
 27 67  1  0  0  0  0
 28 30  1  0  0  0  0
 29 68  1  0  0  0  0
 29 69  1  0  0  0  0
 29 70  1  0  0  0  0
 30 71  1  0  0  0  0
M  END
> <PUBCHEM_COMPOUND_CID>
9547398

> <PUBCHEM_CONFORMER_RMSD>
1

> <PUBCHEM_CONFORMER_DIVERSEORDER>
1
10
16
13
17
23
21
24
19
15
11
25
26
12
9
14
27
5
22
20
3
7
18
2
8
6
4

> <PUBCHEM_MMFF94_PARTIAL_CHARGES>
20
1 -0.68
13 0.06
14 0.45
18 0.14
2 -0.57
21 -0.14
23 -0.14
24 -0.15
27 -0.15
28 0.08
29 0.14
3 -0.53
30 -0.15
52 0.4
60 0.15
67 0.15
7 0.28
71 0.15
72 0.45
9 0.06

> <PUBCHEM_EFFECTIVE_ROTOR_COUNT>
9.2

> <PUBCHEM_PHARMACOPHORE_FEATURES>
10
1 1 acceptor
1 1 donor
1 17 hydrophobe
1 2 acceptor
1 3 donor
3 22 25 26 hydrophobe
5 11 16 19 20 22 hydrophobe
5 4 5 6 7 8 rings
6 21 23 24 27 28 30 rings
6 4 5 9 10 13 14 rings

> <PUBCHEM_HEAVY_ATOM_COUNT>
30

> <PUBCHEM_ATOM_DEF_STEREO_COUNT>
6

> <PUBCHEM_ATOM_UDEF_STEREO_COUNT>
0

> <PUBCHEM_BOND_DEF_STEREO_COUNT>
0

> <PUBCHEM_BOND_UDEF_STEREO_COUNT>
0

> <PUBCHEM_ISOTOPIC_ATOM_COUNT>
0

> <PUBCHEM_COMPONENT_COUNT>
1

> <PUBCHEM_CACTVS_TAUTO_COUNT>
27

> <PUBCHEM_CONFORMER_ID>
0091AE8600000001

> <PUBCHEM_MMFF94_ENERGY>
97.5898

> <PUBCHEM_FEATURE_SELFOVERLAP>
50.821

> <PUBCHEM_SHAPE_FINGERPRINT>
10074138 170 17823421668096040699
10673678 19 17632300107311757900
11578080 2 18339645645928167434
12422481 6 16443605927744697506
12633257 1 17169535519389609924
12925494 130 18338793550028462032
14739800 52 18188203200373623531
14951699 99 18260553372295960212
15183329 4 11959437939824145427
19438510 23 18343300396561125816
20511986 3 17749946653873313901
21033648 29 18187085052788129128
21033650 10 14333142849000051043
21315764 268 18262796255150760492
21401589 2 18335976557955727593
21475661 188 18339641243829470164
22149856 69 17974318464410461617
23559900 14 18200037235951218502
2838139 119 18342731906047125588
3459 39 17967810544024668372
3472631 163 18343864415718654686
34797466 226 17988932124324699173
376196 1 18411418423558075778
4112364 45 18410562982025533722
4173938 306 17241031117157563749
474113 269 13623521390566079961
5104073 3 18040988592631597602
57527585 21 16629426746781201578
7808743 9 18335978748373192051

> <PUBCHEM_SHAPE_MULTIPOLES>
599.78
15.62
4.73
1.8
7.36
1.85
0.28
19.51
-4.63
-3.76
-1.42
-1.12
-0.37
2.73

> <PUBCHEM_SHAPE_SELFOVERLAP>
1243.933

> <PUBCHEM_SHAPE_VOLUME>
343.1

> <PUBCHEM_COORDINATE_TYPE>
2
5
10

$$$$
