44363906
  -OEChem-10052115163D

 62 70  0     1  0  0  0  0  0999 V2000
   -5.3044   -0.0541   -1.2643 O   0  0  0  0  0  0  0  0  0  0  0  0
   -3.2513    4.0292   -0.7468 O   0  0  0  0  0  0  0  0  0  0  0  0
    1.8966   -1.2964    0.4107 N   0  0  0  0  0  0  0  0  0  0  0  0
   -0.4022   -1.8267    0.4793 N   0  0  0  0  0  0  0  0  0  0  0  0
    0.9270    0.8172    0.8150 N   0  0  0  0  0  0  0  0  0  0  0  0
   -4.5942    2.1612   -1.1201 N   0  0  0  0  0  0  0  0  0  0  0  0
    0.9149   -2.2338    0.9471 C   0  0  2  0  0  0  0  0  0  0  0  0
    1.9951   -0.0855    1.2194 C   0  0  1  0  0  0  0  0  0  0  0  0
    0.9474   -2.4769    2.4647 C   0  0  0  0  0  0  0  0  0  0  0  0
    2.0554   -0.2746    2.7441 C   0  0  0  0  0  0  0  0  0  0  0  0
   -0.9975   -0.6203    0.2271 C   0  0  0  0  0  0  0  0  0  0  0  0
   -0.3617    0.6444    0.3877 C   0  0  0  0  0  0  0  0  0  0  0  0
    0.9510   -1.1819    3.2598 C   0  0  0  0  0  0  0  0  0  0  0  0
   -2.3725   -0.5682   -0.2415 C   0  0  0  0  0  0  0  0  0  0  0  0
   -1.1833    1.7976    0.0593 C   0  0  0  0  0  0  0  0  0  0  0  0
   -1.4405   -2.7218    0.1843 C   0  0  0  0  0  0  0  0  0  0  0  0
    1.0410    2.2148    0.8118 C   0  0  0  0  0  0  0  0  0  0  0  0
    3.2080   -1.9372    0.2628 C   0  0  0  0  0  0  0  0  0  0  0  0
   -2.6022   -2.0157   -0.2476 C   0  0  0  0  0  0  0  0  0  0  0  0
   -0.1740    2.8150    0.3669 C   0  0  0  0  0  0  0  0  0  0  0  0
   -3.1139    0.5675   -0.5464 C   0  0  0  0  0  0  0  0  0  0  0  0
   -2.4985    1.7917   -0.3910 C   0  0  0  0  0  0  0  0  0  0  0  0
   -1.4445   -4.1314    0.2727 C   0  0  0  0  0  0  0  0  0  0  0  0
    2.1465    3.0124    1.1808 C   0  0  0  0  0  0  0  0  0  0  0  0
    4.0433   -1.2670   -0.7956 C   0  0  0  0  0  0  0  0  0  0  0  0
   -4.4720    0.7956   -1.0184 C   0  0  0  0  0  0  0  0  0  0  0  0
   -3.4488    2.8310   -0.7603 C   0  0  0  0  0  0  0  0  0  0  0  0
   -3.7418   -2.7880   -0.5911 C   0  0  0  0  0  0  0  0  0  0  0  0
   -0.2135    4.2318    0.3025 C   0  0  0  0  0  0  0  0  0  0  0  0
   -2.5910   -4.8448   -0.0748 C   0  0  0  0  0  0  0  0  0  0  0  0
    2.0568    4.4017    1.1013 C   0  0  0  0  0  0  0  0  0  0  0  0
   -3.7273   -4.1825   -0.5042 C   0  0  0  0  0  0  0  0  0  0  0  0
    0.8914    5.0064    0.6653 C   0  0  0  0  0  0  0  0  0  0  0  0
    5.4339   -1.2636   -0.6877 C   0  0  0  0  0  0  0  0  0  0  0  0
    3.4266   -0.6500   -1.8839 C   0  0  0  0  0  0  0  0  0  0  0  0
    6.2080   -0.6428   -1.6681 C   0  0  0  0  0  0  0  0  0  0  0  0
    4.2006   -0.0291   -2.8644 C   0  0  0  0  0  0  0  0  0  0  0  0
    5.5914   -0.0256   -2.7564 C   0  0  0  0  0  0  0  0  0  0  0  0
    1.0774   -3.2029    0.4598 H   0  0  0  0  0  0  0  0  0  0  0  0
    2.9122    0.4419    0.9316 H   0  0  0  0  0  0  0  0  0  0  0  0
    1.8534   -3.0449    2.7133 H   0  0  0  0  0  0  0  0  0  0  0  0
    0.0971   -3.0920    2.7822 H   0  0  0  0  0  0  0  0  0  0  0  0
    1.9947    0.6911    3.2599 H   0  0  0  0  0  0  0  0  0  0  0  0
    3.0253   -0.7091    3.0174 H   0  0  0  0  0  0  0  0  0  0  0  0
    1.1085   -1.3959    4.3228 H   0  0  0  0  0  0  0  0  0  0  0  0
   -0.0213   -0.6828    3.1800 H   0  0  0  0  0  0  0  0  0  0  0  0
    3.0977   -2.9743   -0.0821 H   0  0  0  0  0  0  0  0  0  0  0  0
    3.7461   -1.9857    1.2174 H   0  0  0  0  0  0  0  0  0  0  0  0
   -0.5680   -4.6760    0.6115 H   0  0  0  0  0  0  0  0  0  0  0  0
    3.0716    2.5638    1.5310 H   0  0  0  0  0  0  0  0  0  0  0  0
   -4.6554   -2.3115   -0.9279 H   0  0  0  0  0  0  0  0  0  0  0  0
   -1.1070    4.7486   -0.0288 H   0  0  0  0  0  0  0  0  0  0  0  0
   -5.4408    2.6260   -1.4288 H   0  0  0  0  0  0  0  0  0  0  0  0
   -2.5899   -5.9292   -0.0064 H   0  0  0  0  0  0  0  0  0  0  0  0
    2.9099    5.0120    1.3851 H   0  0  0  0  0  0  0  0  0  0  0  0
   -4.6158   -4.7472   -0.7728 H   0  0  0  0  0  0  0  0  0  0  0  0
    0.8312    6.0896    0.6066 H   0  0  0  0  0  0  0  0  0  0  0  0
    5.9261   -1.7422    0.1547 H   0  0  0  0  0  0  0  0  0  0  0  0
    2.3475   -0.6497   -2.0101 H   0  0  0  0  0  0  0  0  0  0  0  0
    7.2909   -0.6404   -1.5843 H   0  0  0  0  0  0  0  0  0  0  0  0
    3.7210    0.4480   -3.7141 H   0  0  0  0  0  0  0  0  0  0  0  0
    6.1941    0.4570   -3.5203 H   0  0  0  0  0  0  0  0  0  0  0  0
  1 26  2  0  0  0  0
  2 27  2  0  0  0  0
  3  7  1  0  0  0  0
  3  8  1  0  0  0  0
  3 18  1  0  0  0  0
  4  7  1  0  0  0  0
  4 11  1  0  0  0  0
  4 16  1  0  0  0  0
  5  8  1  0  0  0  0
  5 12  1  0  0  0  0
  5 17  1  0  0  0  0
  6 26  1  0  0  0  0
  6 27  1  0  0  0  0
  6 53  1  0  0  0  0
  7  9  1  0  0  0  0
  7 39  1  0  0  0  0
  8 10  1  0  0  0  0
  8 40  1  0  0  0  0
  9 13  1  0  0  0  0
  9 41  1  0  0  0  0
  9 42  1  0  0  0  0
 10 13  1  0  0  0  0
 10 43  1  0  0  0  0
 10 44  1  0  0  0  0
 11 12  2  0  0  0  0
 11 14  1  0  0  0  0
 12 15  1  0  0  0  0
 13 45  1  0  0  0  0
 13 46  1  0  0  0  0
 14 19  1  0  0  0  0
 14 21  2  0  0  0  0
 15 20  1  0  0  0  0
 15 22  2  0  0  0  0
 16 19  1  0  0  0  0
 16 23  2  0  0  0  0
 17 20  1  0  0  0  0
 17 24  2  0  0  0  0
 18 25  1  0  0  0  0
 18 47  1  0  0  0  0
 18 48  1  0  0  0  0
 19 28  2  0  0  0  0
 20 29  2  0  0  0  0
 21 22  1  0  0  0  0
 21 26  1  0  0  0  0
 22 27  1  0  0  0  0
 23 30  1  0  0  0  0
 23 49  1  0  0  0  0
 24 31  1  0  0  0  0
 24 50  1  0  0  0  0
 25 34  2  0  0  0  0
 25 35  1  0  0  0  0
 28 32  1  0  0  0  0
 28 51  1  0  0  0  0
 29 33  1  0  0  0  0
 29 52  1  0  0  0  0
 30 32  2  0  0  0  0
 30 54  1  0  0  0  0
 31 33  2  0  0  0  0
 31 55  1  0  0  0  0
 32 56  1  0  0  0  0
 33 57  1  0  0  0  0
 34 36  1  0  0  0  0
 34 58  1  0  0  0  0
 35 37  2  0  0  0  0
 35 59  1  0  0  0  0
 36 38  2  0  0  0  0
 36 60  1  0  0  0  0
 37 38  1  0  0  0  0
 37 61  1  0  0  0  0
 38 62  1  0  0  0  0
M  END
> <PUBCHEM_COMPOUND_CID>
44363906

> <PUBCHEM_CONFORMER_RMSD>
0.8

> <PUBCHEM_CONFORMER_DIVERSEORDER>
1
4
3
2

> <PUBCHEM_MMFF94_PARTIAL_CHARGES>
47
1 -0.57
11 -0.05
12 -0.05
14 -0.01
15 -0.01
16 -0.15
17 -0.15
18 0.41
2 -0.57
21 0.09
22 0.09
23 -0.15
24 -0.15
25 -0.14
26 0.54
27 0.54
28 -0.15
29 -0.15
3 -0.81
30 -0.15
31 -0.15
32 -0.15
33 -0.15
34 -0.15
35 -0.15
36 -0.15
37 -0.15
38 -0.15
4 -0.04
49 0.15
5 -0.04
50 0.15
51 0.15
52 0.15
53 0.37
54 0.15
55 0.15
56 0.15
57 0.15
58 0.15
59 0.15
6 -0.49
60 0.15
61 0.15
62 0.15
7 0.53
8 0.53

> <PUBCHEM_EFFECTIVE_ROTOR_COUNT>
3

> <PUBCHEM_PHARMACOPHORE_FEATURES>
15
1 1 acceptor
1 2 acceptor
1 3 cation
1 4 cation
1 5 cation
1 6 donor
5 4 11 14 16 19 rings
5 5 12 15 17 20 rings
5 6 21 22 26 27 rings
6 11 12 14 15 21 22 rings
6 16 19 23 28 30 32 rings
6 17 20 24 29 31 33 rings
6 25 34 35 36 37 38 rings
6 3 7 8 9 10 13 rings
7 3 4 5 7 8 11 12 rings

> <PUBCHEM_HEAVY_ATOM_COUNT>
38

> <PUBCHEM_ATOM_DEF_STEREO_COUNT>
2

> <PUBCHEM_ATOM_UDEF_STEREO_COUNT>
0

> <PUBCHEM_BOND_DEF_STEREO_COUNT>
0

> <PUBCHEM_BOND_UDEF_STEREO_COUNT>
0

> <PUBCHEM_ISOTOPIC_ATOM_COUNT>
0

> <PUBCHEM_COMPONENT_COUNT>
1

> <PUBCHEM_CACTVS_TAUTO_COUNT>
2

> <PUBCHEM_CONFORMER_ID>
02A4F08200000001

> <PUBCHEM_MMFF94_ENERGY>
146.6421

> <PUBCHEM_FEATURE_SELFOVERLAP>
77.472

> <PUBCHEM_SHAPE_FINGERPRINT>
1100329 8 18192685986848057433
11049842 53 17402885627470753258
11488393 25 17766291147196214586
11513181 2 17768800215303322759
12788726 201 18196375806158174772
13140716 1 17975103716874620609
133893 2 17265010597758998874
13690498 29 18338807830520661807
13911987 19 18192429663252943445
14114211 80 18054237531520503449
14790565 3 18051697646443499921
15064981 113 18052832343229135174
15297060 5 17982451486304640064
15324884 4 17845356886436720546
15484559 13 17980732997618820055
16114785 44 17198859271005692320
17909252 39 17909843355079681116
19311894 1 18341622485702762184
19319366 153 17822854160913507323
20600515 1 18126252342893272464
20642791 35 18336819914151549019
20775438 99 17983827203163460327
21033650 10 18044969868501621254
23559900 14 18270954760282800997
394222 165 17461164253326485026
4066623 53 18121213439901050343
4280585 95 18341890801622364354
46194498 28 17912931870294463862
469060 322 17985579790797858118
5081480 168 18059307538133139864
5171179 24 18197221562053194010
57527358 35 15690461541937877473
6823239 73 18343012332983218138
70251023 43 18122351430441874915

> <PUBCHEM_SHAPE_MULTIPOLES>
750.36
9.54
6.57
2.25
5.71
3.7
0.57
-3.88
-8.71
-4.6
1.12
3.15
-0.68
1.79

> <PUBCHEM_SHAPE_SELFOVERLAP>
1746.928

> <PUBCHEM_SHAPE_VOLUME>
379.8

> <PUBCHEM_COORDINATE_TYPE>
2
5
10

$$$$
