49830464
  -OEChem-10052115183D

 47 51  0     0  0  0  0  0  0999 V2000
   -0.9947    4.7783    0.9208 F   0  0  0  0  0  0  0  0  0  0  0  0
   -1.6084   -1.6286    1.0243 N   0  0  0  0  0  0  0  0  0  0  0  0
    0.0911   -2.9140    0.7304 N   0  0  0  0  0  0  0  0  0  0  0  0
   -1.2181   -2.9115    0.9561 N   0  0  0  0  0  0  0  0  0  0  0  0
    5.4189    0.6212   -1.4353 N   0  0  0  0  0  0  0  0  0  0  0  0
    5.7192   -0.0501   -0.3065 N   0  0  0  0  0  0  0  0  0  0  0  0
   -0.5630   -0.7759    0.8455 C   0  0  0  0  0  0  0  0  0  0  0  0
    0.5078   -1.6138    0.6600 C   0  0  0  0  0  0  0  0  0  0  0  0
    1.8718   -1.2169    0.4254 C   0  0  0  0  0  0  0  0  0  0  0  0
    3.5024   -0.1375   -0.7948 C   0  0  0  0  0  0  0  0  0  0  0  0
   -2.9959   -1.3116    1.2603 C   0  0  0  0  0  0  0  0  0  0  0  0
    2.1480   -0.4349   -0.7135 C   0  0  0  0  0  0  0  0  0  0  0  0
   -0.6757    0.6619    0.8650 C   0  0  0  0  0  0  0  0  0  0  0  0
    4.5421   -0.5389    0.1225 C   0  0  0  0  0  0  0  0  0  0  0  0
    4.0981    0.6018   -1.7770 C   0  0  0  0  0  0  0  0  0  0  0  0
    2.8657   -1.6400    1.3634 C   0  0  0  0  0  0  0  0  0  0  0  0
   -3.7355   -0.8988    0.0121 C   0  0  0  0  0  0  0  0  0  0  0  0
    4.2368   -1.3203    1.2521 C   0  0  0  0  0  0  0  0  0  0  0  0
   -0.9366    1.3573   -0.3158 C   0  0  0  0  0  0  0  0  0  0  0  0
   -0.5231    1.3571    2.0646 C   0  0  0  0  0  0  0  0  0  0  0  0
    3.5942    1.2828   -2.9812 C   0  0  0  0  0  0  0  0  0  0  0  0
   -4.3763    0.3389   -0.0425 C   0  0  0  0  0  0  0  0  0  0  0  0
   -3.7783   -1.7552   -1.0880 C   0  0  0  0  0  0  0  0  0  0  0  0
   -1.0444    2.7478   -0.2970 C   0  0  0  0  0  0  0  0  0  0  0  0
   -0.6309    2.7476    2.0835 C   0  0  0  0  0  0  0  0  0  0  0  0
   -0.8916    3.4429    0.9026 C   0  0  0  0  0  0  0  0  0  0  0  0
   -5.0598    0.7203   -1.1972 C   0  0  0  0  0  0  0  0  0  0  0  0
   -4.4615   -1.3739   -2.2427 C   0  0  0  0  0  0  0  0  0  0  0  0
   -5.1023   -0.1361   -2.2971 C   0  0  0  0  0  0  0  0  0  0  0  0
   -3.4832   -2.1929    1.6955 H   0  0  0  0  0  0  0  0  0  0  0  0
   -3.0292   -0.5281    2.0263 H   0  0  0  0  0  0  0  0  0  0  0  0
    1.4061   -0.1260   -1.4368 H   0  0  0  0  0  0  0  0  0  0  0  0
    2.5620   -2.2431    2.2203 H   0  0  0  0  0  0  0  0  0  0  0  0
    4.9726   -1.6501    1.9734 H   0  0  0  0  0  0  0  0  0  0  0  0
    6.1771    1.0752   -1.9288 H   0  0  0  0  0  0  0  0  0  0  0  0
   -1.0601    0.8312   -1.2595 H   0  0  0  0  0  0  0  0  0  0  0  0
   -0.3195    0.8297    2.9936 H   0  0  0  0  0  0  0  0  0  0  0  0
    3.1539    0.5594   -3.6749 H   0  0  0  0  0  0  0  0  0  0  0  0
    4.3900    1.8149   -3.5127 H   0  0  0  0  0  0  0  0  0  0  0  0
    2.8238    2.0139   -2.7153 H   0  0  0  0  0  0  0  0  0  0  0  0
   -4.3508    1.0167    0.8066 H   0  0  0  0  0  0  0  0  0  0  0  0
   -3.2931   -2.7269   -1.0614 H   0  0  0  0  0  0  0  0  0  0  0  0
   -1.2480    3.2893   -1.2161 H   0  0  0  0  0  0  0  0  0  0  0  0
   -0.5120    3.2893    3.0171 H   0  0  0  0  0  0  0  0  0  0  0  0
   -5.5581    1.6844   -1.2398 H   0  0  0  0  0  0  0  0  0  0  0  0
   -4.4963   -2.0414   -3.0988 H   0  0  0  0  0  0  0  0  0  0  0  0
   -5.6345    0.1607   -3.1961 H   0  0  0  0  0  0  0  0  0  0  0  0
  1 26  1  0  0  0  0
  2  4  1  0  0  0  0
  2  7  1  0  0  0  0
  2 11  1  0  0  0  0
  3  4  2  0  0  0  0
  3  8  1  0  0  0  0
  5  6  1  0  0  0  0
  5 15  1  0  0  0  0
  5 35  1  0  0  0  0
  6 14  2  0  0  0  0
  7  8  2  0  0  0  0
  7 13  1  0  0  0  0
  8  9  1  0  0  0  0
  9 12  2  0  0  0  0
  9 16  1  0  0  0  0
 10 12  1  0  0  0  0
 10 14  1  0  0  0  0
 10 15  2  0  0  0  0
 11 17  1  0  0  0  0
 11 30  1  0  0  0  0
 11 31  1  0  0  0  0
 12 32  1  0  0  0  0
 13 19  2  0  0  0  0
 13 20  1  0  0  0  0
 14 18  1  0  0  0  0
 15 21  1  0  0  0  0
 16 18  2  0  0  0  0
 16 33  1  0  0  0  0
 17 22  2  0  0  0  0
 17 23  1  0  0  0  0
 18 34  1  0  0  0  0
 19 24  1  0  0  0  0
 19 36  1  0  0  0  0
 20 25  2  0  0  0  0
 20 37  1  0  0  0  0
 21 38  1  0  0  0  0
 21 39  1  0  0  0  0
 21 40  1  0  0  0  0
 22 27  1  0  0  0  0
 22 41  1  0  0  0  0
 23 28  2  0  0  0  0
 23 42  1  0  0  0  0
 24 26  2  0  0  0  0
 24 43  1  0  0  0  0
 25 26  1  0  0  0  0
 25 44  1  0  0  0  0
 27 29  2  0  0  0  0
 27 45  1  0  0  0  0
 28 29  1  0  0  0  0
 28 46  1  0  0  0  0
 29 47  1  0  0  0  0
M  END
> <PUBCHEM_COMPOUND_CID>
49830464

> <PUBCHEM_CONFORMER_RMSD>
0.8

> <PUBCHEM_CONFORMER_DIVERSEORDER>
1
18
37
33
16
32
12
21
28
10
24
31
35
14
36
29
13
26
8
25
27
34
20
22
17
19
6
15
30
3
9
23
11
2
7
4
5

> <PUBCHEM_MMFF94_PARTIAL_CHARGES>
41
1 -0.19
11 0.4
12 -0.15
13 0.05
14 0.29
15 -0.33
16 -0.15
17 -0.14
18 -0.15
19 -0.15
2 0.31
20 -0.15
21 0.18
22 -0.15
23 -0.15
24 -0.15
25 -0.15
26 0.19
27 -0.15
28 -0.15
29 -0.15
3 -0.23
32 0.15
33 0.15
34 0.15
35 0.27
36 0.15
37 0.15
4 -0.42
41 0.15
42 0.15
43 0.15
44 0.15
45 0.15
46 0.15
47 0.15
5 0.3
6 -0.71
7 -0.2
8 0.17
9 0.05

> <PUBCHEM_EFFECTIVE_ROTOR_COUNT>
4

> <PUBCHEM_PHARMACOPHORE_FEATURES>
7
1 5 donor
1 6 acceptor
5 2 3 4 7 8 rings
5 5 6 10 14 15 rings
6 13 19 20 24 25 26 rings
6 17 22 23 27 28 29 rings
6 9 10 12 14 16 18 rings

> <PUBCHEM_HEAVY_ATOM_COUNT>
29

> <PUBCHEM_ATOM_DEF_STEREO_COUNT>
0

> <PUBCHEM_ATOM_UDEF_STEREO_COUNT>
0

> <PUBCHEM_BOND_DEF_STEREO_COUNT>
0

> <PUBCHEM_BOND_UDEF_STEREO_COUNT>
0

> <PUBCHEM_ISOTOPIC_ATOM_COUNT>
0

> <PUBCHEM_COMPONENT_COUNT>
1

> <PUBCHEM_CACTVS_TAUTO_COUNT>
2

> <PUBCHEM_CONFORMER_ID>
02F85A4000000001

> <PUBCHEM_MMFF94_ENERGY>
75.6724

> <PUBCHEM_FEATURE_SELFOVERLAP>
35.656

> <PUBCHEM_SHAPE_FINGERPRINT>
10692045 39 12829747619457209400
10764073 3 12821923477290940737
11445158 3 14296802250014192831
11505856 67 17915204346070825704
12293681 160 18335136501065228371
12788726 201 18339927004598012529
13149001 5 18123744516042898827
13544653 18 14405186205094889231
13583140 156 16226060971798243432
13782708 43 16629978650732878374
13911987 19 18335426789505273311
14251757 17 17313104206667069741
14739800 52 13985476160143096871
14910302 57 17131561522538484854
15420108 30 16966873153383511858
15775530 1 17616814774572552227
15849732 13 17417269671251875523
16752209 62 18411418376059721642
17349148 13 18334293120181706302
17492 54 18334007302934900791
1813 80 17703503385104323717
19319366 153 18045495310679017915
20715895 44 17677321711123505127
20775438 99 17261561476890974791
21033648 29 13551476921130582725
21304303 64 18040443187519294645
2132832 1 17972299734443046682
22182313 1 18049434048496772555
22907989 373 18336282179460219752
23558518 356 17903923249489885731
23559900 14 18187362108787201226
2838139 119 16878214320803466551
3298306 158 17692251159136824928
3493558 16 17604143731848242639
4017518 198 16694400398488782552
465052 167 11671488058853431335
532947 4 18053936531047822944
6913067 236 17561075900333268046
7164475 11 18198053677886994298
999808 66 11455353691175368644

> <PUBCHEM_SHAPE_MULTIPOLES>
564.63
10.8
3.54
2.31
3.47
3.54
-1.12
-2.55
-7.72
-1.8
1.9
0.11
0.61
-1.93

> <PUBCHEM_SHAPE_SELFOVERLAP>
1268.28

> <PUBCHEM_SHAPE_VOLUME>
301.1

> <PUBCHEM_COORDINATE_TYPE>
2
5
10

$$$$
