71583657
  -OEChem-10062121573D

 57 61  0     0  0  0  0  0  0999 V2000
   -2.4160   -1.5436    3.4478 Cl  0  0  0  0  0  0  0  0  0  0  0  0
   -7.0929    0.9035   -2.3818 S   0  0  0  0  0  0  0  0  0  0  0  0
   -3.9024    0.0820    1.4009 O   0  0  0  0  0  0  0  0  0  0  0  0
    5.1906   -2.9783   -0.2587 O   0  0  0  0  0  0  0  0  0  0  0  0
    0.9643   -3.6402    0.9648 O   0  0  0  0  0  0  0  0  0  0  0  0
    5.3031    2.0437   -1.4604 N   0  0  0  0  0  0  0  0  0  0  0  0
    1.5700    1.0303    1.5406 N   0  0  0  0  0  0  0  0  0  0  0  0
    3.8863    3.6544   -0.6094 N   0  0  0  0  0  0  0  0  0  0  0  0
    2.9501   -2.7455   -0.8610 N   0  0  0  0  0  0  0  0  0  0  0  0
    2.0805    3.2016    0.8925 N   0  0  0  0  0  0  0  0  0  0  0  0
    5.3833   -0.3834   -1.7816 C   0  0  0  0  0  0  0  0  0  0  0  0
    6.1247    0.8635   -1.3323 C   0  0  0  0  0  0  0  0  0  0  0  0
    4.3690   -0.8422   -0.7832 C   0  0  0  0  0  0  0  0  0  0  0  0
    3.4485    1.3820    0.0161 C   0  0  0  0  0  0  0  0  0  0  0  0
    4.2064    2.3318   -0.6744 C   0  0  0  0  0  0  0  0  0  0  0  0
    3.5832   -0.0866   -0.0011 C   0  0  0  0  0  0  0  0  0  0  0  0
    2.4037    1.8981    0.7894 C   0  0  0  0  0  0  0  0  0  0  0  0
    4.2303   -2.2969   -0.6026 C   0  0  0  0  0  0  0  0  0  0  0  0
    0.1890    0.7855    1.5111 C   0  0  0  0  0  0  0  0  0  0  0  0
    2.5644   -4.1345   -0.7539 C   0  0  0  0  0  0  0  0  0  0  0  0
    2.8509    4.0158    0.1678 C   0  0  0  0  0  0  0  0  0  0  0  0
   -5.4150    0.3726   -0.4875 C   0  0  0  0  0  0  0  0  0  0  0  0
   -0.3735   -0.1444    2.3854 C   0  0  0  0  0  0  0  0  0  0  0  0
   -0.6216    1.4725    0.6075 C   0  0  0  0  0  0  0  0  0  0  0  0
   -2.5575    0.2996    1.4525 C   0  0  0  0  0  0  0  0  0  0  0  0
   -4.4331   -0.3744    0.2071 C   0  0  0  0  0  0  0  0  0  0  0  0
   -5.9120   -0.1442   -1.6880 C   0  0  0  0  0  0  0  0  0  0  0  0
   -1.7469   -0.3873    2.3562 C   0  0  0  0  0  0  0  0  0  0  0  0
   -1.9948    1.2294    0.5781 C   0  0  0  0  0  0  0  0  0  0  0  0
    2.0723   -4.4706    0.6420 C   0  0  0  0  0  0  0  0  0  0  0  0
   -3.9801   -1.5940   -0.3030 C   0  0  0  0  0  0  0  0  0  0  0  0
   -6.0284    1.6309   -0.1703 C   0  0  0  0  0  0  0  0  0  0  0  0
   -5.4578   -1.3734   -2.2047 C   0  0  0  0  0  0  0  0  0  0  0  0
   -4.4887   -2.0864   -1.4964 C   0  0  0  0  0  0  0  0  0  0  0  0
   -6.9498    2.0289   -1.1096 C   0  0  0  0  0  0  0  0  0  0  0  0
    6.1294   -1.1734   -1.9341 H   0  0  0  0  0  0  0  0  0  0  0  0
    4.8939   -0.2243   -2.7504 H   0  0  0  0  0  0  0  0  0  0  0  0
    6.5069    0.7657   -0.3083 H   0  0  0  0  0  0  0  0  0  0  0  0
    7.0013    0.9953   -1.9778 H   0  0  0  0  0  0  0  0  0  0  0  0
    2.9546   -0.6367    0.6938 H   0  0  0  0  0  0  0  0  0  0  0  0
    5.7217    2.8431   -1.9251 H   0  0  0  0  0  0  0  0  0  0  0  0
    2.0843    0.4343    2.1827 H   0  0  0  0  0  0  0  0  0  0  0  0
    2.2329   -2.0875   -1.1530 H   0  0  0  0  0  0  0  0  0  0  0  0
    3.4145   -4.7703   -1.0213 H   0  0  0  0  0  0  0  0  0  0  0  0
    1.7641   -4.2897   -1.4850 H   0  0  0  0  0  0  0  0  0  0  0  0
    2.6218    5.0731    0.2095 H   0  0  0  0  0  0  0  0  0  0  0  0
    0.2604   -0.6804    3.0888 H   0  0  0  0  0  0  0  0  0  0  0  0
   -0.2149    2.1970   -0.0920 H   0  0  0  0  0  0  0  0  0  0  0  0
   -2.6104    1.7816   -0.1269 H   0  0  0  0  0  0  0  0  0  0  0  0
    2.8570   -4.3002    1.3863 H   0  0  0  0  0  0  0  0  0  0  0  0
    1.7538   -5.5161    0.6934 H   0  0  0  0  0  0  0  0  0  0  0  0
   -3.2345   -2.1789    0.2292 H   0  0  0  0  0  0  0  0  0  0  0  0
   -5.7994    2.2164    0.7116 H   0  0  0  0  0  0  0  0  0  0  0  0
   -5.8505   -1.7669   -3.1380 H   0  0  0  0  0  0  0  0  0  0  0  0
   -4.1324   -3.0369   -1.8841 H   0  0  0  0  0  0  0  0  0  0  0  0
   -7.5455    2.9308   -1.1059 H   0  0  0  0  0  0  0  0  0  0  0  0
    0.6793   -3.8806    1.8629 H   0  0  0  0  0  0  0  0  0  0  0  0
  1 28  1  0  0  0  0
  2 27  1  0  0  0  0
  2 35  1  0  0  0  0
  3 25  1  0  0  0  0
  3 26  1  0  0  0  0
  4 18  2  0  0  0  0
  5 30  1  0  0  0  0
  5 57  1  0  0  0  0
  6 12  1  0  0  0  0
  6 15  1  0  0  0  0
  6 41  1  0  0  0  0
  7 17  1  0  0  0  0
  7 19  1  0  0  0  0
  7 42  1  0  0  0  0
  8 15  1  0  0  0  0
  8 21  2  0  0  0  0
  9 18  1  0  0  0  0
  9 20  1  0  0  0  0
  9 43  1  0  0  0  0
 10 17  2  0  0  0  0
 10 21  1  0  0  0  0
 11 12  1  0  0  0  0
 11 13  1  0  0  0  0
 11 36  1  0  0  0  0
 11 37  1  0  0  0  0
 12 38  1  0  0  0  0
 12 39  1  0  0  0  0
 13 16  2  0  0  0  0
 13 18  1  0  0  0  0
 14 15  2  0  0  0  0
 14 16  1  0  0  0  0
 14 17  1  0  0  0  0
 16 40  1  0  0  0  0
 19 23  2  0  0  0  0
 19 24  1  0  0  0  0
 20 30  1  0  0  0  0
 20 44  1  0  0  0  0
 20 45  1  0  0  0  0
 21 46  1  0  0  0  0
 22 26  2  0  0  0  0
 22 27  1  0  0  0  0
 22 32  1  0  0  0  0
 23 28  1  0  0  0  0
 23 47  1  0  0  0  0
 24 29  2  0  0  0  0
 24 48  1  0  0  0  0
 25 28  2  0  0  0  0
 25 29  1  0  0  0  0
 26 31  1  0  0  0  0
 27 33  2  0  0  0  0
 29 49  1  0  0  0  0
 30 50  1  0  0  0  0
 30 51  1  0  0  0  0
 31 34  2  0  0  0  0
 31 52  1  0  0  0  0
 32 35  2  0  0  0  0
 32 53  1  0  0  0  0
 33 34  1  0  0  0  0
 33 54  1  0  0  0  0
 34 55  1  0  0  0  0
 35 56  1  0  0  0  0
M  END
> <PUBCHEM_COMPOUND_CID>
71583657

> <PUBCHEM_CONFORMER_RMSD>
1.2

> <PUBCHEM_CONFORMER_DIVERSEORDER>
1
105
85
68
186
71
63
166
157
131
134
122
177
116
137
117
119
191
72
81
162
164
178
149
125
113
60
4
139
130
86
182
184
124
142
47
169
49
34
161
40
102
145
50
167
163
75
173
190
174
103
187
126
74
128
129
183
192
155
45
97
156
148
108
179
73
43
158
160
101
171
115
87
23
66
147
123
141
185
92
180
56
20
6
80
150
146
82
133
65
118
51
170
61
93
132
109
165
95
121
70
88
152
107
15
127
79
78
54
83
11
76
94
175
98
5
189
151
42
176
96
25
67
52
59
9
135
27
120
114
154
89
77
62
136
90
44
172
48
53
18
28
38
111
181
2
14
37
10
33
100
19
13
69
143
140
91
106
31
26
29
159
138
12
32
22
8
188
17
55
41
35
112
57
7
39
153
24
99
168
3
84
16
36
21
110
46
104
58
30
64
144

> <PUBCHEM_MMFF94_PARTIAL_CHARGES>
48
1 -0.18
10 -0.62
11 0.14
12 0.37
13 -0.12
14 0.03
15 0.41
16 -0.18
17 0.41
18 0.62
19 0.1
2 -0.08
20 0.3
21 0.47
23 -0.15
24 -0.15
25 0.08
26 0.08
27 0.04
28 0.18
29 -0.15
3 -0.17
30 0.28
31 -0.15
32 -0.15
33 -0.15
34 -0.15
35 -0.11
4 -0.57
40 0.15
41 0.4
42 0.4
43 0.37
46 0.15
47 0.15
48 0.15
49 0.15
5 -0.68
52 0.15
53 0.15
54 0.15
55 0.15
56 0.15
57 0.4
6 -0.87
7 -0.6
8 -0.62
9 -0.73

> <PUBCHEM_EFFECTIVE_ROTOR_COUNT>
8.6

> <PUBCHEM_PHARMACOPHORE_FEATURES>
15
1 3 acceptor
1 4 acceptor
1 5 acceptor
1 5 donor
1 6 cation
1 6 donor
1 7 donor
1 9 donor
3 7 10 17 cation
3 8 10 21 cation
5 2 22 27 32 35 rings
6 19 23 24 25 28 29 rings
6 22 26 27 31 33 34 rings
6 8 10 14 15 17 21 rings
7 6 11 12 13 14 15 16 rings

> <PUBCHEM_HEAVY_ATOM_COUNT>
35

> <PUBCHEM_ATOM_DEF_STEREO_COUNT>
0

> <PUBCHEM_ATOM_UDEF_STEREO_COUNT>
0

> <PUBCHEM_BOND_DEF_STEREO_COUNT>
0

> <PUBCHEM_BOND_UDEF_STEREO_COUNT>
0

> <PUBCHEM_ISOTOPIC_ATOM_COUNT>
0

> <PUBCHEM_COMPONENT_COUNT>
1

> <PUBCHEM_CACTVS_TAUTO_COUNT>
30

> <PUBCHEM_CONFORMER_ID>
044447A900000001

> <PUBCHEM_MMFF94_ENERGY>
123.2919

> <PUBCHEM_FEATURE_SELFOVERLAP>
76.346

> <PUBCHEM_SHAPE_FINGERPRINT>
105312 117 16950280749947519483
10556698 54 17608068894355646885
10622 236 18058172721916557498
10721379 63 17969488330175518819
11093857 51 17704064079989951422
11135609 201 11531065017669700868
12422481 6 11603079713500663158
12975358 362 13625475059736627351
13383661 66 17263842985019871539
1361 2 18338797939374119196
13782708 43 12679194777514818756
14747281 78 17677050123578111363
14931854 50 18271818916957700006
15001296 14 17059193995023063719
15183329 4 18341891879580443845
15250474 111 18131354064024586415
15274700 21 18118697736751153843
15297060 5 15213022648334869328
15324884 4 17756728677490408880
15328829 1 17345494629858327771
15351334 14 18040149601098578695
15530120 55 18055343889352946429
15721738 15 18410570708197536329
15950262 2 15721108178758868004
17138139 8 17559953397508231822
18470217 77 13542192632688923723
19315092 285 17488737866738057906
19377110 9 11386375833443656041
21133410 171 17248337220762204946
21223535 225 17895182290947324805
21585480 29 9870878304941348245
23559900 14 18343015610106614273
23569914 152 17904464226427154309
312425 54 10591500433398311765
38570 142 18113897123097144857
3882209 13 17755571652024325842
4015057 19 18410020909475621521
4066623 53 17604985919501573556
4098825 35 18411140260417193111
42767 28 18201721785995052079
463206 1 18341624684990385842
59682541 52 18411976953699720061

> <PUBCHEM_SHAPE_MULTIPOLES>
683.49
17.45
4.77
2.48
15.06
2.55
1.26
-4.03
-14.33
-7.6
-0.31
2.72
0.69
0.42

> <PUBCHEM_SHAPE_SELFOVERLAP>
1478.021

> <PUBCHEM_SHAPE_VOLUME>
376

> <PUBCHEM_COORDINATE_TYPE>
2
5
10

$$$$
