44414322
  -OEChem-10052120443D

 37 41  0     0  0  0  0  0  0999 V2000
   -6.4153   -0.9389   -1.0329 S   0  0  0  0  0  0  0  0  0  0  0  0
   -1.3165    1.7850    0.9005 N   0  0  0  0  0  0  0  0  0  0  0  0
   -2.6510    1.8857    0.6699 N   0  0  0  0  0  0  0  0  0  0  0  0
    4.7875    0.2126    0.1247 N   0  0  0  0  0  0  0  0  0  0  0  0
    6.1709    0.6758   -1.5495 N   0  0  0  0  0  0  0  0  0  0  0  0
   -1.5130   -1.5703   -0.2699 C   0  0  0  0  0  0  0  0  0  0  0  0
   -1.8954   -0.1846    0.1215 C   0  0  0  0  0  0  0  0  0  0  0  0
    0.3585   -0.1805    0.5698 C   0  0  0  0  0  0  0  0  0  0  0  0
   -0.0129   -1.4587    0.0656 C   0  0  0  0  0  0  0  0  0  0  0  0
   -0.8490    0.5646    0.5814 C   0  0  0  0  0  0  0  0  0  0  0  0
   -2.9929    0.6735    0.1933 C   0  0  0  0  0  0  0  0  0  0  0  0
    1.6496    0.1323    0.9308 C   0  0  0  0  0  0  0  0  0  0  0  0
    2.6089   -0.8718    0.7828 C   0  0  0  0  0  0  0  0  0  0  0  0
    0.9442   -2.4473   -0.0774 C   0  0  0  0  0  0  0  0  0  0  0  0
    2.2615   -2.1446    0.2855 C   0  0  0  0  0  0  0  0  0  0  0  0
    4.0280   -0.5954    1.1566 C   0  0  0  0  0  0  0  0  0  0  0  0
   -4.3420    0.3242   -0.1928 C   0  0  0  0  0  0  0  0  0  0  0  0
   -5.4284    1.2412   -0.0989 C   0  0  0  0  0  0  0  0  0  0  0  0
   -4.7390   -0.8995   -0.6855 C   0  0  0  0  0  0  0  0  0  0  0  0
    4.7108    1.5642   -0.0610 C   0  0  0  0  0  0  0  0  0  0  0  0
    5.6762   -0.2774   -0.7914 C   0  0  0  0  0  0  0  0  0  0  0  0
   -6.6142    0.6838   -0.5238 C   0  0  0  0  0  0  0  0  0  0  0  0
    5.5732    1.8263   -1.0993 C   0  0  0  0  0  0  0  0  0  0  0  0
   -1.6565   -1.7561   -1.3371 H   0  0  0  0  0  0  0  0  0  0  0  0
   -1.9926   -2.3269    0.3557 H   0  0  0  0  0  0  0  0  0  0  0  0
    1.9033    1.1125    1.3183 H   0  0  0  0  0  0  0  0  0  0  0  0
    0.6880   -3.4292   -0.4595 H   0  0  0  0  0  0  0  0  0  0  0  0
   -0.8245    2.5899    1.2696 H   0  0  0  0  0  0  0  0  0  0  0  0
    3.0234   -2.9133    0.1755 H   0  0  0  0  0  0  0  0  0  0  0  0
    4.0955   -0.0159    2.0854 H   0  0  0  0  0  0  0  0  0  0  0  0
    4.6097   -1.5139    1.2983 H   0  0  0  0  0  0  0  0  0  0  0  0
   -5.3643    2.2616    0.2589 H   0  0  0  0  0  0  0  0  0  0  0  0
   -4.1529   -1.7875   -0.8691 H   0  0  0  0  0  0  0  0  0  0  0  0
    4.0791    2.2024    0.5404 H   0  0  0  0  0  0  0  0  0  0  0  0
    5.9205   -1.3285   -0.8598 H   0  0  0  0  0  0  0  0  0  0  0  0
   -7.5878    1.1518   -0.5596 H   0  0  0  0  0  0  0  0  0  0  0  0
    5.7952    2.7851   -1.5444 H   0  0  0  0  0  0  0  0  0  0  0  0
  1 19  1  0  0  0  0
  1 22  1  0  0  0  0
  2  3  1  0  0  0  0
  2 10  1  0  0  0  0
  2 28  1  0  0  0  0
  3 11  2  0  0  0  0
  4 16  1  0  0  0  0
  4 20  1  0  0  0  0
  4 21  1  0  0  0  0
  5 21  2  0  0  0  0
  5 23  1  0  0  0  0
  6  7  1  0  0  0  0
  6  9  1  0  0  0  0
  6 24  1  0  0  0  0
  6 25  1  0  0  0  0
  7 10  2  0  0  0  0
  7 11  1  0  0  0  0
  8  9  2  0  0  0  0
  8 10  1  0  0  0  0
  8 12  1  0  0  0  0
  9 14  1  0  0  0  0
 11 17  1  0  0  0  0
 12 13  2  0  0  0  0
 12 26  1  0  0  0  0
 13 15  1  0  0  0  0
 13 16  1  0  0  0  0
 14 15  2  0  0  0  0
 14 27  1  0  0  0  0
 15 29  1  0  0  0  0
 16 30  1  0  0  0  0
 16 31  1  0  0  0  0
 17 18  1  0  0  0  0
 17 19  2  0  0  0  0
 18 22  2  0  0  0  0
 18 32  1  0  0  0  0
 19 33  1  0  0  0  0
 20 23  2  0  0  0  0
 20 34  1  0  0  0  0
 21 35  1  0  0  0  0
 22 36  1  0  0  0  0
 23 37  1  0  0  0  0
M  END
> <PUBCHEM_COMPOUND_CID>
44414322

> <PUBCHEM_CONFORMER_RMSD>
0.6

> <PUBCHEM_CONFORMER_DIVERSEORDER>
1
51
55
42
45
46
2
56
54
35
50
24
53
18
47
44
39
43
30
27
49
17
5
48
28
57
37
26
52
33
58
36
41
34
14
8
38
25
29
23
7
13
31
12
40
21
4
32
6
22
19
15
11
9
20
16
3
10

> <PUBCHEM_MMFF94_PARTIAL_CHARGES>
32
1 -0.08
10 -0.2
11 0.29
12 -0.15
13 -0.14
14 -0.15
15 -0.15
16 0.4
18 -0.15
19 -0.11
2 0.3
20 -0.3
21 0.04
22 -0.11
23 0.08
26 0.15
27 0.15
28 0.27
29 0.15
3 -0.71
32 0.15
33 0.15
34 0.15
35 0.15
36 0.15
37 0.15
4 0.05
5 -0.57
6 0.32
7 -0.18
8 0.05
9 -0.14

> <PUBCHEM_EFFECTIVE_ROTOR_COUNT>
3.2

> <PUBCHEM_PHARMACOPHORE_FEATURES>
8
1 2 donor
1 3 acceptor
3 4 5 21 cation
5 1 17 18 19 22 rings
5 2 3 7 10 11 rings
5 4 5 20 21 23 rings
5 6 7 8 9 10 rings
6 8 9 12 13 14 15 rings

> <PUBCHEM_HEAVY_ATOM_COUNT>
23

> <PUBCHEM_ATOM_DEF_STEREO_COUNT>
0

> <PUBCHEM_ATOM_UDEF_STEREO_COUNT>
0

> <PUBCHEM_BOND_DEF_STEREO_COUNT>
0

> <PUBCHEM_BOND_UDEF_STEREO_COUNT>
0

> <PUBCHEM_ISOTOPIC_ATOM_COUNT>
0

> <PUBCHEM_COMPONENT_COUNT>
1

> <PUBCHEM_CACTVS_TAUTO_COUNT>
2

> <PUBCHEM_CONFORMER_ID>
02A5B57200000001

> <PUBCHEM_MMFF94_ENERGY>
62.1188

> <PUBCHEM_FEATURE_SELFOVERLAP>
40.936

> <PUBCHEM_SHAPE_FINGERPRINT>
10 15 12540700331618748622
10090160 65 18261386728773473915
10366900 7 18343580746303813099
10554248 39 18118380892290810935
10591671 39 18409452517951850295
10670039 82 18340494366094899692
10753850 27 13326582822250758228
10906281 52 18341342110976430683
11488393 25 16916243056427678598
11796584 16 13758068606317554300
12236239 1 18333446534687605271
12390115 104 17560528275013102465
12954195 1 17417823802598292201
13533116 47 15864620666478760992
13540713 5 17984990284401704635
13685833 64 13830133888710847420
13782708 43 13758065321021202101
13899415 154 18060700606797128617
14251764 30 15051728707576346543
14528608 73 18410292519065543820
14767858 380 18412538842880225703
14787075 74 18410005533846213875
14790565 3 18342176652812326617
14840074 17 17968099737147202900
14931854 50 18270133404551243060
15183329 4 18339936935548578278
15196674 1 18199741467386149883
15301273 46 12973881490888086066
15575132 122 18187643574720179877
15961568 22 17822011982240689356
18335252 114 18186517705552834780
19784866 140 15841554050388619050
1979834 28 12324235040926459336
20567600 234 15574721317306424782
21049683 118 17604695820314760448
21049683 271 18336827593806398837
21150785 3 18187079590164533719
21267235 1 18130784608171566935
21298829 104 18186808010598067788
21344244 181 16630533950875129750
21344244 246 17631183987758170974
21344244 78 17824516632007422416
21365058 113 15554448534634999712
21424621 283 16298942040707578749
21637258 2 14045741504272420310
21641784 216 18337959991044218853
22122407 14 16298401170711710364
221357 26 17846780706860625312
2297311 6 17275106128683349721
2303208 19 16056875857984313303
23366157 5 18049164363047520658
23522609 53 18058189274810506073
23559900 14 18130497651825154481
25147074 1 18128822932306749371
3004659 81 18341611461361003186
33382 64 14189582918574988188
335352 9 18335425656651655214
3472631 163 18262525909246476556
34797466 226 18343027687332922573
397830 11 16009048214451488841
4073 2 18186804661098186875
4325135 7 18410571773633664647
4340502 62 16805323271245047763
465052 167 10591757709990926712
474 4 17749396992285052992
513202 73 13038919815168003611
5207 217 18334295396334830315
53794403 172 18120654888532911252
5486654 2 18342172272156713503
59755656 215 17489870423005386967

> <PUBCHEM_SHAPE_MULTIPOLES>
457.25
16.31
2.06
1.07
2.43
0.35
-0.13
-5.41
-7.07
-0.77
-0.03
-0.85
-0.14
-1.52

> <PUBCHEM_SHAPE_SELFOVERLAP>
1027.586

> <PUBCHEM_SHAPE_VOLUME>
246.3

> <PUBCHEM_COORDINATE_TYPE>
2
5
10

$$$$
