9857146
  -OEChem-10062122023D

 34 37  0     0  0  0  0  0  0999 V2000
    5.5671    0.9706   -0.0026 F   0  0  0  0  0  0  0  0  0  0  0  0
   -1.9709    1.7963    0.0014 N   0  0  0  0  0  0  0  0  0  0  0  0
   -0.6564    2.1480    0.0032 N   0  0  0  0  0  0  0  0  0  0  0  0
    0.0047   -4.2732   -0.0013 N   0  0  0  0  0  0  0  0  0  0  0  0
   -0.8470   -0.1288    0.0014 C   0  0  0  0  0  0  0  0  0  0  0  0
   -2.1124    0.4044    0.0004 C   0  0  0  0  0  0  0  0  0  0  0  0
    0.0019    0.9882    0.0032 C   0  0  0  0  0  0  0  0  0  0  0  0
   -0.5588   -1.5334    0.0004 C   0  0  0  0  0  0  0  0  0  0  0  0
    1.4434    0.9837    0.0016 C   0  0  0  0  0  0  0  0  0  0  0  0
   -3.4286   -0.1371   -0.0017 C   0  0  0  0  0  0  0  0  0  0  0  0
   -3.0801    2.6497    0.0004 C   0  0  0  0  0  0  0  0  0  0  0  0
   -4.4882    0.6929   -0.0026 C   0  0  0  0  0  0  0  0  0  0  0  0
   -4.3198    2.1350   -0.0016 C   0  0  0  0  0  0  0  0  0  0  0  0
    2.1339    0.9843   -1.2071 C   0  0  0  0  0  0  0  0  0  0  0  0
    2.1365    0.9786    1.2089 C   0  0  0  0  0  0  0  0  0  0  0  0
   -0.4191   -2.2201    1.2025 C   0  0  0  0  0  0  0  0  0  0  0  0
   -0.4164   -2.2179   -1.2027 C   0  0  0  0  0  0  0  0  0  0  0  0
    3.5289    0.9798   -1.2084 C   0  0  0  0  0  0  0  0  0  0  0  0
    3.5314    0.9742    1.2075 C   0  0  0  0  0  0  0  0  0  0  0  0
    4.2276    0.9749   -0.0012 C   0  0  0  0  0  0  0  0  0  0  0  0
   -0.1403   -3.5761    1.1479 C   0  0  0  0  0  0  0  0  0  0  0  0
   -0.1374   -3.5741   -1.1496 C   0  0  0  0  0  0  0  0  0  0  0  0
   -3.5739   -1.2121   -0.0025 H   0  0  0  0  0  0  0  0  0  0  0  0
   -2.8875    3.7156    0.0012 H   0  0  0  0  0  0  0  0  0  0  0  0
   -5.4999    0.3021   -0.0042 H   0  0  0  0  0  0  0  0  0  0  0  0
   -5.2001    2.7661   -0.0025 H   0  0  0  0  0  0  0  0  0  0  0  0
    1.6036    0.9875   -2.1564 H   0  0  0  0  0  0  0  0  0  0  0  0
    1.6081    0.9772    2.1592 H   0  0  0  0  0  0  0  0  0  0  0  0
   -0.5217   -1.7226    2.1617 H   0  0  0  0  0  0  0  0  0  0  0  0
   -0.5169   -1.7187   -2.1613 H   0  0  0  0  0  0  0  0  0  0  0  0
    4.0713    0.9800   -2.1492 H   0  0  0  0  0  0  0  0  0  0  0  0
    4.0758    0.9700    2.1472 H   0  0  0  0  0  0  0  0  0  0  0  0
   -0.0219   -4.1558    2.0573 H   0  0  0  0  0  0  0  0  0  0  0  0
   -0.0168   -4.1522   -2.0598 H   0  0  0  0  0  0  0  0  0  0  0  0
  1 20  1  0  0  0  0
  2  3  1  0  0  0  0
  2  6  1  0  0  0  0
  2 11  1  0  0  0  0
  3  7  2  0  0  0  0
  4 21  2  0  0  0  0
  4 22  1  0  0  0  0
  5  6  2  0  0  0  0
  5  7  1  0  0  0  0
  5  8  1  0  0  0  0
  6 10  1  0  0  0  0
  7  9  1  0  0  0  0
  8 16  2  0  0  0  0
  8 17  1  0  0  0  0
  9 14  2  0  0  0  0
  9 15  1  0  0  0  0
 10 12  2  0  0  0  0
 10 23  1  0  0  0  0
 11 13  2  0  0  0  0
 11 24  1  0  0  0  0
 12 13  1  0  0  0  0
 12 25  1  0  0  0  0
 13 26  1  0  0  0  0
 14 18  1  0  0  0  0
 14 27  1  0  0  0  0
 15 19  2  0  0  0  0
 15 28  1  0  0  0  0
 16 21  1  0  0  0  0
 16 29  1  0  0  0  0
 17 22  2  0  0  0  0
 17 30  1  0  0  0  0
 18 20  2  0  0  0  0
 18 31  1  0  0  0  0
 19 20  1  0  0  0  0
 19 32  1  0  0  0  0
 21 33  1  0  0  0  0
 22 34  1  0  0  0  0
M  END
> <PUBCHEM_COMPOUND_CID>
9857146

> <PUBCHEM_CONFORMER_RMSD>
0.6

> <PUBCHEM_CONFORMER_DIVERSEORDER>
1
2

> <PUBCHEM_MMFF94_PARTIAL_CHARGES>
34
1 -0.19
10 -0.11
11 -0.18
12 -0.15
13 -0.15
14 -0.15
15 -0.15
16 -0.15
17 -0.15
18 -0.15
19 -0.15
2 0.6
20 0.19
21 0.16
22 0.16
23 0.15
24 0.15
25 0.15
26 0.15
27 0.15
28 0.15
29 0.15
3 -0.71
30 0.15
31 0.15
32 0.15
33 0.15
34 0.15
4 -0.62
5 -0.05
6 -0.2
7 0.23
8 0.05
9 0.05

> <PUBCHEM_EFFECTIVE_ROTOR_COUNT>
2

> <PUBCHEM_PHARMACOPHORE_FEATURES>
6
1 3 acceptor
1 4 acceptor
5 2 3 5 6 7 rings
6 2 6 10 11 12 13 rings
6 4 8 16 17 21 22 rings
6 9 14 15 18 19 20 rings

> <PUBCHEM_HEAVY_ATOM_COUNT>
22

> <PUBCHEM_ATOM_DEF_STEREO_COUNT>
0

> <PUBCHEM_ATOM_UDEF_STEREO_COUNT>
0

> <PUBCHEM_BOND_DEF_STEREO_COUNT>
0

> <PUBCHEM_BOND_UDEF_STEREO_COUNT>
0

> <PUBCHEM_ISOTOPIC_ATOM_COUNT>
0

> <PUBCHEM_COMPONENT_COUNT>
1

> <PUBCHEM_CACTVS_TAUTO_COUNT>
1

> <PUBCHEM_CONFORMER_ID>
0096687A00000001

> <PUBCHEM_MMFF94_ENERGY>
62.1807

> <PUBCHEM_FEATURE_SELFOVERLAP>
30.558

> <PUBCHEM_SHAPE_FINGERPRINT>
10411042 1 17474108082329978414
107951 10 18114197332288774690
116883 192 17694217077352762703
11963148 33 18334571391683254411
12035759 4 17984668252555298143
12236239 1 17748826323922583464
12500047 106 18341328981161147208
12553582 1 17328875803446191998
12592029 89 18335986350575939547
12788726 201 17828777470533392802
12839892 36 18336532842520715571
13140716 1 18266179430980600755
13257819 101 17023726932771823141
133893 2 17905340519687691633
13540713 4 17899706653058351125
13540713 5 17912635805978551569
13681431 1 17620477909023499531
14790565 3 18410018740523431017
14844126 61 18122617516993590058
15042514 8 18192999446283060955
15664445 248 17191515503757873823
15906896 17 18263364870187228523
15927050 60 18412262826855343278
16752209 62 18264762341018446675
19591789 44 18411980234875229979
20028762 73 18056485182697007031
20197701 30 18410289190186132862
20554085 129 18057018273241013569
20567600 347 18409452449337855575
20645476 183 18041001790416809220
20681677 155 18336263539871893520
20905425 154 17692535515866974614
21033648 29 18271512169840194384
21421861 104 17834968472801632937
21524375 3 18410855447433222469
22956985 138 17898566475984170947
23184049 29 17689429807909233448
23366157 5 17828209796368737745
23402539 116 18343013410994058052
23419403 2 17621654541189927507
23557571 272 17983578795462078000
23559900 14 17763457323500432223
23598288 3 17825968175596012490
23728640 28 18337107990081335882
25147074 1 17912918397593972685
298252 57 18335139803810748024
3091708 16 9266434938328075635
3411729 13 18193276287248450761
352729 6 18262816171415083265
3759504 43 18334579070070955012
43471831 8 18337952286167398697
474229 33 18408888468824099473
5104073 3 17979366257790717097
5265222 85 18339652239282936212
5385378 56 18196379117646843985
59755656 215 18119811309483924861
6138700 20 18050575045562216222
633830 44 18060414694903559493
7364860 26 18053660270493159787
81228 2 17908408505174297307
81539 233 18263359205499476285
9841814 1 17541383441000179467
9981440 41 18335706009781883473

> <PUBCHEM_SHAPE_MULTIPOLES>
430.53
7.44
4.29
1.14
2.95
6.05
0
-7.6
0.01
-1.48
0
0.74
0.47
0

> <PUBCHEM_SHAPE_SELFOVERLAP>
971.78

> <PUBCHEM_SHAPE_VOLUME>
227.1

> <PUBCHEM_COORDINATE_TYPE>
2
5
10

$$$$
