44593713
  -OEChem-10062122023D

 63 66  0     0  0  0  0  0  0999 V2000
   -4.6166    1.4256    0.8677 O   0  0  0  0  0  0  0  0  0  0  0  0
    3.5181   -4.6854    0.8010 O   0  0  0  0  0  0  0  0  0  0  0  0
    2.3248    2.5679   -0.4141 O   0  0  0  0  0  0  0  0  0  0  0  0
   -4.6739   -0.7968    0.0954 N   0  0  0  0  0  0  0  0  0  0  0  0
    0.8200   -1.4296    0.4314 N   0  0  0  0  0  0  0  0  0  0  0  0
    0.0939    0.6144   -0.0534 N   0  0  0  0  0  0  0  0  0  0  0  0
    2.4653    0.2739    0.1065 N   0  0  0  0  0  0  0  0  0  0  0  0
    3.8882   -4.6936   -1.4680 N   0  0  0  0  0  0  0  0  0  0  0  0
    9.8152    2.1845    0.0736 N   0  0  0  0  0  0  0  0  0  0  0  0
   -6.6905    0.6295    0.1215 C   0  0  0  0  0  0  0  0  0  0  0  0
   -7.3001    1.6353    1.0990 C   0  0  0  0  0  0  0  0  0  0  0  0
   -6.8682    1.0792   -1.3298 C   0  0  0  0  0  0  0  0  0  0  0  0
   -8.7647    1.9161    0.7725 C   0  0  0  0  0  0  0  0  0  0  0  0
   -8.3326    1.3641   -1.6533 C   0  0  0  0  0  0  0  0  0  0  0  0
   -8.9413    2.3653   -0.6754 C   0  0  0  0  0  0  0  0  0  0  0  0
   -5.2308    0.4584    0.4103 C   0  0  0  0  0  0  0  0  0  0  0  0
   -3.2488   -1.0380    0.2013 C   0  0  0  0  0  0  0  0  0  0  0  0
   -5.4886   -1.8947   -0.4478 C   0  0  0  0  0  0  0  0  0  0  0  0
   -0.5479   -1.5237    0.4049 C   0  0  0  0  0  0  0  0  0  0  0  0
   -2.3551    0.0203   -0.0054 C   0  0  0  0  0  0  0  0  0  0  0  0
   -0.9776   -0.2352    0.1002 C   0  0  0  0  0  0  0  0  0  0  0  0
   -2.7871   -2.3206    0.5059 C   0  0  0  0  0  0  0  0  0  0  0  0
   -1.4194   -2.5927    0.6149 C   0  0  0  0  0  0  0  0  0  0  0  0
    1.7363   -2.5151    0.7028 C   0  0  0  0  0  0  0  0  0  0  0  0
    1.1546   -0.1338    0.1519 C   0  0  0  0  0  0  0  0  0  0  0  0
    2.3801   -3.0450   -0.5770 C   0  0  0  0  0  0  0  0  0  0  0  0
    3.3072   -4.2153   -0.3131 C   0  0  0  0  0  0  0  0  0  0  0  0
    2.9819    1.5628   -0.1650 C   0  0  0  0  0  0  0  0  0  0  0  0
    4.4613    1.6978   -0.1143 C   0  0  0  0  0  0  0  0  0  0  0  0
    5.0393    2.9288    0.1963 C   0  0  0  0  0  0  0  0  0  0  0  0
    5.2715    0.5930   -0.3760 C   0  0  0  0  0  0  0  0  0  0  0  0
    6.4276    3.0547    0.2453 C   0  0  0  0  0  0  0  0  0  0  0  0
    6.6598    0.7190   -0.3271 C   0  0  0  0  0  0  0  0  0  0  0  0
    7.2379    1.9498   -0.0163 C   0  0  0  0  0  0  0  0  0  0  0  0
    8.6601    2.0793    0.0333 C   0  0  0  0  0  0  0  0  0  0  0  0
   -7.2305   -0.3075    0.2935 H   0  0  0  0  0  0  0  0  0  0  0  0
   -6.7550    2.5880    1.0713 H   0  0  0  0  0  0  0  0  0  0  0  0
   -7.2184    1.2607    2.1269 H   0  0  0  0  0  0  0  0  0  0  0  0
   -6.4783    0.3408   -2.0377 H   0  0  0  0  0  0  0  0  0  0  0  0
   -6.2829    1.9923   -1.5056 H   0  0  0  0  0  0  0  0  0  0  0  0
   -9.3583    1.0106    0.9489 H   0  0  0  0  0  0  0  0  0  0  0  0
   -9.1518    2.6876    1.4475 H   0  0  0  0  0  0  0  0  0  0  0  0
   -8.4157    1.7516   -2.6750 H   0  0  0  0  0  0  0  0  0  0  0  0
   -8.9019    0.4270   -1.6193 H   0  0  0  0  0  0  0  0  0  0  0  0
  -10.0074    2.4930   -0.8943 H   0  0  0  0  0  0  0  0  0  0  0  0
   -8.4668    3.3446   -0.8137 H   0  0  0  0  0  0  0  0  0  0  0  0
   -6.3130   -1.5503   -1.0701 H   0  0  0  0  0  0  0  0  0  0  0  0
   -4.8851   -2.5500   -1.0846 H   0  0  0  0  0  0  0  0  0  0  0  0
   -5.8965   -2.4657    0.3921 H   0  0  0  0  0  0  0  0  0  0  0  0
   -2.6681    1.0150   -0.2979 H   0  0  0  0  0  0  0  0  0  0  0  0
   -3.4769   -3.1410    0.6903 H   0  0  0  0  0  0  0  0  0  0  0  0
   -1.0689   -3.5902    0.8536 H   0  0  0  0  0  0  0  0  0  0  0  0
    1.1926   -3.3134    1.2193 H   0  0  0  0  0  0  0  0  0  0  0  0
    2.4904   -2.1575    1.4136 H   0  0  0  0  0  0  0  0  0  0  0  0
    1.6028   -3.3776   -1.2764 H   0  0  0  0  0  0  0  0  0  0  0  0
    2.9562   -2.2610   -1.0816 H   0  0  0  0  0  0  0  0  0  0  0  0
    3.1371   -0.4486    0.3410 H   0  0  0  0  0  0  0  0  0  0  0  0
    4.5328   -5.4767   -1.4421 H   0  0  0  0  0  0  0  0  0  0  0  0
    3.6986   -4.2884   -2.3791 H   0  0  0  0  0  0  0  0  0  0  0  0
    4.4261    3.8006    0.4087 H   0  0  0  0  0  0  0  0  0  0  0  0
    4.8667   -0.3745   -0.6568 H   0  0  0  0  0  0  0  0  0  0  0  0
    6.8635    4.0205    0.4899 H   0  0  0  0  0  0  0  0  0  0  0  0
    7.2787   -0.1492   -0.5411 H   0  0  0  0  0  0  0  0  0  0  0  0
  1 16  2  0  0  0  0
  2 27  2  0  0  0  0
  3 28  2  0  0  0  0
  4 16  1  0  0  0  0
  4 17  1  0  0  0  0
  4 18  1  0  0  0  0
  5 19  1  0  0  0  0
  5 24  1  0  0  0  0
  5 25  1  0  0  0  0
  6 21  1  0  0  0  0
  6 25  2  0  0  0  0
  7 25  1  0  0  0  0
  7 28  1  0  0  0  0
  7 57  1  0  0  0  0
  8 27  1  0  0  0  0
  8 58  1  0  0  0  0
  8 59  1  0  0  0  0
  9 35  3  0  0  0  0
 10 11  1  0  0  0  0
 10 12  1  0  0  0  0
 10 16  1  0  0  0  0
 10 36  1  0  0  0  0
 11 13  1  0  0  0  0
 11 37  1  0  0  0  0
 11 38  1  0  0  0  0
 12 14  1  0  0  0  0
 12 39  1  0  0  0  0
 12 40  1  0  0  0  0
 13 15  1  0  0  0  0
 13 41  1  0  0  0  0
 13 42  1  0  0  0  0
 14 15  1  0  0  0  0
 14 43  1  0  0  0  0
 14 44  1  0  0  0  0
 15 45  1  0  0  0  0
 15 46  1  0  0  0  0
 17 20  2  0  0  0  0
 17 22  1  0  0  0  0
 18 47  1  0  0  0  0
 18 48  1  0  0  0  0
 18 49  1  0  0  0  0
 19 21  2  0  0  0  0
 19 23  1  0  0  0  0
 20 21  1  0  0  0  0
 20 50  1  0  0  0  0
 22 23  2  0  0  0  0
 22 51  1  0  0  0  0
 23 52  1  0  0  0  0
 24 26  1  0  0  0  0
 24 53  1  0  0  0  0
 24 54  1  0  0  0  0
 26 27  1  0  0  0  0
 26 55  1  0  0  0  0
 26 56  1  0  0  0  0
 28 29  1  0  0  0  0
 29 30  2  0  0  0  0
 29 31  1  0  0  0  0
 30 32  1  0  0  0  0
 30 60  1  0  0  0  0
 31 33  2  0  0  0  0
 31 61  1  0  0  0  0
 32 34  2  0  0  0  0
 32 62  1  0  0  0  0
 33 34  1  0  0  0  0
 33 63  1  0  0  0  0
 34 35  1  0  0  0  0
M  END
> <PUBCHEM_COMPOUND_CID>
44593713

> <PUBCHEM_CONFORMER_RMSD>
1

> <PUBCHEM_CONFORMER_DIVERSEORDER>
1
57
67
68
50
96
47
79
87
35
85
55
91
48
54
56
41
90
51
61
38
37
83
42
44
65
45
92
52
72
77
64
59
27
34
33
66
97
58
3
31
74
94
15
13
25
63
69
12
17
71
28
53
49
70
60
93
88
89
29
86
4
62
5
43
11
84
73
19
32
78
75
16
24
10
26
39
23
8
95
14
22
46
30
82
18
80
6
36
81
99
7
9
20
98
76
2
21
40

> <PUBCHEM_MMFF94_PARTIAL_CHARGES>
40
1 -0.57
10 0.06
16 0.57
17 0.12
18 0.3
19 -0.15
2 -0.57
20 -0.15
21 0.23
22 -0.15
23 -0.15
24 0.26
25 0.25
26 0.06
27 0.57
28 0.54
29 0.09
3 -0.57
30 -0.15
31 -0.15
32 -0.15
33 -0.15
34 0.07
35 0.48
4 -0.48
5 0.05
50 0.15
51 0.15
52 0.15
57 0.37
58 0.37
59 0.37
6 -0.57
60 0.15
61 0.15
62 0.15
63 0.15
7 -0.49
8 -0.8
9 -0.56

> <PUBCHEM_EFFECTIVE_ROTOR_COUNT>
10.2

> <PUBCHEM_PHARMACOPHORE_FEATURES>
10
1 1 acceptor
1 2 acceptor
1 3 acceptor
1 7 donor
1 8 donor
1 9 acceptor
5 5 6 19 21 25 rings
6 10 11 12 13 14 15 rings
6 17 19 20 21 22 23 rings
6 29 30 31 32 33 34 rings

> <PUBCHEM_HEAVY_ATOM_COUNT>
35

> <PUBCHEM_ATOM_DEF_STEREO_COUNT>
0

> <PUBCHEM_ATOM_UDEF_STEREO_COUNT>
0

> <PUBCHEM_BOND_DEF_STEREO_COUNT>
0

> <PUBCHEM_BOND_UDEF_STEREO_COUNT>
0

> <PUBCHEM_ISOTOPIC_ATOM_COUNT>
0

> <PUBCHEM_COMPONENT_COUNT>
1

> <PUBCHEM_CACTVS_TAUTO_COUNT>
6

> <PUBCHEM_CONFORMER_ID>
02A8723100000001

> <PUBCHEM_MMFF94_ENERGY>
92.912

> <PUBCHEM_FEATURE_SELFOVERLAP>
50.855

> <PUBCHEM_SHAPE_FINGERPRINT>
10 15 17748825207805800865
10050765 1 18194966240551559521
10411042 1 17833833768750578722
10835480 77 18410293610082260519
11135926 11 18410005563499443925
11297010 23 18343299266989826782
11297750 10 17752761325872625750
12013929 2 18131356354719761544
12522641 33 18413109464209707542
13248334 5 18193275191589555643
14937079 2 18265899060238552018
15064981 113 16987710183690291517
15276724 80 18339357453855013381
15289351 153 18342455924782141880
15347591 1 18410009923736216251
15439362 3 18410575067615773667
1577012 14 18261666047702560179
16087824 20 18334857216665367588
19315958 150 18409452454038783869
20105231 36 12107774204410713504
20554085 129 18059563729301998322
20609170 92 18042396946910535053
21033648 144 18333726902433205031
21033648 29 17168146694612115855
21781055 127 16271377284257347635
22311459 1 18410576197102794073
24771293 8 18186800305420502423
255183 451 17842000988260662862
3411729 13 18408040710910253346
4017518 198 18129955602448770270
4073 2 18334018306889598555
4169191 19 18411418410698969561
4516262 110 18411133632412633397
5265222 85 17977676625992358948
5385378 56 18408043996559747538
54039377 194 9799691502653184305
6371380 46 18270399537951835968
99344 41 18412263978275038006

> <PUBCHEM_SHAPE_MULTIPOLES>
672.79
28.3
5.02
0.97
11.33
6.18
-0.19
-32.4
-3.06
-8.24
-0.37
1.4
0.1
0.98

> <PUBCHEM_SHAPE_SELFOVERLAP>
1447.69

> <PUBCHEM_SHAPE_VOLUME>
365.4

> <PUBCHEM_COORDINATE_TYPE>
2
5
10

$$$$
