43237179
  -OEChem-10052115193D

 22 23  0     0  0  0  0  0  0999 V2000
   -0.6984    1.5486    0.0028 S   0  0  0  0  0  0  0  0  0  0  0  0
   -3.6376    1.0911   -0.0109 O   0  0  0  0  0  0  0  0  0  0  0  0
    2.0693    0.9975    0.0005 N   0  0  0  0  0  0  0  0  0  0  0  0
    2.8131   -0.1458   -0.0010 N   0  0  0  0  0  0  0  0  0  0  0  0
   -3.6561   -1.2019    0.0045 N   0  0  0  0  0  0  0  0  0  0  0  0
    0.6235   -0.5933   -0.0001 C   0  0  0  0  0  0  0  0  0  0  0  0
    0.7455    0.7362    0.0011 C   0  0  0  0  0  0  0  0  0  0  0  0
    1.8939   -1.1326   -0.0015 C   0  0  0  0  0  0  0  0  0  0  0  0
   -0.6769   -1.0785    0.0001 C   0  0  0  0  0  0  0  0  0  0  0  0
   -1.5439    0.0124    0.0018 C   0  0  0  0  0  0  0  0  0  0  0  0
    2.3166   -2.5408   -0.0027 C   0  0  0  0  0  0  0  0  0  0  0  0
    2.7229    2.2827    0.0013 C   0  0  0  0  0  0  0  0  0  0  0  0
   -2.9718    0.0244    0.0039 C   0  0  0  0  0  0  0  0  0  0  0  0
   -0.9782   -2.1174   -0.0007 H   0  0  0  0  0  0  0  0  0  0  0  0
    1.9492   -3.0512   -0.8989 H   0  0  0  0  0  0  0  0  0  0  0  0
    3.4071   -2.6393    0.0152 H   0  0  0  0  0  0  0  0  0  0  0  0
    1.9197   -3.0622    0.8744 H   0  0  0  0  0  0  0  0  0  0  0  0
    3.3424    2.3516    0.8989 H   0  0  0  0  0  0  0  0  0  0  0  0
    3.3415    2.3531   -0.8968 H   0  0  0  0  0  0  0  0  0  0  0  0
    1.9775    3.0809    0.0023 H   0  0  0  0  0  0  0  0  0  0  0  0
   -3.1833   -2.0992    0.0096 H   0  0  0  0  0  0  0  0  0  0  0  0
   -4.6707   -1.2245   -0.0001 H   0  0  0  0  0  0  0  0  0  0  0  0
  1  7  1  0  0  0  0
  1 10  1  0  0  0  0
  2 13  2  0  0  0  0
  3  4  1  0  0  0  0
  3  7  1  0  0  0  0
  3 12  1  0  0  0  0
  4  8  2  0  0  0  0
  5 13  1  0  0  0  0
  5 21  1  0  0  0  0
  5 22  1  0  0  0  0
  6  7  2  0  0  0  0
  6  8  1  0  0  0  0
  6  9  1  0  0  0  0
  8 11  1  0  0  0  0
  9 10  2  0  0  0  0
  9 14  1  0  0  0  0
 10 13  1  0  0  0  0
 11 15  1  0  0  0  0
 11 16  1  0  0  0  0
 11 17  1  0  0  0  0
 12 18  1  0  0  0  0
 12 19  1  0  0  0  0
 12 20  1  0  0  0  0
M  END
> <PUBCHEM_COMPOUND_CID>
43237179

> <PUBCHEM_CONFORMER_RMSD>
0.4

> <PUBCHEM_CONFORMER_DIVERSEORDER>
1
3
2
4

> <PUBCHEM_MMFF94_PARTIAL_CHARGES>
15
1 -0.08
10 -0.05
11 0.18
12 0.26
13 0.71
14 0.15
2 -0.57
21 0.37
22 0.37
3 0.31
4 -0.71
5 -0.8
7 -0.11
8 0.11
9 -0.15

> <PUBCHEM_EFFECTIVE_ROTOR_COUNT>
1

> <PUBCHEM_PHARMACOPHORE_FEATURES>
5
1 2 acceptor
1 4 acceptor
1 5 donor
5 1 6 7 9 10 rings
5 3 4 6 7 8 rings

> <PUBCHEM_HEAVY_ATOM_COUNT>
13

> <PUBCHEM_ATOM_DEF_STEREO_COUNT>
0

> <PUBCHEM_ATOM_UDEF_STEREO_COUNT>
0

> <PUBCHEM_BOND_DEF_STEREO_COUNT>
0

> <PUBCHEM_BOND_UDEF_STEREO_COUNT>
0

> <PUBCHEM_ISOTOPIC_ATOM_COUNT>
0

> <PUBCHEM_COMPONENT_COUNT>
1

> <PUBCHEM_CACTVS_TAUTO_COUNT>
2

> <PUBCHEM_CONFORMER_ID>
0293BF3B00000001

> <PUBCHEM_MMFF94_ENERGY>
28.2931

> <PUBCHEM_FEATURE_SELFOVERLAP>
25.602

> <PUBCHEM_SHAPE_FINGERPRINT>
10608611 8 18408037407895571861
10967382 1 18338517555049660422
10980938 120 18411138081866564736
11471102 20 18410288077800185205
11769659 78 18339919320996419783
12932764 1 17386282091474001147
13380535 76 18263360463798377938
14325111 11 18410574002716533121
15375462 6 18409448115594320357
15442244 35 18196374710614395385
15501101 241 18333452032008465028
161256 15 18335419028514778004
16945 1 18410856542739488744
17990270 104 18338516335474406570
18186145 218 18409450258819969741
193761 8 14591803633316848072
19973954 147 18338797806008469813
20201158 50 18408040697497492843
20559304 39 18411699851094194400
20645477 70 18411413995472868839
20871998 22 18054227618641363550
21501502 16 18339929199241768105
21501925 9 18338785754335525211
21524375 3 18118116111830652752
23402655 69 18341604932931176501
23463225 33 18340487768428644375
23552423 10 18408887317139971790
2748010 2 18121229937297474094
449060 62 18341899627157990289
528886 8 18267018543268458408
53812653 166 18055913440180217536
63268167 104 18413111658289233705
7364860 26 18341894074192239078
8809292 202 18189061906228711699

> <PUBCHEM_SHAPE_MULTIPOLES>
250.57
5.39
2.29
0.6
3.83
0.11
0
0.08
0
-1.9
0
-0.01
-0.01
0.01

> <PUBCHEM_SHAPE_SELFOVERLAP>
533.765

> <PUBCHEM_SHAPE_VOLUME>
143.4

> <PUBCHEM_COORDINATE_TYPE>
2
5
10

$$$$
