14929458
  -OEChem-10062122043D

 24 26  0     0  0  0  0  0  0999 V2000
    3.5890    1.3821    1.0903 F   0  0  0  0  0  0  0  0  0  0  0  0
    4.4758   -0.2767   -0.0010 F   0  0  0  0  0  0  0  0  0  0  0  0
    3.6085    1.3901   -1.0842 F   0  0  0  0  0  0  0  0  0  0  0  0
   -1.6762   -1.7803   -0.0006 N   0  0  0  0  0  0  0  0  0  0  0  0
   -4.4795    0.6169   -0.0007 N   0  0  0  0  0  0  0  0  0  0  0  0
   -0.3339    0.0014   -0.0003 C   0  0  0  0  0  0  0  0  0  0  0  0
   -0.3562   -1.3939   -0.0002 C   0  0  0  0  0  0  0  0  0  0  0  0
   -1.6925    0.4503   -0.0001 C   0  0  0  0  0  0  0  0  0  0  0  0
   -2.5037   -0.6840   -0.0003 C   0  0  0  0  0  0  0  0  0  0  0  0
    0.9159    0.6559   -0.0005 C   0  0  0  0  0  0  0  0  0  0  0  0
    2.0895   -0.1063   -0.0005 C   0  0  0  0  0  0  0  0  0  0  0  0
    0.8089   -2.1696    0.0000 C   0  0  0  0  0  0  0  0  0  0  0  0
    2.0344   -1.4981   -0.0001 C   0  0  0  0  0  0  0  0  0  0  0  0
   -2.3079    1.7119    0.0000 C   0  0  0  0  0  0  0  0  0  0  0  0
   -3.8901   -0.6010   -0.0006 C   0  0  0  0  0  0  0  0  0  0  0  0
    3.4143    0.5820   -0.0010 C   0  0  0  0  0  0  0  0  0  0  0  0
   -3.6964    1.7193   -0.0004 C   0  0  0  0  0  0  0  0  0  0  0  0
   -1.9931   -2.7400   -0.0008 H   0  0  0  0  0  0  0  0  0  0  0  0
    0.9647    1.7416   -0.0009 H   0  0  0  0  0  0  0  0  0  0  0  0
    0.7666   -3.2537    0.0000 H   0  0  0  0  0  0  0  0  0  0  0  0
    2.9463   -2.0905    0.0000 H   0  0  0  0  0  0  0  0  0  0  0  0
   -1.7388    2.6343    0.0002 H   0  0  0  0  0  0  0  0  0  0  0  0
   -4.5400   -1.4661   -0.0009 H   0  0  0  0  0  0  0  0  0  0  0  0
   -4.2372    2.6610   -0.0005 H   0  0  0  0  0  0  0  0  0  0  0  0
  1 16  1  0  0  0  0
  2 16  1  0  0  0  0
  3 16  1  0  0  0  0
  4  7  1  0  0  0  0
  4  9  1  0  0  0  0
  4 18  1  0  0  0  0
  5 15  2  0  0  0  0
  5 17  1  0  0  0  0
  6  7  2  0  0  0  0
  6  8  1  0  0  0  0
  6 10  1  0  0  0  0
  7 12  1  0  0  0  0
  8  9  2  0  0  0  0
  8 14  1  0  0  0  0
  9 15  1  0  0  0  0
 10 11  2  0  0  0  0
 10 19  1  0  0  0  0
 11 13  1  0  0  0  0
 11 16  1  0  0  0  0
 12 13  2  0  0  0  0
 12 20  1  0  0  0  0
 13 21  1  0  0  0  0
 14 17  2  0  0  0  0
 14 22  1  0  0  0  0
 15 23  1  0  0  0  0
 17 24  1  0  0  0  0
M  END
> <PUBCHEM_COMPOUND_CID>
14929458

> <PUBCHEM_CONFORMER_RMSD>
0.6

> <PUBCHEM_CONFORMER_DIVERSEORDER>
1

> <PUBCHEM_MMFF94_PARTIAL_CHARGES>
22
1 -0.34
10 -0.15
11 -0.14
12 -0.15
13 -0.15
14 -0.15
15 0.16
16 1.16
17 0.16
18 0.27
19 0.15
2 -0.34
20 0.15
21 0.15
22 0.15
23 0.15
24 0.15
3 -0.34
4 0.03
5 -0.62
7 -0.15
9 -0.15

> <PUBCHEM_EFFECTIVE_ROTOR_COUNT>
1

> <PUBCHEM_PHARMACOPHORE_FEATURES>
6
1 4 cation
1 4 donor
1 5 acceptor
5 4 6 7 8 9 rings
6 5 8 9 14 15 17 rings
6 6 7 10 11 12 13 rings

> <PUBCHEM_HEAVY_ATOM_COUNT>
17

> <PUBCHEM_ATOM_DEF_STEREO_COUNT>
0

> <PUBCHEM_ATOM_UDEF_STEREO_COUNT>
0

> <PUBCHEM_BOND_DEF_STEREO_COUNT>
0

> <PUBCHEM_BOND_UDEF_STEREO_COUNT>
0

> <PUBCHEM_ISOTOPIC_ATOM_COUNT>
0

> <PUBCHEM_COMPONENT_COUNT>
1

> <PUBCHEM_CACTVS_TAUTO_COUNT>
2

> <PUBCHEM_CONFORMER_ID>
00E3CE3200000001

> <PUBCHEM_MMFF94_ENERGY>
31.3843

> <PUBCHEM_FEATURE_SELFOVERLAP>
30.632

> <PUBCHEM_SHAPE_FINGERPRINT>
10411042 1 17113538671776716898
10498660 4 18410011018229677117
10608611 8 18338232648742415309
10646746 165 18413106165036585400
10967382 1 18410575054629962853
10980938 120 18410012091802306179
11132069 177 18408036329526302181
11543360 7 15554156068963551977
12173636 292 18340763763280273757
12346645 44 18410009923033751699
12788726 201 17246963235265153490
13140716 1 18050009097420318331
13380535 76 18409449180577748811
14144814 61 18410011001170613977
14325111 11 18410855417542453217
14415576 193 18409452462053660206
14897335 6 18411134714770499167
15196674 1 18410573972277118247
15219456 202 18338801113428621911
15442244 35 18050848810323024387
15536298 74 18341613659608571294
15775835 57 18413390921315426179
16945 1 18338799034458793731
18186145 218 18268435641783831613
200 152 17489866033680451275
20510252 161 18343304743352768513
20645477 56 18341328998114228200
20645477 70 18200593575443263935
21267235 1 18410020913723453163
21501502 16 18339074883323719787
21524375 3 18410855447386022530
22854114 111 18335703788856574859
23366157 5 17969789574908434162
23402539 116 18342729732561350836
23402655 69 18271235011948362509
23463225 33 18334009463203139378
23557571 272 18199200640292403295
23559900 14 18199183984504336982
25 1 18340767052813732978
2748010 2 18337397015642019431
3004659 81 18262811645321926846
335352 9 18122343471608551446
3545911 37 18409451354120948205
474 4 17894918442230832068
4990 188 17918000459905021958
5104073 3 18337392634991539163
53812653 166 18343015601342456680
57096353 35 18342450457135429607
6333272 397 18334298685989511705
69090 78 18201996646684949991
7364860 26 18198061378821638190
9709674 26 18411987944405141775

> <PUBCHEM_SHAPE_MULTIPOLES>
318.07
7.82
1.99
0.69
0.82
0.33
0
-3.15
0.01
-0.07
0
0.32
-0.14
0

> <PUBCHEM_SHAPE_SELFOVERLAP>
720.789

> <PUBCHEM_SHAPE_VOLUME>
168.6

> <PUBCHEM_COORDINATE_TYPE>
2
5
10

$$$$
