24203043
  -OEChem-10062122013D

 60 66  0     1  0  0  0  0  0999 V2000
   -2.9106    0.5245   -0.7782 O   0  0  0  0  0  0  0  0  0  0  0  0
   -1.3404   -1.3525    1.9789 O   0  0  0  0  0  0  0  0  0  0  0  0
   -5.8421   -1.4494    0.2313 O   0  0  0  0  0  0  0  0  0  0  0  0
   -3.3380   -2.6600    0.5815 O   0  0  0  0  0  0  0  0  0  0  0  0
   -4.4773    0.9272   -2.9960 O   0  0  0  0  0  0  0  0  0  0  0  0
    3.9155    3.6959    0.2130 O   0  0  0  0  0  0  0  0  0  0  0  0
    5.7244   -0.5403   -0.0716 O   0  0  0  0  0  0  0  0  0  0  0  0
   -0.7176    0.7344   -0.0017 N   0  0  0  0  0  0  0  0  0  0  0  0
    0.3734   -1.8207   -0.1747 N   0  0  0  0  0  0  0  0  0  0  0  0
    5.1790    1.7304    0.0817 N   0  0  0  0  0  0  0  0  0  0  0  0
   -1.8788   -0.1647   -0.0646 C   0  0  1  0  0  0  0  0  0  0  0  0
   -2.3563   -0.5924    1.3332 C   0  0  1  0  0  0  0  0  0  0  0  0
   -3.6392   -1.4213    1.2306 C   0  0  1  0  0  0  0  0  0  0  0  0
   -4.6775   -0.6527    0.4096 C   0  0  1  0  0  0  0  0  0  0  0  0
    0.6224    0.5535   -0.0112 C   0  0  0  0  0  0  0  0  0  0  0  0
   -4.0979   -0.2547   -0.9549 C   0  0  1  0  0  0  0  0  0  0  0  0
    1.5525    1.6436    0.0657 C   0  0  0  0  0  0  0  0  0  0  0  0
   -0.7938    2.1159    0.0932 C   0  0  0  0  0  0  0  0  0  0  0  0
    1.1710   -0.7315   -0.0980 C   0  0  0  0  0  0  0  0  0  0  0  0
    0.5217    2.6892    0.1351 C   0  0  0  0  0  0  0  0  0  0  0  0
    2.6036   -0.8178   -0.1002 C   0  0  0  0  0  0  0  0  0  0  0  0
    2.9400    1.5323    0.0613 C   0  0  0  0  0  0  0  0  0  0  0  0
    3.4845    0.2574   -0.0245 C   0  0  0  0  0  0  0  0  0  0  0  0
   -5.0805    0.5895   -1.7603 C   0  0  0  0  0  0  0  0  0  0  0  0
    2.6451   -2.2838   -0.2002 C   0  0  0  0  0  0  0  0  0  0  0  0
   -1.9482    2.9119    0.1458 C   0  0  0  0  0  0  0  0  0  0  0  0
    1.3193   -2.8328   -0.2413 C   0  0  0  0  0  0  0  0  0  0  0  0
    0.6092    4.0990    0.2319 C   0  0  0  0  0  0  0  0  0  0  0  0
    4.0305    2.4893    0.1303 C   0  0  0  0  0  0  0  0  0  0  0  0
    4.9319    0.3786   -0.0115 C   0  0  0  0  0  0  0  0  0  0  0  0
   -1.8063    4.2968    0.2412 C   0  0  0  0  0  0  0  0  0  0  0  0
   -0.5482    4.8831    0.2836 C   0  0  0  0  0  0  0  0  0  0  0  0
    3.7248   -3.1976   -0.2598 C   0  0  0  0  0  0  0  0  0  0  0  0
    1.0948   -4.2146   -0.3362 C   0  0  0  0  0  0  0  0  0  0  0  0
   -6.6746   -1.4199    1.3823 C   0  0  0  0  0  0  0  0  0  0  0  0
    3.4898   -4.5735   -0.3541 C   0  0  0  0  0  0  0  0  0  0  0  0
    2.1942   -5.0723   -0.3914 C   0  0  0  0  0  0  0  0  0  0  0  0
   -1.6467   -0.9542   -0.7697 H   0  0  0  0  0  0  0  0  0  0  0  0
   -2.5551    0.2963    1.9453 H   0  0  0  0  0  0  0  0  0  0  0  0
   -4.0034   -1.6803    2.2287 H   0  0  0  0  0  0  0  0  0  0  0  0
   -4.9315    0.2719    0.9482 H   0  0  0  0  0  0  0  0  0  0  0  0
   -3.8532   -1.1333   -1.5648 H   0  0  0  0  0  0  0  0  0  0  0  0
   -5.3129    1.5229   -1.2367 H   0  0  0  0  0  0  0  0  0  0  0  0
   -6.0087    0.0456   -1.9596 H   0  0  0  0  0  0  0  0  0  0  0  0
   -0.5949   -1.9938   -0.0007 H   0  0  0  0  0  0  0  0  0  0  0  0
   -2.9543    2.5129    0.1754 H   0  0  0  0  0  0  0  0  0  0  0  0
   -1.6789   -1.6111    2.8529 H   0  0  0  0  0  0  0  0  0  0  0  0
    1.5747    4.5933    0.2683 H   0  0  0  0  0  0  0  0  0  0  0  0
   -2.9441   -2.4946   -0.2881 H   0  0  0  0  0  0  0  0  0  0  0  0
    6.1119    2.1267    0.1119 H   0  0  0  0  0  0  0  0  0  0  0  0
   -2.6930    4.9232    0.2962 H   0  0  0  0  0  0  0  0  0  0  0  0
   -0.4594    5.9635    0.3612 H   0  0  0  0  0  0  0  0  0  0  0  0
    4.7511   -2.8456   -0.2331 H   0  0  0  0  0  0  0  0  0  0  0  0
    0.0853   -4.6141   -0.3659 H   0  0  0  0  0  0  0  0  0  0  0  0
   -7.5770   -1.9963    1.1593 H   0  0  0  0  0  0  0  0  0  0  0  0
   -6.9771   -0.3951    1.6197 H   0  0  0  0  0  0  0  0  0  0  0  0
   -6.1863   -1.8820    2.2438 H   0  0  0  0  0  0  0  0  0  0  0  0
   -5.1169    1.4686   -3.4892 H   0  0  0  0  0  0  0  0  0  0  0  0
    4.3326   -5.2584   -0.3985 H   0  0  0  0  0  0  0  0  0  0  0  0
    2.0326   -6.1446   -0.4647 H   0  0  0  0  0  0  0  0  0  0  0  0
  1 11  1  0  0  0  0
  1 16  1  0  0  0  0
  2 12  1  0  0  0  0
  2 47  1  0  0  0  0
  3 14  1  0  0  0  0
  3 35  1  0  0  0  0
  4 13  1  0  0  0  0
  4 49  1  0  0  0  0
  5 24  1  0  0  0  0
  5 58  1  0  0  0  0
  6 29  2  0  0  0  0
  7 30  2  0  0  0  0
  8 11  1  0  0  0  0
  8 15  1  0  0  0  0
  8 18  1  0  0  0  0
  9 19  1  0  0  0  0
  9 27  1  0  0  0  0
  9 45  1  0  0  0  0
 10 29  1  0  0  0  0
 10 30  1  0  0  0  0
 10 50  1  0  0  0  0
 11 12  1  0  0  0  0
 11 38  1  0  0  0  0
 12 13  1  0  0  0  0
 12 39  1  0  0  0  0
 13 14  1  0  0  0  0
 13 40  1  0  0  0  0
 14 16  1  0  0  0  0
 14 41  1  0  0  0  0
 15 17  1  0  0  0  0
 15 19  2  0  0  0  0
 16 24  1  0  0  0  0
 16 42  1  0  0  0  0
 17 20  1  0  0  0  0
 17 22  2  0  0  0  0
 18 20  1  0  0  0  0
 18 26  2  0  0  0  0
 19 21  1  0  0  0  0
 20 28  2  0  0  0  0
 21 23  2  0  0  0  0
 21 25  1  0  0  0  0
 22 23  1  0  0  0  0
 22 29  1  0  0  0  0
 23 30  1  0  0  0  0
 24 43  1  0  0  0  0
 24 44  1  0  0  0  0
 25 27  1  0  0  0  0
 25 33  2  0  0  0  0
 26 31  1  0  0  0  0
 26 46  1  0  0  0  0
 27 34  2  0  0  0  0
 28 32  1  0  0  0  0
 28 48  1  0  0  0  0
 31 32  2  0  0  0  0
 31 51  1  0  0  0  0
 32 52  1  0  0  0  0
 33 36  1  0  0  0  0
 33 53  1  0  0  0  0
 34 37  1  0  0  0  0
 34 54  1  0  0  0  0
 35 55  1  0  0  0  0
 35 56  1  0  0  0  0
 35 57  1  0  0  0  0
 36 37  2  0  0  0  0
 36 59  1  0  0  0  0
 37 60  1  0  0  0  0
M  END
> <PUBCHEM_COMPOUND_CID>
24203043

> <PUBCHEM_CONFORMER_RMSD>
0.8

> <PUBCHEM_CONFORMER_DIVERSEORDER>
1
15
16
18
11
17
12
14
5
4
8
9
6
10
13
2
3
7

> <PUBCHEM_MMFF94_PARTIAL_CHARGES>
48
1 -0.56
10 -0.49
11 0.54
12 0.28
13 0.28
14 0.28
15 -0.05
16 0.28
17 -0.01
18 -0.15
19 -0.05
2 -0.68
21 -0.01
22 0.09
23 0.09
24 0.28
26 -0.15
27 -0.15
28 -0.15
29 0.54
3 -0.56
30 0.54
31 -0.15
32 -0.15
33 -0.15
34 -0.15
35 0.28
36 -0.15
37 -0.15
4 -0.68
45 0.27
46 0.15
47 0.4
48 0.15
49 0.4
5 -0.68
50 0.37
51 0.15
52 0.15
53 0.15
54 0.15
58 0.4
59 0.15
6 -0.57
60 0.15
7 -0.57
8 -0.04
9 -0.05

> <PUBCHEM_EFFECTIVE_ROTOR_COUNT>
4.4

> <PUBCHEM_PHARMACOPHORE_FEATURES>
21
1 1 acceptor
1 10 donor
1 2 acceptor
1 2 donor
1 3 acceptor
1 4 acceptor
1 4 donor
1 5 acceptor
1 5 donor
1 6 acceptor
1 7 acceptor
1 8 cation
1 9 cation
1 9 donor
5 10 22 23 29 30 rings
5 8 15 17 18 20 rings
5 9 19 21 25 27 rings
6 1 11 12 13 14 16 rings
6 15 17 19 21 22 23 rings
6 18 20 26 28 31 32 rings
6 25 27 33 34 36 37 rings

> <PUBCHEM_HEAVY_ATOM_COUNT>
37

> <PUBCHEM_ATOM_DEF_STEREO_COUNT>
0

> <PUBCHEM_ATOM_UDEF_STEREO_COUNT>
5

> <PUBCHEM_BOND_DEF_STEREO_COUNT>
0

> <PUBCHEM_BOND_UDEF_STEREO_COUNT>
0

> <PUBCHEM_ISOTOPIC_ATOM_COUNT>
0

> <PUBCHEM_COMPONENT_COUNT>
1

> <PUBCHEM_CACTVS_TAUTO_COUNT>
12

> <PUBCHEM_CONFORMER_ID>
01714F2300000001

> <PUBCHEM_MMFF94_ENERGY>
158.5111

> <PUBCHEM_FEATURE_SELFOVERLAP>
107.07

> <PUBCHEM_SHAPE_FINGERPRINT>
10190108 129 18268174026651748712
10290309 65 18265330784683633708
10411042 1 18195253204934714046
10675989 125 17973424526448773669
1100329 8 17835805574960276248
11135926 11 18411978078759157407
11227688 84 18341604945420901151
11513181 2 17985824822628578694
12236239 1 17417540223678170505
12788726 201 18335130943351602489
13140716 1 18053385688691234496
13402501 40 18188772872235673401
1361 2 18196092359533103715
13911987 19 18264496259320784316
140371 6 18261685830100918261
14790565 3 18123194760176074796
14866123 147 17545884828640465859
15320467 1 18411421747377134939
15815584 197 18341619225949380638
16728300 4 17824794838418867362
17492 89 18267022748041772362
19301679 30 18338243665602620443
19591789 44 18267590285373570234
20028762 73 18129381677756752310
20775438 99 17543582553891707668
21033648 29 17841992487960715080
21033650 10 16516253907728742541
21133410 171 17468988404463210219
21133410 32 16377261391889204394
21703447 108 18268421352839296010
23558518 356 18117853096296222416
23559900 14 18336540508858263314
24771750 20 17755034321481928477
266924 87 18338233765344436492
3178227 256 18194414505036738745
3380486 145 18263100944979841219
3737641 26 18341619178799535951
3882209 13 17614811069160166338
3886686 26 17119699192292799400
4616759 239 17048775813740696986
46194498 28 17749957773089995423
463206 1 18265899231899963751
5309563 4 18411706499603621067
57527585 103 17315106326899036625
6004065 56 18196085771427512603
70251023 43 18196364823784523619
9709674 26 18194402191128097730

> <PUBCHEM_SHAPE_MULTIPOLES>
705.41
11.18
6.68
1.18
7.56
0.45
0.45
-4.76
0.53
-4.99
-0.22
2.25
-0.22
1.71

> <PUBCHEM_SHAPE_SELFOVERLAP>
1614.776

> <PUBCHEM_SHAPE_VOLUME>
364.7

> <PUBCHEM_COORDINATE_TYPE>
2
5
10

$$$$
