71552942
  -OEChem-10062121573D

 62 65  0     0  0  0  0  0  0999 V2000
    5.5434   -0.1980   -2.4681 Cl  0  0  0  0  0  0  0  0  0  0  0  0
    7.8339    0.7083    3.2612 Cl  0  0  0  0  0  0  0  0  0  0  0  0
   -5.9408   -1.2991    0.9808 O   0  0  0  0  0  0  0  0  0  0  0  0
   -2.9927    0.0665   -1.4318 O   0  0  0  0  0  0  0  0  0  0  0  0
   -3.8051   -0.6178    1.4323 O   0  0  0  0  0  0  0  0  0  0  0  0
   -1.0147   -1.2534   -0.1917 N   0  0  0  0  0  0  0  0  0  0  0  0
    1.0767   -0.2020   -0.2730 N   0  0  0  0  0  0  0  0  0  0  0  0
   -5.5510    0.9020    1.1162 N   0  0  0  0  0  0  0  0  0  0  0  0
   -2.9374    2.3376   -0.9674 N   0  0  0  0  0  0  0  0  0  0  0  0
    1.2433    2.0868   -1.0083 N   0  0  0  0  0  0  0  0  0  0  0  0
    3.1539    0.8849   -0.3676 N   0  0  0  0  0  0  0  0  0  0  0  0
   -0.4556   -2.4982    0.2906 C   0  0  0  0  0  0  0  0  0  0  0  0
    0.0699   -3.3377   -0.8675 C   0  0  0  0  0  0  0  0  0  0  0  0
   -1.5445   -3.3856    0.8808 C   0  0  0  0  0  0  0  0  0  0  0  0
   -1.1643   -4.0264   -1.4458 C   0  0  0  0  0  0  0  0  0  0  0  0
   -2.2035   -4.0514   -0.3251 C   0  0  0  0  0  0  0  0  0  0  0  0
   -0.2565   -0.1283   -0.4668 C   0  0  0  0  0  0  0  0  0  0  0  0
   -0.9038    1.0020   -0.9224 C   0  0  0  0  0  0  0  0  0  0  0  0
   -4.8909    2.1682    1.3486 C   0  0  0  0  0  0  0  0  0  0  0  0
   -5.0001    3.1142    0.1547 C   0  0  0  0  0  0  0  0  0  0  0  0
   -2.3400    1.0830   -1.1351 C   0  0  0  0  0  0  0  0  0  0  0  0
   -4.3550    2.5747   -1.1202 C   0  0  0  0  0  0  0  0  0  0  0  0
   -6.9705    0.8046    0.9595 C   0  0  0  0  0  0  0  0  0  0  0  0
   -0.0951    2.0902   -1.1795 C   0  0  0  0  0  0  0  0  0  0  0  0
    1.7557    0.9252   -0.5593 C   0  0  0  0  0  0  0  0  0  0  0  0
   -7.1489   -0.6406    0.5657 C   0  0  0  0  0  0  0  0  0  0  0  0
   -4.9744   -0.3465    1.1966 C   0  0  0  0  0  0  0  0  0  0  0  0
    3.8386   -0.2780    0.1038 C   0  0  0  0  0  0  0  0  0  0  0  0
    5.3107   -0.0042    0.2401 C   0  0  0  0  0  0  0  0  0  0  0  0
    6.1516    0.0483   -0.8716 C   0  0  0  0  0  0  0  0  0  0  0  0
    5.8306    0.2001    1.5181 C   0  0  0  0  0  0  0  0  0  0  0  0
    7.1915    0.4568    1.6846 C   0  0  0  0  0  0  0  0  0  0  0  0
    7.5126    0.3049   -0.7052 C   0  0  0  0  0  0  0  0  0  0  0  0
    8.0325    0.5091    0.5729 C   0  0  0  0  0  0  0  0  0  0  0  0
    0.3176   -2.3078    1.0436 H   0  0  0  0  0  0  0  0  0  0  0  0
    0.7584   -4.1007   -0.4831 H   0  0  0  0  0  0  0  0  0  0  0  0
    0.6059   -2.7620   -1.6286 H   0  0  0  0  0  0  0  0  0  0  0  0
   -2.2687   -2.8418    1.4941 H   0  0  0  0  0  0  0  0  0  0  0  0
   -1.0876   -4.1586    1.5112 H   0  0  0  0  0  0  0  0  0  0  0  0
   -0.9264   -5.0336   -1.8027 H   0  0  0  0  0  0  0  0  0  0  0  0
   -1.5532   -3.4599   -2.2999 H   0  0  0  0  0  0  0  0  0  0  0  0
   -3.0953   -3.4923   -0.6314 H   0  0  0  0  0  0  0  0  0  0  0  0
   -2.5234   -5.0716   -0.0899 H   0  0  0  0  0  0  0  0  0  0  0  0
   -1.9335   -1.3085   -0.6167 H   0  0  0  0  0  0  0  0  0  0  0  0
   -3.8406    1.9847    1.5997 H   0  0  0  0  0  0  0  0  0  0  0  0
   -5.3569    2.6254    2.2290 H   0  0  0  0  0  0  0  0  0  0  0  0
   -4.5173    4.0617    0.4256 H   0  0  0  0  0  0  0  0  0  0  0  0
   -6.0504    3.3493   -0.0511 H   0  0  0  0  0  0  0  0  0  0  0  0
   -4.4598    3.3186   -1.9175 H   0  0  0  0  0  0  0  0  0  0  0  0
   -4.8598    1.6638   -1.4572 H   0  0  0  0  0  0  0  0  0  0  0  0
   -7.3569    1.4891    0.2009 H   0  0  0  0  0  0  0  0  0  0  0  0
   -7.4402    1.0198    1.9248 H   0  0  0  0  0  0  0  0  0  0  0  0
   -0.4757    3.0287   -1.5686 H   0  0  0  0  0  0  0  0  0  0  0  0
   -2.3718    3.1382   -0.7055 H   0  0  0  0  0  0  0  0  0  0  0  0
   -7.2461   -0.7625   -0.5183 H   0  0  0  0  0  0  0  0  0  0  0  0
   -8.0124   -1.1011    1.0540 H   0  0  0  0  0  0  0  0  0  0  0  0
    3.6610    1.7358   -0.5839 H   0  0  0  0  0  0  0  0  0  0  0  0
    3.6793   -1.1342   -0.5638 H   0  0  0  0  0  0  0  0  0  0  0  0
    3.4302   -0.5830    1.0763 H   0  0  0  0  0  0  0  0  0  0  0  0
    5.1774    0.1625    2.3870 H   0  0  0  0  0  0  0  0  0  0  0  0
    8.1811    0.3492   -1.5613 H   0  0  0  0  0  0  0  0  0  0  0  0
    9.0949    0.7080    0.6877 H   0  0  0  0  0  0  0  0  0  0  0  0
  1 30  1  0  0  0  0
  2 32  1  0  0  0  0
  3 26  1  0  0  0  0
  3 27  1  0  0  0  0
  4 21  2  0  0  0  0
  5 27  2  0  0  0  0
  6 12  1  0  0  0  0
  6 17  1  0  0  0  0
  6 44  1  0  0  0  0
  7 17  2  0  0  0  0
  7 25  1  0  0  0  0
  8 19  1  0  0  0  0
  8 23  1  0  0  0  0
  8 27  1  0  0  0  0
  9 21  1  0  0  0  0
  9 22  1  0  0  0  0
  9 54  1  0  0  0  0
 10 24  1  0  0  0  0
 10 25  2  0  0  0  0
 11 25  1  0  0  0  0
 11 28  1  0  0  0  0
 11 57  1  0  0  0  0
 12 13  1  0  0  0  0
 12 14  1  0  0  0  0
 12 35  1  0  0  0  0
 13 15  1  0  0  0  0
 13 36  1  0  0  0  0
 13 37  1  0  0  0  0
 14 16  1  0  0  0  0
 14 38  1  0  0  0  0
 14 39  1  0  0  0  0
 15 16  1  0  0  0  0
 15 40  1  0  0  0  0
 15 41  1  0  0  0  0
 16 42  1  0  0  0  0
 16 43  1  0  0  0  0
 17 18  1  0  0  0  0
 18 21  1  0  0  0  0
 18 24  2  0  0  0  0
 19 20  1  0  0  0  0
 19 45  1  0  0  0  0
 19 46  1  0  0  0  0
 20 22  1  0  0  0  0
 20 47  1  0  0  0  0
 20 48  1  0  0  0  0
 22 49  1  0  0  0  0
 22 50  1  0  0  0  0
 23 26  1  0  0  0  0
 23 51  1  0  0  0  0
 23 52  1  0  0  0  0
 24 53  1  0  0  0  0
 26 55  1  0  0  0  0
 26 56  1  0  0  0  0
 28 29  1  0  0  0  0
 28 58  1  0  0  0  0
 28 59  1  0  0  0  0
 29 30  2  0  0  0  0
 29 31  1  0  0  0  0
 30 33  1  0  0  0  0
 31 32  2  0  0  0  0
 31 60  1  0  0  0  0
 32 34  1  0  0  0  0
 33 34  2  0  0  0  0
 33 61  1  0  0  0  0
 34 62  1  0  0  0  0
M  END
> <PUBCHEM_COMPOUND_CID>
71552942

> <PUBCHEM_CONFORMER_RMSD>
1.4

> <PUBCHEM_CONFORMER_DIVERSEORDER>
1
160
38
188
51
150
142
180
105
87
114
189
32
159
72
139
147
140
46
144
123
110
166
71
174
146
10
91
127
173
103
85
52
80
96
58
101
162
169
98
86
164
106
171
74
22
157
82
26
190
138
132
186
125
155
11
111
39
152
94
183
137
97
24
148
53
89
70
34
182
28
65
136
76
99
163
57
176
129
29
75
113
108
161
55
62
81
73
17
130
115
181
167
175
165
141
179
158
67
23
64
109
134
119
79
44
168
31
9
18
59
37
60
20
90
172
8
153
145
36
184
102
33
122
131
112
21
27
177
5
116
154
117
45
149
54
170
83
43
120
41
35
30
49
47
151
100
93
133
15
92
25
84
77
118
61
66
185
48
4
95
12
16
178
40
126
42
187
69
50
3
56
88
135
68
6
156
78
104
143
13
7
124
128
121
2
19
107
14
63

> <PUBCHEM_MMFF94_PARTIAL_CHARGES>
36
1 -0.18
10 -0.62
11 -0.87
12 0.37
17 0.41
18 0.09
19 0.3
2 -0.18
21 0.54
22 0.3
23 0.3
24 0.16
25 0.72
26 0.28
27 0.78
28 0.51
29 -0.14
3 -0.43
30 0.18
31 -0.15
32 0.18
33 -0.15
34 -0.15
4 -0.57
44 0.4
5 -0.57
53 0.15
54 0.37
57 0.4
6 -0.87
60 0.15
61 0.15
62 0.15
7 -0.62
8 -0.66
9 -0.73

> <PUBCHEM_EFFECTIVE_ROTOR_COUNT>
12.8

> <PUBCHEM_PHARMACOPHORE_FEATURES>
10
1 11 donor
1 4 acceptor
1 5 acceptor
1 6 donor
1 9 donor
4 7 10 11 25 cation
5 12 13 14 15 16 rings
5 3 8 23 26 27 rings
6 29 30 31 32 33 34 rings
6 7 10 17 18 24 25 rings

> <PUBCHEM_HEAVY_ATOM_COUNT>
34

> <PUBCHEM_ATOM_DEF_STEREO_COUNT>
0

> <PUBCHEM_ATOM_UDEF_STEREO_COUNT>
0

> <PUBCHEM_BOND_DEF_STEREO_COUNT>
0

> <PUBCHEM_BOND_UDEF_STEREO_COUNT>
0

> <PUBCHEM_ISOTOPIC_ATOM_COUNT>
0

> <PUBCHEM_COMPONENT_COUNT>
1

> <PUBCHEM_CACTVS_TAUTO_COUNT>
21

> <PUBCHEM_CONFORMER_ID>
0443CFAE00000001

> <PUBCHEM_MMFF94_ENERGY>
85.1763

> <PUBCHEM_FEATURE_SELFOVERLAP>
50.748

> <PUBCHEM_SHAPE_FINGERPRINT>
10010297 198 17678162811570297691
10815517 723 18339358669182792455
11007060 377 18130774677315706741
11136131 41 18188486844526226771
11524674 6 18343586248162407983
11578080 2 17843119474604962048
12035758 1 18410298025023739294
12838863 1 18189053261261619219
13540713 5 17974011940208527908
14294032 229 18261111855419674708
14856354 85 17603876606431074801
14866123 147 18335419127194069747
15021287 119 17240484727632405284
15320294 125 17821721754716870486
16112460 7 18264494051691717280
16993089 31 14635420526053337266
17913733 40 18270966739342274107
21033648 29 18272083877389596296
21424621 283 18129660786332966264
21795232 338 18338233886341810744
23522609 53 17024903414166425068
255183 313 18411693296583892751
3383291 50 18410574006737479723
4017518 198 18059027137205086070
4403749 210 18408315575832068573
6669772 16 18201444614417550847
6691757 9 18339063957000544694
9896288 288 18198913504855212545

> <PUBCHEM_SHAPE_MULTIPOLES>
655.95
21.92
3.85
2
24.92
4.31
-0.69
-9.51
-12.04
-6.57
0.96
3.19
-0.41
1.18

> <PUBCHEM_SHAPE_SELFOVERLAP>
1374.082

> <PUBCHEM_SHAPE_VOLUME>
371.4

> <PUBCHEM_COORDINATE_TYPE>
2
5
10

$$$$
