18451141
  -OEChem-10052115183D

 58 61  0     0  0  0  0  0  0999 V2000
   -4.1855    1.7574    0.1915 S   0  0  0  0  0  0  0  0  0  0  0  0
    4.4592    0.3331   -1.2056 O   0  0  0  0  0  0  0  0  0  0  0  0
   -3.7215   -2.6894   -0.0773 N   0  0  0  0  0  0  0  0  0  0  0  0
    3.6681    0.2058    0.9961 N   0  0  0  0  0  0  0  0  0  0  0  0
   -1.3912   -2.4199    0.2132 N   0  0  0  0  0  0  0  0  0  0  0  0
   -9.5835    0.3945   -1.8076 N   0  0  0  0  0  0  0  0  0  0  0  0
    5.9396    0.0993    0.5897 N   0  0  0  0  0  0  0  0  0  0  0  0
   -2.8599   -0.4621    0.1851 C   0  0  0  0  0  0  0  0  0  0  0  0
   -1.9107    0.5975    0.3727 C   0  0  0  0  0  0  0  0  0  0  0  0
   -4.1598    0.0382    0.0697 C   0  0  0  0  0  0  0  0  0  0  0  0
   -0.4809    0.4971    0.5324 C   0  0  0  0  0  0  0  0  0  0  0  0
   -2.4951    1.8416    0.3947 C   0  0  0  0  0  0  0  0  0  0  0  0
   -5.2533   -0.8151   -0.1199 C   0  0  0  0  0  0  0  0  0  0  0  0
   -2.6763   -1.8517    0.1057 C   0  0  0  0  0  0  0  0  0  0  0  0
   -9.0868    0.6245   -0.4477 C   0  0  0  0  0  0  0  0  0  0  0  0
    0.0707    0.3617    1.8064 C   0  0  0  0  0  0  0  0  0  0  0  0
    0.3505    0.5353   -0.5870 C   0  0  0  0  0  0  0  0  0  0  0  0
    2.2850    0.3029    0.8414 C   0  0  0  0  0  0  0  0  0  0  0  0
   -4.9581   -2.1655   -0.1835 C   0  0  0  0  0  0  0  0  0  0  0  0
    1.4536    0.2644    1.9608 C   0  0  0  0  0  0  0  0  0  0  0  0
    1.7334    0.4384   -0.4325 C   0  0  0  0  0  0  0  0  0  0  0  0
   -9.9993   -0.0940    0.5538 C   0  0  0  0  0  0  0  0  0  0  0  0
   -9.0951    2.1335   -0.1759 C   0  0  0  0  0  0  0  0  0  0  0  0
   -6.5879   -0.3142   -0.2361 C   0  0  0  0  0  0  0  0  0  0  0  0
   -7.7093    0.1067   -0.3329 C   0  0  0  0  0  0  0  0  0  0  0  0
    4.6725    0.2241   -0.0024 C   0  0  0  0  0  0  0  0  0  0  0  0
    7.2011    0.0731   -0.0503 C   0  0  0  0  0  0  0  0  0  0  0  0
    9.6086   -0.0854    0.0756 C   0  0  0  0  0  0  0  0  0  0  0  0
    8.3651   -0.0599    0.7069 C   0  0  0  0  0  0  0  0  0  0  0  0
    7.2808    0.1802   -1.4388 C   0  0  0  0  0  0  0  0  0  0  0  0
    9.6882    0.0218   -1.3128 C   0  0  0  0  0  0  0  0  0  0  0  0
    8.5243    0.1545   -2.0701 C   0  0  0  0  0  0  0  0  0  0  0  0
   10.8535   -0.2284    0.8846 C   0  0  0  0  0  0  0  0  0  0  0  0
   -2.0175    2.8045    0.5202 H   0  0  0  0  0  0  0  0  0  0  0  0
   -0.5633    0.3288    2.6893 H   0  0  0  0  0  0  0  0  0  0  0  0
   -0.0649    0.6391   -1.5869 H   0  0  0  0  0  0  0  0  0  0  0  0
   -5.7435   -2.9029   -0.3280 H   0  0  0  0  0  0  0  0  0  0  0  0
    1.8698    0.1587    2.9595 H   0  0  0  0  0  0  0  0  0  0  0  0
    2.3074    0.4756   -1.3473 H   0  0  0  0  0  0  0  0  0  0  0  0
  -11.0318    0.2682    0.4855 H   0  0  0  0  0  0  0  0  0  0  0  0
  -10.0130   -1.1772    0.3811 H   0  0  0  0  0  0  0  0  0  0  0  0
   -9.6592    0.0646    1.5845 H   0  0  0  0  0  0  0  0  0  0  0  0
  -10.1050    2.5511   -0.2641 H   0  0  0  0  0  0  0  0  0  0  0  0
   -8.4472    2.6745   -0.8768 H   0  0  0  0  0  0  0  0  0  0  0  0
   -8.7318    2.3558    0.8349 H   0  0  0  0  0  0  0  0  0  0  0  0
    3.9949    0.1094    1.9544 H   0  0  0  0  0  0  0  0  0  0  0  0
   -0.5559   -1.8769    0.3488 H   0  0  0  0  0  0  0  0  0  0  0  0
   -1.3138   -3.4267    0.1482 H   0  0  0  0  0  0  0  0  0  0  0  0
   -9.5739   -0.6015   -2.0241 H   0  0  0  0  0  0  0  0  0  0  0  0
   -8.9778    0.8506   -2.4887 H   0  0  0  0  0  0  0  0  0  0  0  0
    5.9637    0.0164    1.6029 H   0  0  0  0  0  0  0  0  0  0  0  0
    8.3043   -0.1420    1.7898 H   0  0  0  0  0  0  0  0  0  0  0  0
    6.4283    0.2860   -2.0942 H   0  0  0  0  0  0  0  0  0  0  0  0
   10.6511    0.0051   -1.8165 H   0  0  0  0  0  0  0  0  0  0  0  0
    8.5878    0.2383   -3.1512 H   0  0  0  0  0  0  0  0  0  0  0  0
   11.2106    0.7564    1.2014 H   0  0  0  0  0  0  0  0  0  0  0  0
   10.6765   -0.8418    1.7747 H   0  0  0  0  0  0  0  0  0  0  0  0
   11.6458   -0.7199    0.3097 H   0  0  0  0  0  0  0  0  0  0  0  0
  1 10  1  0  0  0  0
  1 12  1  0  0  0  0
  2 26  2  0  0  0  0
  3 14  2  0  0  0  0
  3 19  1  0  0  0  0
  4 18  1  0  0  0  0
  4 26  1  0  0  0  0
  4 46  1  0  0  0  0
  5 14  1  0  0  0  0
  5 47  1  0  0  0  0
  5 48  1  0  0  0  0
  6 15  1  0  0  0  0
  6 49  1  0  0  0  0
  6 50  1  0  0  0  0
  7 26  1  0  0  0  0
  7 27  1  0  0  0  0
  7 51  1  0  0  0  0
  8  9  1  0  0  0  0
  8 10  2  0  0  0  0
  8 14  1  0  0  0  0
  9 11  1  0  0  0  0
  9 12  2  0  0  0  0
 10 13  1  0  0  0  0
 11 16  2  0  0  0  0
 11 17  1  0  0  0  0
 12 34  1  0  0  0  0
 13 19  2  0  0  0  0
 13 24  1  0  0  0  0
 15 22  1  0  0  0  0
 15 23  1  0  0  0  0
 15 25  1  0  0  0  0
 16 20  1  0  0  0  0
 16 35  1  0  0  0  0
 17 21  2  0  0  0  0
 17 36  1  0  0  0  0
 18 20  2  0  0  0  0
 18 21  1  0  0  0  0
 19 37  1  0  0  0  0
 20 38  1  0  0  0  0
 21 39  1  0  0  0  0
 22 40  1  0  0  0  0
 22 41  1  0  0  0  0
 22 42  1  0  0  0  0
 23 43  1  0  0  0  0
 23 44  1  0  0  0  0
 23 45  1  0  0  0  0
 24 25  3  0  0  0  0
 27 29  1  0  0  0  0
 27 30  2  0  0  0  0
 28 29  2  0  0  0  0
 28 31  1  0  0  0  0
 28 33  1  0  0  0  0
 29 52  1  0  0  0  0
 30 32  1  0  0  0  0
 30 53  1  0  0  0  0
 31 32  2  0  0  0  0
 31 54  1  0  0  0  0
 32 55  1  0  0  0  0
 33 56  1  0  0  0  0
 33 57  1  0  0  0  0
 33 58  1  0  0  0  0
M  END
> <PUBCHEM_COMPOUND_CID>
18451141

> <PUBCHEM_CONFORMER_RMSD>
0.8

> <PUBCHEM_CONFORMER_DIVERSEORDER>
2
19
22
14
10
13
17
18
26
9
8
12
6
11
20
5
15
16
4
3
24
7
25
1
27
23
21

> <PUBCHEM_MMFF94_PARTIAL_CHARGES>
46
1 -0.08
10 0.04
11 0.05
12 -0.11
13 0.07
14 0.41
15 0.47
16 -0.15
17 -0.15
18 0.12
19 0.16
2 -0.57
20 -0.15
21 -0.15
24 -0.07
25 -0.2
26 0.69
27 0.12
28 -0.14
29 -0.15
3 -0.62
30 -0.15
31 -0.15
32 -0.15
33 0.14
34 0.15
35 0.15
36 0.15
37 0.15
38 0.15
39 0.15
4 -0.55
46 0.37
47 0.4
48 0.4
49 0.36
5 -0.9
50 0.36
51 0.37
52 0.15
53 0.15
54 0.15
55 0.15
6 -0.99
7 -0.55
9 -0.05

> <PUBCHEM_EFFECTIVE_ROTOR_COUNT>
5

> <PUBCHEM_PHARMACOPHORE_FEATURES>
12
1 2 acceptor
1 4 donor
1 5 donor
1 6 cation
1 6 donor
1 7 donor
3 15 22 23 hydrophobe
3 3 5 14 cation
5 1 8 9 10 12 rings
6 11 16 17 18 20 21 rings
6 27 28 29 30 31 32 rings
6 3 8 10 13 14 19 rings

> <PUBCHEM_HEAVY_ATOM_COUNT>
33

> <PUBCHEM_ATOM_DEF_STEREO_COUNT>
0

> <PUBCHEM_ATOM_UDEF_STEREO_COUNT>
0

> <PUBCHEM_BOND_DEF_STEREO_COUNT>
0

> <PUBCHEM_BOND_UDEF_STEREO_COUNT>
0

> <PUBCHEM_ISOTOPIC_ATOM_COUNT>
0

> <PUBCHEM_COMPONENT_COUNT>
1

> <PUBCHEM_CACTVS_TAUTO_COUNT>
6

> <PUBCHEM_CONFORMER_ID>
01198AC500000002

> <PUBCHEM_MMFF94_ENERGY>
91.7445

> <PUBCHEM_FEATURE_SELFOVERLAP>
61.01

> <PUBCHEM_SHAPE_FINGERPRINT>
10076449 9 18202565068996568137
10299344 5 18113618993846820186
106641 1 11959730477903290024
10674148 151 18411416228412296699
11410812 94 13686307834340492163
12089408 11 17821729463876640030
12144603 126 17822009800301765488
12522641 33 17603586309744935458
12559415 135 18407760336051818792
12643181 29 18202564011928405839
12741549 16 16415760825562255857
12758862 11 18131066073772132921
13947947 74 18272373057653505139
14040221 8 18412832373962881588
14251764 46 18407759235410796352
14294032 229 18262234401321906501
15065858 18 17704070707577246750
15183329 4 17022618702871969586
15247644 1 16128657457144181286
15392192 104 11312059846996845060
15419008 91 18059277817925498240
15510794 2 17418095395672750140
16087824 20 18336262346219644957
20105231 36 18261397784430848547
20609170 92 18262511469772019533
21360443 120 18040714745179441275
21360443 89 8790590508890819905
21792934 111 16774072986837405704
21792961 116 17561367253259902049
232437 2 17967533484653879339
23559900 14 18199460146796264161
249057 3 18409450310201555572
3092352 35 17312822693320594123
335352 9 18410569596702404423
4017518 198 17917991685941770087
4625314 4 18059852921485827368
57828716 8 13686292466462417981
58083652 198 16200153244196747866
58902169 19 17676773175766313542
59521270 166 18335699412949642797
59521660 218 17676759865341312667
59682541 35 11674879996189883927
6126387 218 15554453981281056801
6691757 9 18341342137025751163
67123 10 15719393936355532337
9663363 56 17132112442878963872
9962374 69 15625929964065146928

> <PUBCHEM_SHAPE_MULTIPOLES>
652.2
38.48
1.64
1.35
33.76
0.73
0.13
-3.62
10.76
-4.1
-0.05
2.02
-0.16
0.16

> <PUBCHEM_SHAPE_SELFOVERLAP>
1410.955

> <PUBCHEM_SHAPE_VOLUME>
359.7

> <PUBCHEM_COORDINATE_TYPE>
2
5
10

$$$$
