5329656
  -OEChem-10052115143D

 32 35  0     0  0  0  0  0  0999 V2000
    6.8600    1.1995    0.7616 Cl  0  0  0  0  0  0  0  0  0  0  0  0
    4.4392    2.2919   -0.5660 S   0  0  0  0  0  0  0  0  0  0  0  0
   -0.1424    1.5892   -0.0472 O   0  0  0  0  0  0  0  0  0  0  0  0
   -5.5359    1.4990    0.1304 O   0  0  0  0  0  0  0  0  0  0  0  0
    1.1134   -2.7910   -0.0864 N   0  0  0  0  0  0  0  0  0  0  0  0
    2.3443   -2.2150   -0.1289 N   0  0  0  0  0  0  0  0  0  0  0  0
   -3.1815    1.4444    0.0527 N   0  0  0  0  0  0  0  0  0  0  0  0
   -4.3412    3.4463    0.0881 N   0  0  0  0  0  0  0  0  0  0  0  0
    0.7258   -0.6360   -0.0758 C   0  0  0  0  0  0  0  0  0  0  0  0
    0.1329   -1.8689   -0.0545 C   0  0  0  0  0  0  0  0  0  0  0  0
   -1.2913   -1.7756   -0.0064 C   0  0  0  0  0  0  0  0  0  0  0  0
   -1.5871   -0.3870    0.0022 C   0  0  0  0  0  0  0  0  0  0  0  0
   -0.2940    0.3842   -0.0422 C   0  0  0  0  0  0  0  0  0  0  0  0
    2.0904   -0.8919   -0.1216 C   0  0  0  0  0  0  0  0  0  0  0  0
   -2.8805    0.0851    0.0451 C   0  0  0  0  0  0  0  0  0  0  0  0
   -2.2878   -2.7229    0.0278 C   0  0  0  0  0  0  0  0  0  0  0  0
    3.1248    0.1172   -0.1566 C   0  0  0  0  0  0  0  0  0  0  0  0
   -3.8983   -0.8728    0.0801 C   0  0  0  0  0  0  0  0  0  0  0  0
   -3.6064   -2.2556    0.0715 C   0  0  0  0  0  0  0  0  0  0  0  0
    4.4228   -0.0884    0.4005 C   0  0  0  0  0  0  0  0  0  0  0  0
    3.0014    1.3738   -0.7148 C   0  0  0  0  0  0  0  0  0  0  0  0
    5.2361    1.0128    0.2470 C   0  0  0  0  0  0  0  0  0  0  0  0
   -4.4447    2.0617    0.0935 C   0  0  0  0  0  0  0  0  0  0  0  0
    1.0500   -3.8019   -0.0829 H   0  0  0  0  0  0  0  0  0  0  0  0
   -2.0736   -3.7851    0.0214 H   0  0  0  0  0  0  0  0  0  0  0  0
   -4.9513   -0.6241    0.1150 H   0  0  0  0  0  0  0  0  0  0  0  0
   -4.4250   -2.9710    0.0994 H   0  0  0  0  0  0  0  0  0  0  0  0
   -2.3836    2.0741    0.0251 H   0  0  0  0  0  0  0  0  0  0  0  0
    4.7498   -0.9966    0.8932 H   0  0  0  0  0  0  0  0  0  0  0  0
    2.1529    1.8063   -1.2248 H   0  0  0  0  0  0  0  0  0  0  0  0
   -5.1678    4.0339    0.1146 H   0  0  0  0  0  0  0  0  0  0  0  0
   -3.4417    3.9141    0.0577 H   0  0  0  0  0  0  0  0  0  0  0  0
  1 22  1  0  0  0  0
  2 21  1  0  0  0  0
  2 22  1  0  0  0  0
  3 13  2  0  0  0  0
  4 23  2  0  0  0  0
  5  6  1  0  0  0  0
  5 10  1  0  0  0  0
  5 24  1  0  0  0  0
  6 14  2  0  0  0  0
  7 15  1  0  0  0  0
  7 23  1  0  0  0  0
  7 28  1  0  0  0  0
  8 23  1  0  0  0  0
  8 31  1  0  0  0  0
  8 32  1  0  0  0  0
  9 10  2  0  0  0  0
  9 13  1  0  0  0  0
  9 14  1  0  0  0  0
 10 11  1  0  0  0  0
 11 12  2  0  0  0  0
 11 16  1  0  0  0  0
 12 13  1  0  0  0  0
 12 15  1  0  0  0  0
 14 17  1  0  0  0  0
 15 18  2  0  0  0  0
 16 19  2  0  0  0  0
 16 25  1  0  0  0  0
 17 20  1  0  0  0  0
 17 21  2  0  0  0  0
 18 19  1  0  0  0  0
 18 26  1  0  0  0  0
 19 27  1  0  0  0  0
 20 22  2  0  0  0  0
 20 29  1  0  0  0  0
 21 30  1  0  0  0  0
M  END
> <PUBCHEM_COMPOUND_CID>
5329656

> <PUBCHEM_CONFORMER_RMSD>
0.6

> <PUBCHEM_CONFORMER_DIVERSEORDER>
1
21
13
20
12
10
17
23
24
6
9
14
19
11
18
22
15
8
25
4
5
7
16
3
2

> <PUBCHEM_MMFF94_PARTIAL_CHARGES>
31
1 -0.12
10 -0.2
11 0.05
12 0.09
13 0.57
14 0.29
15 0.12
16 -0.15
18 -0.15
19 -0.15
2 -0.08
20 -0.15
21 -0.11
22 0.16
23 0.69
24 0.27
25 0.15
26 0.15
27 0.15
28 0.37
29 0.15
3 -0.57
30 0.15
31 0.37
32 0.37
4 -0.57
5 0.3
6 -0.71
7 -0.55
8 -0.8
9 -0.09

> <PUBCHEM_EFFECTIVE_ROTOR_COUNT>
3

> <PUBCHEM_PHARMACOPHORE_FEATURES>
10
1 3 acceptor
1 4 acceptor
1 5 donor
1 6 acceptor
1 7 donor
1 8 donor
5 2 17 20 21 22 rings
5 5 6 9 10 14 rings
5 9 10 11 12 13 rings
6 11 12 15 16 18 19 rings

> <PUBCHEM_HEAVY_ATOM_COUNT>
23

> <PUBCHEM_ATOM_DEF_STEREO_COUNT>
0

> <PUBCHEM_ATOM_UDEF_STEREO_COUNT>
0

> <PUBCHEM_BOND_DEF_STEREO_COUNT>
0

> <PUBCHEM_BOND_UDEF_STEREO_COUNT>
0

> <PUBCHEM_ISOTOPIC_ATOM_COUNT>
0

> <PUBCHEM_COMPONENT_COUNT>
1

> <PUBCHEM_CACTVS_TAUTO_COUNT>
40

> <PUBCHEM_CONFORMER_ID>
005152F800000001

> <PUBCHEM_MMFF94_ENERGY>
73.7489

> <PUBCHEM_FEATURE_SELFOVERLAP>
51.127

> <PUBCHEM_SHAPE_FINGERPRINT>
10 15 18260274061560591809
10050765 1 18411136905188697387
10411042 1 17690560110327483311
10493431 412 18410014299943140349
12107183 9 18190450568272053162
12236239 1 17968371368775970336
12390115 104 18270417047583656321
12403259 118 18336259150183104440
12403259 415 18059009609622008616
12403260 363 18191583262431678492
12969540 114 16630805534446730334
13140716 1 18263082119769027755
13540713 4 18269009629893621463
13785724 45 17976814291144432010
13965767 371 17896036546655916708
14466204 15 18411415142197488392
14790565 3 18337396066644319852
15042514 8 17977105991683997370
15196674 1 18410856568683580238
17980427 23 17967536821637636708
18608769 82 18339924913782207331
20715895 44 18265892467041583912
21236236 1 18411698828781201639
21267235 1 18263651830491251794
21279426 13 18342746174440101374
21304253 335 18261681393309680548
21421861 104 17823689768660525722
21452121 103 18338234865072088658
21859007 373 17170943752654823341
22182313 1 18199211558152212183
23227448 37 18411139138803053253
23402539 116 18199180875264279254
23559900 14 18198905812521189278
245318 6 17027141143820073596
25147074 1 18338217315525006971
2916195 48 18059005215976011768
335352 9 18266179418365237590
34934 24 18411415094525371987
350125 39 18339366391607667697
4214541 1 18409448124179155404
474 4 18334298638766068008
5104073 3 18261395515975881818
59554788 62 17676482809373830727
59755656 215 18269562654846768510
6327066 14 18336259038588288749
7064713 232 18335982047398991076
7808743 9 18410571782007620241
9981440 41 18335703874835646930

> <PUBCHEM_SHAPE_MULTIPOLES>
447.39
12.56
3.33
0.68
9.93
0.55
0
8.81
1.9
-3.7
-0.09
0.44
0.08
-0.28

> <PUBCHEM_SHAPE_SELFOVERLAP>
992.48

> <PUBCHEM_SHAPE_VOLUME>
243

> <PUBCHEM_COORDINATE_TYPE>
2
5
10

$$$$
