20079626
  -OEChem-10052115163D

 49 53  0     0  0  0  0  0  0999 V2000
   -1.7815    0.4113    1.6409 S   0  0  0  0  0  0  0  0  0  0  0  0
    1.1976    1.3524   -2.8539 O   0  0  0  0  0  0  0  0  0  0  0  0
    1.4611    5.0238   -0.1247 O   0  0  0  0  0  0  0  0  0  0  0  0
    0.7216   -1.8316    0.4682 N   0  0  0  0  0  0  0  0  0  0  0  0
    1.2913    3.4265   -1.8097 N   0  0  0  0  0  0  0  0  0  0  0  0
   -1.9402   -5.6355   -1.1631 N   0  0  0  0  0  0  0  0  0  0  0  0
    1.6723    2.7241    2.8862 N   0  0  0  0  0  0  0  0  0  0  0  0
    0.3005   -0.5605    0.1829 C   0  0  0  0  0  0  0  0  0  0  0  0
    1.4105    0.1973   -0.1116 C   0  0  0  0  0  0  0  0  0  0  0  0
    2.0919   -1.9125    0.3637 C   0  0  0  0  0  0  0  0  0  0  0  0
    2.5519   -0.6454   -0.0012 C   0  0  0  0  0  0  0  0  0  0  0  0
   -0.1399   -2.9404    0.8292 C   0  0  0  0  0  0  0  0  0  0  0  0
   -1.0689   -0.1809    0.2102 C   0  0  0  0  0  0  0  0  0  0  0  0
   -0.6067   -3.7285   -0.3943 C   0  0  0  0  0  0  0  0  0  0  0  0
    1.3975    1.5827   -0.4635 C   0  0  0  0  0  0  0  0  0  0  0  0
    2.9507   -2.9994    0.5621 C   0  0  0  0  0  0  0  0  0  0  0  0
    3.9362   -0.4510   -0.1773 C   0  0  0  0  0  0  0  0  0  0  0  0
   -1.9655   -0.2290   -0.8307 C   0  0  0  0  0  0  0  0  0  0  0  0
   -1.5210   -4.8821    0.0127 C   0  0  0  0  0  0  0  0  0  0  0  0
    1.4807    2.6678    0.3207 C   0  0  0  0  0  0  0  0  0  0  0  0
   -3.2751    0.2281   -0.4616 C   0  0  0  0  0  0  0  0  0  0  0  0
    4.3198   -2.7829    0.3817 C   0  0  0  0  0  0  0  0  0  0  0  0
    4.8071   -1.5293    0.0177 C   0  0  0  0  0  0  0  0  0  0  0  0
    1.2779    2.0624   -1.8657 C   0  0  0  0  0  0  0  0  0  0  0  0
   -3.3163    0.6143    0.8817 C   0  0  0  0  0  0  0  0  0  0  0  0
    1.4140    3.8744   -0.5273 C   0  0  0  0  0  0  0  0  0  0  0  0
   -4.4623    0.3359   -1.2258 C   0  0  0  0  0  0  0  0  0  0  0  0
   -4.4996    1.0994    1.4727 C   0  0  0  0  0  0  0  0  0  0  0  0
   -5.6377    0.8165   -0.6426 C   0  0  0  0  0  0  0  0  0  0  0  0
   -5.6538    1.1936    0.6928 C   0  0  0  0  0  0  0  0  0  0  0  0
    1.5859    2.6986    1.7296 C   0  0  0  0  0  0  0  0  0  0  0  0
    0.4090   -3.5878    1.5221 H   0  0  0  0  0  0  0  0  0  0  0  0
   -0.9945   -2.5568    1.3949 H   0  0  0  0  0  0  0  0  0  0  0  0
    0.2652   -4.1195   -0.9350 H   0  0  0  0  0  0  0  0  0  0  0  0
   -1.1328   -3.0670   -1.0926 H   0  0  0  0  0  0  0  0  0  0  0  0
    2.5839   -3.9813    0.8407 H   0  0  0  0  0  0  0  0  0  0  0  0
    4.3331    0.5195   -0.4611 H   0  0  0  0  0  0  0  0  0  0  0  0
   -1.7071   -0.5745   -1.8251 H   0  0  0  0  0  0  0  0  0  0  0  0
   -0.9960   -5.5551    0.6989 H   0  0  0  0  0  0  0  0  0  0  0  0
   -2.4058   -4.4982    0.5324 H   0  0  0  0  0  0  0  0  0  0  0  0
    5.0141   -3.6066    0.5267 H   0  0  0  0  0  0  0  0  0  0  0  0
    5.8758   -1.3854   -0.1172 H   0  0  0  0  0  0  0  0  0  0  0  0
    1.2248    4.0308   -2.6208 H   0  0  0  0  0  0  0  0  0  0  0  0
   -4.4652    0.0442   -2.2732 H   0  0  0  0  0  0  0  0  0  0  0  0
   -4.5214    1.3970    2.5172 H   0  0  0  0  0  0  0  0  0  0  0  0
   -2.5903   -6.3679   -0.8810 H   0  0  0  0  0  0  0  0  0  0  0  0
   -2.4549   -5.0251   -1.7966 H   0  0  0  0  0  0  0  0  0  0  0  0
   -6.5420    0.8944   -1.2393 H   0  0  0  0  0  0  0  0  0  0  0  0
   -6.5725    1.5663    1.1377 H   0  0  0  0  0  0  0  0  0  0  0  0
  1 13  1  0  0  0  0
  1 25  1  0  0  0  0
  2 24  2  0  0  0  0
  3 26  2  0  0  0  0
  4  8  1  0  0  0  0
  4 10  1  0  0  0  0
  4 12  1  0  0  0  0
  5 24  1  0  0  0  0
  5 26  1  0  0  0  0
  5 43  1  0  0  0  0
  6 19  1  0  0  0  0
  6 46  1  0  0  0  0
  6 47  1  0  0  0  0
  7 31  3  0  0  0  0
  8  9  2  0  0  0  0
  8 13  1  0  0  0  0
  9 11  1  0  0  0  0
  9 15  1  0  0  0  0
 10 11  1  0  0  0  0
 10 16  2  0  0  0  0
 11 17  2  0  0  0  0
 12 14  1  0  0  0  0
 12 32  1  0  0  0  0
 12 33  1  0  0  0  0
 13 18  2  0  0  0  0
 14 19  1  0  0  0  0
 14 34  1  0  0  0  0
 14 35  1  0  0  0  0
 15 20  2  0  0  0  0
 15 24  1  0  0  0  0
 16 22  1  0  0  0  0
 16 36  1  0  0  0  0
 17 23  1  0  0  0  0
 17 37  1  0  0  0  0
 18 21  1  0  0  0  0
 18 38  1  0  0  0  0
 19 39  1  0  0  0  0
 19 40  1  0  0  0  0
 20 26  1  0  0  0  0
 20 31  1  0  0  0  0
 21 25  1  0  0  0  0
 21 27  2  0  0  0  0
 22 23  2  0  0  0  0
 22 41  1  0  0  0  0
 23 42  1  0  0  0  0
 25 28  2  0  0  0  0
 27 29  1  0  0  0  0
 27 44  1  0  0  0  0
 28 30  1  0  0  0  0
 28 45  1  0  0  0  0
 29 30  2  0  0  0  0
 29 48  1  0  0  0  0
 30 49  1  0  0  0  0
M  END
> <PUBCHEM_COMPOUND_CID>
20079626

> <PUBCHEM_CONFORMER_RMSD>
0.8

> <PUBCHEM_CONFORMER_DIVERSEORDER>
1
27
15
14
21
18
28
19
10
26
22
5
11
24
25
6
12
23
13
16
4
17
3
9
2
20
7
8

> <PUBCHEM_MMFF94_PARTIAL_CHARGES>
40
1 -0.08
10 -0.15
12 0.26
13 0.04
15 0.06
16 -0.15
17 -0.15
18 -0.15
19 0.27
2 -0.57
20 0.08
22 -0.15
23 -0.15
24 0.62
25 0.04
26 0.62
27 -0.15
28 -0.15
29 -0.15
3 -0.57
30 -0.15
31 0.49
36 0.15
37 0.15
38 0.15
4 0.05
41 0.15
42 0.15
43 0.37
44 0.15
45 0.15
46 0.36
47 0.36
48 0.15
49 0.15
5 -0.49
6 -0.99
7 -0.56
8 -0.15
9 -0.05

> <PUBCHEM_EFFECTIVE_ROTOR_COUNT>
5.2

> <PUBCHEM_PHARMACOPHORE_FEATURES>
12
1 2 acceptor
1 3 acceptor
1 4 cation
1 5 donor
1 6 cation
1 6 donor
1 7 acceptor
5 1 13 18 21 25 rings
5 4 8 9 10 11 rings
5 5 15 20 24 26 rings
6 10 11 16 17 22 23 rings
6 21 25 27 28 29 30 rings

> <PUBCHEM_HEAVY_ATOM_COUNT>
31

> <PUBCHEM_ATOM_DEF_STEREO_COUNT>
0

> <PUBCHEM_ATOM_UDEF_STEREO_COUNT>
0

> <PUBCHEM_BOND_DEF_STEREO_COUNT>
0

> <PUBCHEM_BOND_UDEF_STEREO_COUNT>
0

> <PUBCHEM_ISOTOPIC_ATOM_COUNT>
0

> <PUBCHEM_COMPONENT_COUNT>
1

> <PUBCHEM_CACTVS_TAUTO_COUNT>
3

> <PUBCHEM_CONFORMER_ID>
0132640A00000001

> <PUBCHEM_MMFF94_ENERGY>
57.3573

> <PUBCHEM_FEATURE_SELFOVERLAP>
61.049

> <PUBCHEM_SHAPE_FINGERPRINT>
10162869 55 18340206290360045481
10165383 225 17395904110776058489
10190108 129 17476113157425267379
102385 1 18122063371179962074
10930396 42 18120906509760991738
1100329 8 18410575106365158610
11421498 54 17843120295223537523
11582403 64 16267969063961274456
12058002 1 17559142932773830222
12166972 35 18342454812295986825
12236239 1 17988075574433189747
12788726 201 17972315106278627010
13134695 92 18335986376230205101
13383668 90 16844177727632951430
13911987 19 18189069607078849414
13965767 371 17752752800004379453
14068700 675 18059560344345594025
14955137 171 18265066759726439147
15439362 3 18339071691878851537
15927050 60 18194130834983742380
17980427 23 16844993642164438065
17980427 26 17700385226211309344
1813 80 18197508319860791190
18681886 176 18410288099644741875
19319366 153 17749394720068928234
20600515 1 18270691878715458366
20642791 105 17691106554483547145
20739085 24 18193010217775793546
21641784 216 17680732332121746308
22149856 69 18265902535811074091
22311459 1 18337390415079807746
23419403 2 17984952970158983464
23558518 356 18119803870337018890
23559900 14 18261109656739355793
283562 15 17975977557993772602
3027735 51 17760085112405496818
3178227 256 18336840706082675467
3380486 77 18267604436942397576
350125 39 17903087964154642002
469060 322 17827653448028327952
6823239 73 16009043799568272533
9981440 41 17762891465237454528

> <PUBCHEM_SHAPE_MULTIPOLES>
610.15
8.57
6.34
1.74
8.85
3.06
-0.01
1.73
0.71
-2.86
-1.12
0.17
-1.56
-0.89

> <PUBCHEM_SHAPE_SELFOVERLAP>
1358.377

> <PUBCHEM_SHAPE_VOLUME>
329.9

> <PUBCHEM_COORDINATE_TYPE>
2
5
10

$$$$
