11846125
  -OEChem-10062121593D

 43 44  0     0  0  0  0  0  0999 V2000
    3.3447   -0.7328    1.7533 S   0  0  0  0  0  0  0  0  0  0  0  0
    3.6387    0.1277    2.8890 O   0  0  0  0  0  0  0  0  0  0  0  0
    2.0278   -1.3374    1.6217 O   0  0  0  0  0  0  0  0  0  0  0  0
   -2.8302    2.0962    0.2641 O   0  0  0  0  0  0  0  0  0  0  0  0
   -0.1929   -2.9437   -0.9464 O   0  0  0  0  0  0  0  0  0  0  0  0
    0.7395   -0.8516   -0.7659 N   0  0  0  0  0  0  0  0  0  0  0  0
    4.5264   -1.9631    1.6698 N   0  0  0  0  0  0  0  0  0  0  0  0
   -1.6402    0.1835   -0.2343 N   0  0  0  0  0  0  0  0  0  0  0  0
   -5.1555   -2.1255   -0.0892 N   0  0  0  0  0  0  0  0  0  0  0  0
   -6.2631    1.2391    0.6397 N   0  0  0  0  0  0  0  0  0  0  0  0
    3.0726   -0.1680   -0.9195 C   0  0  0  0  0  0  0  0  0  0  0  0
    3.6918    0.1574    0.2872 C   0  0  0  0  0  0  0  0  0  0  0  0
    2.0895   -1.2889   -1.0108 C   0  0  0  0  0  0  0  0  0  0  0  0
    3.3687    0.5577   -2.0734 C   0  0  0  0  0  0  0  0  0  0  0  0
    4.6071    1.2087    0.3401 C   0  0  0  0  0  0  0  0  0  0  0  0
    4.2839    1.6090   -2.0204 C   0  0  0  0  0  0  0  0  0  0  0  0
    4.9032    1.9345   -0.8138 C   0  0  0  0  0  0  0  0  0  0  0  0
   -0.3402   -1.7360   -0.7504 C   0  0  0  0  0  0  0  0  0  0  0  0
   -1.6518   -1.1431   -0.4538 C   0  0  0  0  0  0  0  0  0  0  0  0
   -2.7705   -1.9458   -0.4188 C   0  0  0  0  0  0  0  0  0  0  0  0
   -3.9860   -1.3336   -0.1334 C   0  0  0  0  0  0  0  0  0  0  0  0
   -2.8399    0.7433    0.0399 C   0  0  0  0  0  0  0  0  0  0  0  0
   -4.0300    0.0361    0.1015 C   0  0  0  0  0  0  0  0  0  0  0  0
   -1.5691    2.7484    0.1825 C   0  0  0  0  0  0  0  0  0  0  0  0
   -1.7611    4.2272    0.4427 C   0  0  0  0  0  0  0  0  0  0  0  0
   -5.2633    0.7006    0.3986 C   0  0  0  0  0  0  0  0  0  0  0  0
    2.0904   -1.6664   -2.0437 H   0  0  0  0  0  0  0  0  0  0  0  0
    2.3512   -2.1838   -0.4385 H   0  0  0  0  0  0  0  0  0  0  0  0
    2.8933    0.3190   -3.0212 H   0  0  0  0  0  0  0  0  0  0  0  0
    5.1088    1.4773    1.2653 H   0  0  0  0  0  0  0  0  0  0  0  0
    0.5653    0.1363   -0.6004 H   0  0  0  0  0  0  0  0  0  0  0  0
    4.5143    2.1744   -2.9187 H   0  0  0  0  0  0  0  0  0  0  0  0
    5.6170    2.7521   -0.7732 H   0  0  0  0  0  0  0  0  0  0  0  0
   -2.7187   -3.0136   -0.6049 H   0  0  0  0  0  0  0  0  0  0  0  0
    5.3087   -1.9191    2.3343 H   0  0  0  0  0  0  0  0  0  0  0  0
    4.2072   -2.9180    1.4660 H   0  0  0  0  0  0  0  0  0  0  0  0
   -0.8824    2.3406    0.9342 H   0  0  0  0  0  0  0  0  0  0  0  0
   -1.1377    2.6177   -0.8174 H   0  0  0  0  0  0  0  0  0  0  0  0
   -5.0944   -3.1199   -0.2650 H   0  0  0  0  0  0  0  0  0  0  0  0
   -6.0547   -1.7117    0.1145 H   0  0  0  0  0  0  0  0  0  0  0  0
   -0.8083    4.7612    0.3876 H   0  0  0  0  0  0  0  0  0  0  0  0
   -2.4518    4.6609   -0.2880 H   0  0  0  0  0  0  0  0  0  0  0  0
   -2.2010    4.3909    1.4320 H   0  0  0  0  0  0  0  0  0  0  0  0
  1  2  2  0  0  0  0
  1  3  2  0  0  0  0
  1  7  1  0  0  0  0
  1 12  1  0  0  0  0
  4 22  1  0  0  0  0
  4 24  1  0  0  0  0
  5 18  2  0  0  0  0
  6 13  1  0  0  0  0
  6 18  1  0  0  0  0
  6 31  1  0  0  0  0
  7 35  1  0  0  0  0
  7 36  1  0  0  0  0
  8 19  2  0  0  0  0
  8 22  1  0  0  0  0
  9 21  1  0  0  0  0
  9 39  1  0  0  0  0
  9 40  1  0  0  0  0
 10 26  3  0  0  0  0
 11 12  1  0  0  0  0
 11 13  1  0  0  0  0
 11 14  2  0  0  0  0
 12 15  2  0  0  0  0
 13 27  1  0  0  0  0
 13 28  1  0  0  0  0
 14 16  1  0  0  0  0
 14 29  1  0  0  0  0
 15 17  1  0  0  0  0
 15 30  1  0  0  0  0
 16 17  2  0  0  0  0
 16 32  1  0  0  0  0
 17 33  1  0  0  0  0
 18 19  1  0  0  0  0
 19 20  1  0  0  0  0
 20 21  2  0  0  0  0
 20 34  1  0  0  0  0
 21 23  1  0  0  0  0
 22 23  2  0  0  0  0
 23 26  1  0  0  0  0
 24 25  1  0  0  0  0
 24 37  1  0  0  0  0
 24 38  1  0  0  0  0
 25 41  1  0  0  0  0
 25 42  1  0  0  0  0
 25 43  1  0  0  0  0
M  END
> <PUBCHEM_COMPOUND_CID>
11846125

> <PUBCHEM_CONFORMER_RMSD>
0.8

> <PUBCHEM_CONFORMER_DIVERSEORDER>
1
18
181
78
96
135
188
160
134
16
156
176
139
166
173
38
115
152
97
104
142
174
54
93
75
148
130
26
113
60
143
151
20
168
146
185
122
159
154
69
128
95
140
19
106
182
92
86
109
63
64
119
105
35
186
21
114
133
178
153
177
82
136
42
116
90
183
118
8
74
123
110
158
36
99
57
167
40
66
107
171
85
25
144
124
79
137
91
138
131
43
84
169
67
39
88
3
170
103
77
165
98
34
65
48
59
58
157
71
73
164
126
76
24
5
117
149
161
22
81
30
111
29
53
175
87
150
121
184
162
89
52
51
147
7
132
62
72
112
17
120
125
2
102
127
47
50
23
28
141
12
101
83
14
172
68
37
4
56
70
187
44
94
100
45
80
179
155
49
32
41
33
15
108
145
11
31
6
129
163
180
55
10
27
46
9
13
61

> <PUBCHEM_MMFF94_PARTIAL_CHARGES>
35
1 1.45
10 -0.56
11 -0.14
12 -0.01
13 0.44
14 -0.15
15 -0.15
16 -0.15
17 -0.15
18 0.54
19 0.4
2 -0.65
20 -0.15
21 0.1
22 0.39
23 0.07
24 0.28
26 0.48
29 0.15
3 -0.65
30 0.15
31 0.37
32 0.15
33 0.15
34 0.15
35 0.42
36 0.42
39 0.4
4 -0.36
40 0.4
5 -0.57
6 -0.73
7 -0.98
8 -0.62
9 -0.9

> <PUBCHEM_EFFECTIVE_ROTOR_COUNT>
7

> <PUBCHEM_PHARMACOPHORE_FEATURES>
12
1 10 acceptor
1 2 acceptor
1 3 acceptor
1 4 acceptor
1 5 acceptor
1 6 donor
1 7 donor
1 8 acceptor
1 9 cation
1 9 donor
6 11 12 14 15 16 17 rings
6 8 19 20 21 22 23 rings

> <PUBCHEM_HEAVY_ATOM_COUNT>
26

> <PUBCHEM_ATOM_DEF_STEREO_COUNT>
0

> <PUBCHEM_ATOM_UDEF_STEREO_COUNT>
0

> <PUBCHEM_BOND_DEF_STEREO_COUNT>
0

> <PUBCHEM_BOND_UDEF_STEREO_COUNT>
0

> <PUBCHEM_ISOTOPIC_ATOM_COUNT>
0

> <PUBCHEM_COMPONENT_COUNT>
1

> <PUBCHEM_CACTVS_TAUTO_COUNT>
4

> <PUBCHEM_CONFORMER_ID>
00B4C1ED00000001

> <PUBCHEM_MMFF94_ENERGY>
60.5938

> <PUBCHEM_FEATURE_SELFOVERLAP>
60.966

> <PUBCHEM_SHAPE_FINGERPRINT>
10369192 42 16125821967592217528
10498660 4 18342464746001194653
10670039 82 18340219539516418060
10906281 52 18340778048953390561
11595378 159 18335134297799830620
12107183 9 17829601761009847330
12236239 1 18187082888345995622
12596602 18 17822014258525317546
12788726 201 18337962203263359481
13402501 40 17917430977444012968
13533116 47 16877946001269034379
13583140 156 17096371811794747687
13726171 33 18272101491177695320
13965767 371 17970916557384302444
14341114 328 18260547827223752931
14739800 52 18267573784346680776
14790565 3 17910691865073136961
14840074 17 18337127708534959769
15142526 21 17317616722958062508
19377110 9 17895481435603743219
20511986 3 18114735044375775957
20715895 44 17827624869347946485
21033648 29 17346319336213892131
23559900 14 18199193879945671615
341906 21 18413668023793902982
34797466 226 15626216940710184927
350125 39 18269563749552141830
3633792 109 17459167690877826847
3680242 22 18335990778924903585
38570 142 17532679986507459052
4340502 62 17022910085288562979
474 4 17459475635853215516
5104073 3 18261118469601128395
7097593 13 17682106682458882834
7808743 9 18199467839098053934

> <PUBCHEM_SHAPE_MULTIPOLES>
490.54
12.57
3.33
1.74
5.28
2.46
-0.66
2.45
-1.38
2.05
-0.07
-3.45
-0.24
-2.27

> <PUBCHEM_SHAPE_SELFOVERLAP>
1031.797

> <PUBCHEM_SHAPE_VOLUME>
276.7

> <PUBCHEM_COORDINATE_TYPE>
2
5
10

$$$$
