24905328
  -OEChem-10052115143D

 36 38  0     0  0  0  0  0  0999 V2000
    5.5098    0.8776   -0.2837 F   0  0  0  0  0  0  0  0  0  0  0  0
    3.9762    1.3640    1.9484 O   0  0  0  0  0  0  0  0  0  0  0  0
   -2.0071    0.1057   -0.6969 N   0  0  0  0  0  0  0  0  0  0  0  0
   -0.8103    0.7141   -0.7925 N   0  0  0  0  0  0  0  0  0  0  0  0
   -2.9513   -2.0328   -0.0661 N   0  0  0  0  0  0  0  0  0  0  0  0
   -1.2250   -3.6141    0.6194 N   0  0  0  0  0  0  0  0  0  0  0  0
    1.0963   -3.0589    0.6444 N   0  0  0  0  0  0  0  0  0  0  0  0
   -2.3170    4.4573   -0.0779 N   0  0  0  0  0  0  0  0  0  0  0  0
   -3.2047    0.8315   -1.0480 C   0  0  0  0  0  0  0  0  0  0  0  0
   -0.5854   -1.4364   -0.0521 C   0  0  0  0  0  0  0  0  0  0  0  0
   -1.9301   -1.1829   -0.2585 C   0  0  0  0  0  0  0  0  0  0  0  0
    0.0513   -0.2301   -0.3985 C   0  0  0  0  0  0  0  0  0  0  0  0
   -3.9809    1.3746    0.1606 C   0  0  0  0  0  0  0  0  0  0  0  0
    1.4633    0.0568   -0.3673 C   0  0  0  0  0  0  0  0  0  0  0  0
   -0.2438   -2.7053    0.4037 C   0  0  0  0  0  0  0  0  0  0  0  0
   -3.1664    2.2667    1.1022 C   0  0  0  0  0  0  0  0  0  0  0  0
    2.0436    0.5775    0.7894 C   0  0  0  0  0  0  0  0  0  0  0  0
    2.2498   -0.1862   -1.4934 C   0  0  0  0  0  0  0  0  0  0  0  0
   -2.4997   -3.2268    0.3745 C   0  0  0  0  0  0  0  0  0  0  0  0
    3.4103    0.8549    0.8200 C   0  0  0  0  0  0  0  0  0  0  0  0
    3.6164    0.0911   -1.4630 C   0  0  0  0  0  0  0  0  0  0  0  0
    4.1967    0.6117   -0.3062 C   0  0  0  0  0  0  0  0  0  0  0  0
   -2.6918    3.4898    0.4415 C   0  0  0  0  0  0  0  0  0  0  0  0
   -3.8433    0.1509   -1.6235 H   0  0  0  0  0  0  0  0  0  0  0  0
   -2.9205    1.6449   -1.7258 H   0  0  0  0  0  0  0  0  0  0  0  0
   -4.8546    1.9268   -0.2081 H   0  0  0  0  0  0  0  0  0  0  0  0
   -4.3683    0.5296    0.7438 H   0  0  0  0  0  0  0  0  0  0  0  0
   -3.8021    2.5473    1.9506 H   0  0  0  0  0  0  0  0  0  0  0  0
   -2.3201    1.7137    1.5236 H   0  0  0  0  0  0  0  0  0  0  0  0
    1.4328    0.7681    1.6694 H   0  0  0  0  0  0  0  0  0  0  0  0
    1.8129   -0.5923   -2.4027 H   0  0  0  0  0  0  0  0  0  0  0  0
   -3.2601   -3.9784    0.5575 H   0  0  0  0  0  0  0  0  0  0  0  0
    4.2289   -0.0979   -2.3395 H   0  0  0  0  0  0  0  0  0  0  0  0
    1.8485   -2.4031    0.4936 H   0  0  0  0  0  0  0  0  0  0  0  0
    1.3007   -3.9920    0.9763 H   0  0  0  0  0  0  0  0  0  0  0  0
    3.2876    1.4687    2.6273 H   0  0  0  0  0  0  0  0  0  0  0  0
  1 22  1  0  0  0  0
  2 20  1  0  0  0  0
  2 36  1  0  0  0  0
  3  4  1  0  0  0  0
  3  9  1  0  0  0  0
  3 11  1  0  0  0  0
  4 12  2  0  0  0  0
  5 11  2  0  0  0  0
  5 19  1  0  0  0  0
  6 15  1  0  0  0  0
  6 19  2  0  0  0  0
  7 15  1  0  0  0  0
  7 34  1  0  0  0  0
  7 35  1  0  0  0  0
  8 23  3  0  0  0  0
  9 13  1  0  0  0  0
  9 24  1  0  0  0  0
  9 25  1  0  0  0  0
 10 11  1  0  0  0  0
 10 12  1  0  0  0  0
 10 15  2  0  0  0  0
 12 14  1  0  0  0  0
 13 16  1  0  0  0  0
 13 26  1  0  0  0  0
 13 27  1  0  0  0  0
 14 17  2  0  0  0  0
 14 18  1  0  0  0  0
 16 23  1  0  0  0  0
 16 28  1  0  0  0  0
 16 29  1  0  0  0  0
 17 20  1  0  0  0  0
 17 30  1  0  0  0  0
 18 21  2  0  0  0  0
 18 31  1  0  0  0  0
 19 32  1  0  0  0  0
 20 22  2  0  0  0  0
 21 22  1  0  0  0  0
 21 33  1  0  0  0  0
M  END
> <PUBCHEM_COMPOUND_CID>
24905328

> <PUBCHEM_CONFORMER_RMSD>
0.6

> <PUBCHEM_CONFORMER_DIVERSEORDER>
3
67
56
28
46
37
70
29
47
36
75
50
73
14
69
51
31
55
48
76
27
59
54
74
72
13
63
44
43
39
64
49
24
71
41
20
62
38
57
33
68
23
19
45
60
25
22
58
26
52
40
18
11
34
42
53
8
30
17
9
65
32
35
61
66
6
15
2
16
5
4
21
12
7
10
1

> <PUBCHEM_MMFF94_PARTIAL_CHARGES>
28
1 -0.19
11 0.11
12 0.23
14 0.05
15 0.41
16 0.2
17 -0.15
18 -0.15
19 0.47
2 -0.53
20 0.08
21 -0.15
22 0.19
23 0.36
3 0.31
30 0.15
31 0.15
32 0.15
33 0.15
34 0.4
35 0.4
36 0.45
4 -0.71
5 -0.57
6 -0.62
7 -0.9
8 -0.56
9 0.26

> <PUBCHEM_EFFECTIVE_ROTOR_COUNT>
4

> <PUBCHEM_PHARMACOPHORE_FEATURES>
10
1 2 donor
1 4 acceptor
1 7 cation
1 7 donor
1 8 acceptor
3 3 5 11 cation
3 5 6 19 cation
5 3 4 10 11 12 rings
6 14 17 18 20 21 22 rings
6 5 6 10 11 15 19 rings

> <PUBCHEM_HEAVY_ATOM_COUNT>
23

> <PUBCHEM_ATOM_DEF_STEREO_COUNT>
0

> <PUBCHEM_ATOM_UDEF_STEREO_COUNT>
0

> <PUBCHEM_BOND_DEF_STEREO_COUNT>
0

> <PUBCHEM_BOND_UDEF_STEREO_COUNT>
0

> <PUBCHEM_ISOTOPIC_ATOM_COUNT>
0

> <PUBCHEM_COMPONENT_COUNT>
1

> <PUBCHEM_CACTVS_TAUTO_COUNT>
15

> <PUBCHEM_CONFORMER_ID>
017C067000000003

> <PUBCHEM_MMFF94_ENERGY>
46.1002

> <PUBCHEM_FEATURE_SELFOVERLAP>
51.025

> <PUBCHEM_SHAPE_FINGERPRINT>
10006869 2 18339079294840948827
10319926 262 18341316886976191664
1100329 8 18265622164102569413
11582403 64 17127847441047802010
11646440 116 18195257839562928131
11725454 13 17200758273241137858
12173636 292 18410575046361879501
12236239 1 16951396792957411766
12293681 160 18266154263337663023
12788726 201 17972900320772759231
13140716 1 18264776643607604373
13464514 151 18129105515606444606
13878862 14 17253140931704240941
13965767 371 17898562086284578348
14178342 30 18408321094706391974
14790565 3 17832716664519059198
16752209 62 18116142457909038967
19049666 15 18272941530913867278
19591789 44 18049168773804022319
20510252 161 18267304411949149139
20600515 1 17828737849475892285
20739085 24 17681004988945282132
21033648 29 17703502316111290752
21524375 3 18127695933289120773
23557571 272 18340773766042685372
23559900 14 18412267238382043518
23845131 108 18193570965386977489
283562 15 18264205979798467691
3091708 16 9126537472666805123
350125 39 18048037368086755293
469060 322 18265071252868613681
5252454 2 17910683064057588329
77492 1 16951116413155105134
7808743 9 18409740560145040372
81228 2 18190468344709050567
84936 182 17981603767213687225
9981440 41 18263082107332220385

> <PUBCHEM_SHAPE_MULTIPOLES>
430.3
7.98
4.41
1.21
6.87
0.26
-0.04
-5.66
-0.23
-5.55
-1.38
0.89
-0.31
0.24

> <PUBCHEM_SHAPE_SELFOVERLAP>
940.473

> <PUBCHEM_SHAPE_VOLUME>
232.7

> <PUBCHEM_COORDINATE_TYPE>
2
5
10

$$$$
