11454205
  -OEChem-10052120443D

 72 74  0     1  0  0  0  0  0999 V2000
    6.0032    0.0301    0.1324 O   0  0  0  0  0  0  0  0  0  0  0  0
    5.4153   -1.4891   -1.9981 O   0  0  0  0  0  0  0  0  0  0  0  0
   -3.8311    0.4417   -0.9611 N   0  0  0  0  0  0  0  0  0  0  0  0
   -6.7331   -0.1085    0.2227 N   0  0  1  0  0  0  0  0  0  0  0  0
   -0.2633   -2.4847   -0.1928 N   0  0  0  0  0  0  0  0  0  0  0  0
   -2.0731   -1.0453   -0.5811 N   0  0  0  0  0  0  0  0  0  0  0  0
   -1.7121    1.3267   -0.5455 N   0  0  0  0  0  0  0  0  0  0  0  0
    0.1199   -0.1718   -0.1506 N   0  0  0  0  0  0  0  0  0  0  0  0
    0.4423    2.1507   -0.1235 N   0  0  0  0  0  0  0  0  0  0  0  0
    4.5391   -0.4688   -1.5788 N   0  0  0  0  0  0  0  0  0  0  0  0
    1.4454   -2.7251    1.5959 C   0  0  0  0  0  0  0  0  0  0  0  0
   -5.8541    1.9447   -0.9221 C   0  0  0  0  0  0  0  0  0  0  0  0
   -4.3396    1.8086   -1.0861 C   0  0  0  0  0  0  0  0  0  0  0  0
   -4.7370   -0.6833   -1.1820 C   0  0  0  0  0  0  0  0  0  0  0  0
   -6.4120    1.3195    0.3617 C   0  0  0  0  0  0  0  0  0  0  0  0
   -5.5525   -0.9728    0.0800 C   0  0  0  0  0  0  0  0  0  0  0  0
    1.1411   -2.7124    0.0807 C   0  0  0  0  0  0  0  0  0  0  0  0
    0.9983   -1.4100    2.2576 C   0  0  0  0  0  0  0  0  0  0  0  0
    0.6646   -3.8877    2.2371 C   0  0  0  0  0  0  0  0  0  0  0  0
    2.9467   -2.9415    1.8534 C   0  0  0  0  0  0  0  0  0  0  0  0
   -2.4767    0.2313   -0.6830 C   0  0  0  0  0  0  0  0  0  0  0  0
   -7.5324   -0.5532    1.3695 C   0  0  0  0  0  0  0  0  0  0  0  0
   -0.7630   -1.1701   -0.3138 C   0  0  0  0  0  0  0  0  0  0  0  0
   -1.1461   -3.6219   -0.3544 C   0  0  0  0  0  0  0  0  0  0  0  0
   -0.4255    1.0483   -0.2807 C   0  0  0  0  0  0  0  0  0  0  0  0
    1.8189    2.2474    0.1533 C   0  0  0  0  0  0  0  0  0  0  0  0
    2.3316    3.3422    0.8492 C   0  0  0  0  0  0  0  0  0  0  0  0
    2.6734    1.2323   -0.2771 C   0  0  0  0  0  0  0  0  0  0  0  0
    4.0404    1.3119   -0.0114 C   0  0  0  0  0  0  0  0  0  0  0  0
    3.6987    3.4219    1.1146 C   0  0  0  0  0  0  0  0  0  0  0  0
    1.4397    4.4440    1.3217 C   0  0  0  0  0  0  0  0  0  0  0  0
    4.5531    2.4067    0.6845 C   0  0  0  0  0  0  0  0  0  0  0  0
    4.9318    0.2539   -0.4601 C   0  0  0  0  0  0  0  0  0  0  0  0
    4.6481   -2.5154   -2.6121 C   0  0  0  0  0  0  0  0  0  0  0  0
   -6.3773    1.5456   -1.8000 H   0  0  0  0  0  0  0  0  0  0  0  0
   -6.0863    3.0179   -0.9099 H   0  0  0  0  0  0  0  0  0  0  0  0
   -3.8829    2.4505   -0.3215 H   0  0  0  0  0  0  0  0  0  0  0  0
   -4.0478    2.2132   -2.0628 H   0  0  0  0  0  0  0  0  0  0  0  0
   -4.1920   -1.5913   -1.4685 H   0  0  0  0  0  0  0  0  0  0  0  0
   -5.3933   -0.4885   -2.0397 H   0  0  0  0  0  0  0  0  0  0  0  0
   -5.7379    1.4998    1.2090 H   0  0  0  0  0  0  0  0  0  0  0  0
   -7.3431    1.8583    0.5824 H   0  0  0  0  0  0  0  0  0  0  0  0
   -4.9156   -0.9215    0.9730 H   0  0  0  0  0  0  0  0  0  0  0  0
   -5.9015   -2.0103   -0.0035 H   0  0  0  0  0  0  0  0  0  0  0  0
    1.4506   -3.6710   -0.3582 H   0  0  0  0  0  0  0  0  0  0  0  0
    1.7708   -1.9714   -0.4277 H   0  0  0  0  0  0  0  0  0  0  0  0
    1.5224   -0.5473    1.8396 H   0  0  0  0  0  0  0  0  0  0  0  0
    1.2601   -1.4282    3.3239 H   0  0  0  0  0  0  0  0  0  0  0  0
   -0.0833   -1.2540    2.2307 H   0  0  0  0  0  0  0  0  0  0  0  0
    0.8681   -4.8373    1.7299 H   0  0  0  0  0  0  0  0  0  0  0  0
    0.9576   -4.0143    3.2866 H   0  0  0  0  0  0  0  0  0  0  0  0
   -0.4159   -3.7166    2.2403 H   0  0  0  0  0  0  0  0  0  0  0  0
    3.1695   -2.9714    2.9257 H   0  0  0  0  0  0  0  0  0  0  0  0
    3.5389   -2.1327    1.4113 H   0  0  0  0  0  0  0  0  0  0  0  0
    3.2897   -3.8844    1.4132 H   0  0  0  0  0  0  0  0  0  0  0  0
   -6.9859   -0.4552    2.3145 H   0  0  0  0  0  0  0  0  0  0  0  0
   -7.8328   -1.6003    1.2501 H   0  0  0  0  0  0  0  0  0  0  0  0
   -8.4593    0.0266    1.4438 H   0  0  0  0  0  0  0  0  0  0  0  0
   -1.9518   -3.6029    0.3878 H   0  0  0  0  0  0  0  0  0  0  0  0
   -1.5952   -3.6201   -1.3540 H   0  0  0  0  0  0  0  0  0  0  0  0
   -0.6181   -4.5752   -0.2466 H   0  0  0  0  0  0  0  0  0  0  0  0
   -0.0591    3.0327   -0.1327 H   0  0  0  0  0  0  0  0  0  0  0  0
    2.2854    0.3951   -0.8429 H   0  0  0  0  0  0  0  0  0  0  0  0
    4.1150    4.2687    1.6539 H   0  0  0  0  0  0  0  0  0  0  0  0
    1.0168    4.9859    0.4694 H   0  0  0  0  0  0  0  0  0  0  0  0
    0.6282    4.0471    1.9409 H   0  0  0  0  0  0  0  0  0  0  0  0
    1.9830    5.1710    1.9355 H   0  0  0  0  0  0  0  0  0  0  0  0
    5.6157    2.4897    0.8977 H   0  0  0  0  0  0  0  0  0  0  0  0
    3.7013   -0.3259   -2.1315 H   0  0  0  0  0  0  0  0  0  0  0  0
    3.9087   -2.9149   -1.9104 H   0  0  0  0  0  0  0  0  0  0  0  0
    4.1521   -2.1379   -3.5120 H   0  0  0  0  0  0  0  0  0  0  0  0
    5.3248   -3.3240   -2.9017 H   0  0  0  0  0  0  0  0  0  0  0  0
  1 33  2  0  0  0  0
  2 10  1  0  0  0  0
  2 34  1  0  0  0  0
  3 13  1  0  0  0  0
  3 14  1  0  0  0  0
  3 21  1  0  0  0  0
  4 15  1  0  0  0  0
  4 16  1  0  0  0  0
  4 22  1  0  0  0  0
  5 17  1  0  0  0  0
  5 23  1  0  0  0  0
  5 24  1  0  0  0  0
  6 21  2  0  0  0  0
  6 23  1  0  0  0  0
  7 21  1  0  0  0  0
  7 25  2  0  0  0  0
  8 23  2  0  0  0  0
  8 25  1  0  0  0  0
  9 25  1  0  0  0  0
  9 26  1  0  0  0  0
  9 62  1  0  0  0  0
 10 33  1  0  0  0  0
 10 69  1  0  0  0  0
 11 17  1  0  0  0  0
 11 18  1  0  0  0  0
 11 19  1  0  0  0  0
 11 20  1  0  0  0  0
 12 13  1  0  0  0  0
 12 15  1  0  0  0  0
 12 35  1  0  0  0  0
 12 36  1  0  0  0  0
 13 37  1  0  0  0  0
 13 38  1  0  0  0  0
 14 16  1  0  0  0  0
 14 39  1  0  0  0  0
 14 40  1  0  0  0  0
 15 41  1  0  0  0  0
 15 42  1  0  0  0  0
 16 43  1  0  0  0  0
 16 44  1  0  0  0  0
 17 45  1  0  0  0  0
 17 46  1  0  0  0  0
 18 47  1  0  0  0  0
 18 48  1  0  0  0  0
 18 49  1  0  0  0  0
 19 50  1  0  0  0  0
 19 51  1  0  0  0  0
 19 52  1  0  0  0  0
 20 53  1  0  0  0  0
 20 54  1  0  0  0  0
 20 55  1  0  0  0  0
 22 56  1  0  0  0  0
 22 57  1  0  0  0  0
 22 58  1  0  0  0  0
 24 59  1  0  0  0  0
 24 60  1  0  0  0  0
 24 61  1  0  0  0  0
 26 27  2  0  0  0  0
 26 28  1  0  0  0  0
 27 30  1  0  0  0  0
 27 31  1  0  0  0  0
 28 29  2  0  0  0  0
 28 63  1  0  0  0  0
 29 32  1  0  0  0  0
 29 33  1  0  0  0  0
 30 32  2  0  0  0  0
 30 64  1  0  0  0  0
 31 65  1  0  0  0  0
 31 66  1  0  0  0  0
 31 67  1  0  0  0  0
 32 68  1  0  0  0  0
 34 70  1  0  0  0  0
 34 71  1  0  0  0  0
 34 72  1  0  0  0  0
M  END
> <PUBCHEM_COMPOUND_CID>
11454205

> <PUBCHEM_CONFORMER_RMSD>
1

> <PUBCHEM_CONFORMER_DIVERSEORDER>
1
176
211
190
127
97
198
15
215
37
163
38
156
121
225
220
157
250
210
253
238
152
209
199
89
135
192
189
143
80
183
202
175
249
69
78
145
51
46
122
213
203
57
154
151
221
53
168
42
167
70
159
65
144
92
191
247
219
244
259
166
223
32
48
148
134
194
252
227
239
146
187
133
222
182
67
255
188
207
113
212
141
254
147
66
257
81
52
90
161
115
196
170
54
62
204
8
138
120
197
56
234
165
185
72
232
114
153
35
79
218
235
164
20
73
45
162
117
186
155
129
22
241
172
7
86
64
217
68
231
116
233
110
195
126
137
208
44
58
236
96
107
149
160
19
30
61
136
39
224
74
245
123
103
55
59
248
18
216
179
118
214
23
200
229
21
109
128
242
31
24
178
50
95
150
102
63
14
104
142
125
60
17
43
171
240
205
228
12
26
119
87
246
85
251
13
101
174
94
11
84
193
169
180
260
140
99
75
181
131
230
112
184
108
237
201
76
258
82
105
132
106
206
91
25
36
10
177
226
34
16
40
77
100
27
88
93
28
83
33
3
130
173
98
256
41
49
9
124
71
158
29
47
139
111
5
243
2
6
4

> <PUBCHEM_MMFF94_PARTIAL_CHARGES>
34
1 -0.57
10 -0.39
13 0.37
14 0.37
15 0.27
16 0.27
17 0.37
2 -0.32
21 0.72
22 0.27
23 0.72
24 0.37
25 0.72
26 0.1
27 -0.14
28 -0.15
29 0.09
3 -0.84
30 -0.15
31 0.14
32 -0.15
33 0.54
34 0.28
4 -0.81
5 -0.84
6 -0.62
62 0.4
63 0.15
64 0.15
68 0.15
69 0.37
7 -0.62
8 -0.62
9 -0.6

> <PUBCHEM_EFFECTIVE_ROTOR_COUNT>
10.4

> <PUBCHEM_PHARMACOPHORE_FEATURES>
11
1 1 acceptor
1 10 donor
1 4 cation
1 9 donor
4 11 18 19 20 hydrophobe
4 3 6 7 21 cation
4 5 6 8 23 cation
4 7 8 9 25 cation
6 26 27 28 29 30 32 rings
6 6 7 8 21 23 25 rings
7 3 4 12 13 14 15 16 rings

> <PUBCHEM_HEAVY_ATOM_COUNT>
34

> <PUBCHEM_ATOM_DEF_STEREO_COUNT>
0

> <PUBCHEM_ATOM_UDEF_STEREO_COUNT>
0

> <PUBCHEM_BOND_DEF_STEREO_COUNT>
0

> <PUBCHEM_BOND_UDEF_STEREO_COUNT>
0

> <PUBCHEM_ISOTOPIC_ATOM_COUNT>
0

> <PUBCHEM_COMPONENT_COUNT>
1

> <PUBCHEM_CACTVS_TAUTO_COUNT>
8

> <PUBCHEM_CONFORMER_ID>
00AEC6FD00000001

> <PUBCHEM_MMFF94_ENERGY>
128.1893

> <PUBCHEM_FEATURE_SELFOVERLAP>
55.953

> <PUBCHEM_SHAPE_FINGERPRINT>
10190108 129 18263100859333722105
1100329 8 18263342768871079706
11578080 2 16126668569764585346
13533116 47 17846502551709160804
13947947 73 16343147896420957188
14114211 68 17895773828577367334
146900 427 18408319978283992115
14725015 67 18339919308791694554
14790565 3 18337103579228803549
14931854 50 18264504888611630870
14955137 171 18122331398598231795
15351339 4 18337666395874812784
15927050 60 18337100293284027234
17913733 40 18410859897705117953
19319366 153 17968371265444431506
20465049 17 18408608041545134890
20642791 13 17761480792119080550
20832881 197 18341895182225697492
21279426 13 18341612581719759373
21781051 124 17531541948274282522
23558518 356 17903064878642233078
23559900 14 18060695087310504845
3178227 256 18335423486554012793
3298306 158 18261664926404878668
3411729 13 18335135393401437561
38695281 34 18131348626896787815
437795 51 18333742307758416931
513532 50 18130772457318728994
5265222 85 17971762322534244964
5776283 40 18263655133527292452
59755656 215 18259700091190418293
6679774 75 17822274800264601538
79837 15 17899689352433918979
9709674 26 17905603660087123904

> <PUBCHEM_SHAPE_MULTIPOLES>
648.12
15.01
5.1
1.85
21.24
0.02
0.06
-3.71
-2.51
-5.18
2.46
-1.79
1.55
2.15

> <PUBCHEM_SHAPE_SELFOVERLAP>
1343.258

> <PUBCHEM_SHAPE_VOLUME>
363.4

> <PUBCHEM_COORDINATE_TYPE>
2
5
10

$$$$
