10317442
  -OEChem-10052120443D

 43 46  0     0  0  0  0  0  0999 V2000
    1.7872    3.6734   -0.4880 O   0  0  0  0  0  0  0  0  0  0  0  0
   -5.5479   -2.5743   -0.5820 O   0  0  0  0  0  0  0  0  0  0  0  0
   -7.5230   -0.9137    0.4514 O   0  0  0  0  0  0  0  0  0  0  0  0
    7.2048   -2.3200    0.2701 O   0  5  0  0  0  0  0  0  0  0  0  0
    7.4602   -0.1635   -0.0517 O   0  0  0  0  0  0  0  0  0  0  0  0
    1.1214   -0.5736    0.1528 N   0  0  0  0  0  0  0  0  0  0  0  0
    2.9674    1.7970   -0.2369 N   0  0  0  0  0  0  0  0  0  0  0  0
    6.7280   -1.1697    0.1125 N   0  3  0  0  0  0  0  0  0  0  0  0
    0.1742    0.4465    0.0306 C   0  0  0  0  0  0  0  0  0  0  0  0
    0.4320    1.8027   -0.1717 C   0  0  0  0  0  0  0  0  0  0  0  0
    2.5150   -0.6215    0.1276 C   0  0  0  0  0  0  0  0  0  0  0  0
   -2.2493    0.9181    0.0311 C   0  0  0  0  0  0  0  0  0  0  0  0
    3.3603    0.4661   -0.0500 C   0  0  0  0  0  0  0  0  0  0  0  0
   -1.1810    0.0310    0.1284 C   0  0  0  0  0  0  0  0  0  0  0  0
   -0.6691    2.6925   -0.2688 C   0  0  0  0  0  0  0  0  0  0  0  0
    1.7616    2.4497   -0.3041 C   0  0  0  0  0  0  0  0  0  0  0  0
   -3.6102    0.4415    0.1382 C   0  0  0  0  0  0  0  0  0  0  0  0
   -1.9904    2.2588   -0.1692 C   0  0  0  0  0  0  0  0  0  0  0  0
    3.1052   -1.8985    0.3013 C   0  0  0  0  0  0  0  0  0  0  0  0
    4.7594    0.2618   -0.0520 C   0  0  0  0  0  0  0  0  0  0  0  0
    5.3187   -1.0019    0.1198 C   0  0  0  0  0  0  0  0  0  0  0  0
    4.4856   -2.0907    0.2980 C   0  0  0  0  0  0  0  0  0  0  0  0
   -3.9325   -0.8509   -0.2771 C   0  0  0  0  0  0  0  0  0  0  0  0
   -4.6024    1.2740    0.6572 C   0  0  0  0  0  0  0  0  0  0  0  0
   -5.2455   -1.3104   -0.1735 C   0  0  0  0  0  0  0  0  0  0  0  0
   -5.9153    0.8146    0.7609 C   0  0  0  0  0  0  0  0  0  0  0  0
   -6.2369   -0.4776    0.3455 C   0  0  0  0  0  0  0  0  0  0  0  0
   -4.4776   -3.3615   -1.1005 C   0  0  0  0  0  0  0  0  0  0  0  0
    0.7019   -1.4898    0.2906 H   0  0  0  0  0  0  0  0  0  0  0  0
   -1.3616   -1.0256    0.3267 H   0  0  0  0  0  0  0  0  0  0  0  0
   -0.5217    3.7587   -0.4329 H   0  0  0  0  0  0  0  0  0  0  0  0
   -2.7744    3.0017   -0.2835 H   0  0  0  0  0  0  0  0  0  0  0  0
    3.7493    2.4397   -0.3510 H   0  0  0  0  0  0  0  0  0  0  0  0
    2.4703   -2.7726    0.4437 H   0  0  0  0  0  0  0  0  0  0  0  0
    5.4076    1.1268   -0.1931 H   0  0  0  0  0  0  0  0  0  0  0  0
   -3.1541   -1.4617   -0.7177 H   0  0  0  0  0  0  0  0  0  0  0  0
    4.8654   -3.0990    0.4370 H   0  0  0  0  0  0  0  0  0  0  0  0
   -4.3931    2.2766    1.0200 H   0  0  0  0  0  0  0  0  0  0  0  0
   -6.6769    1.4713    1.1728 H   0  0  0  0  0  0  0  0  0  0  0  0
   -8.0683   -0.2032    0.8309 H   0  0  0  0  0  0  0  0  0  0  0  0
   -3.7048   -3.5433   -0.3456 H   0  0  0  0  0  0  0  0  0  0  0  0
   -4.0713   -2.9334   -2.0233 H   0  0  0  0  0  0  0  0  0  0  0  0
   -4.8965   -4.3383   -1.3642 H   0  0  0  0  0  0  0  0  0  0  0  0
  1 16  2  0  0  0  0
  2 25  1  0  0  0  0
  2 28  1  0  0  0  0
  3 27  1  0  0  0  0
  3 40  1  0  0  0  0
  4  8  1  0  0  0  0
  5  8  2  0  0  0  0
  6  9  1  0  0  0  0
  6 11  1  0  0  0  0
  6 29  1  0  0  0  0
  7 13  1  0  0  0  0
  7 16  1  0  0  0  0
  7 33  1  0  0  0  0
  8 21  1  0  0  0  0
  9 10  2  0  0  0  0
  9 14  1  0  0  0  0
 10 15  1  0  0  0  0
 10 16  1  0  0  0  0
 11 13  2  0  0  0  0
 11 19  1  0  0  0  0
 12 14  2  0  0  0  0
 12 17  1  0  0  0  0
 12 18  1  0  0  0  0
 13 20  1  0  0  0  0
 14 30  1  0  0  0  0
 15 18  2  0  0  0  0
 15 31  1  0  0  0  0
 17 23  2  0  0  0  0
 17 24  1  0  0  0  0
 18 32  1  0  0  0  0
 19 22  2  0  0  0  0
 19 34  1  0  0  0  0
 20 21  2  0  0  0  0
 20 35  1  0  0  0  0
 21 22  1  0  0  0  0
 22 37  1  0  0  0  0
 23 25  1  0  0  0  0
 23 36  1  0  0  0  0
 24 26  2  0  0  0  0
 24 38  1  0  0  0  0
 25 27  2  0  0  0  0
 26 27  1  0  0  0  0
 26 39  1  0  0  0  0
 28 41  1  0  0  0  0
 28 42  1  0  0  0  0
 28 43  1  0  0  0  0
M  CHG  2   4  -1   8   1
M  END
> <PUBCHEM_COMPOUND_CID>
10317442

> <PUBCHEM_CONFORMER_RMSD>
0.8

> <PUBCHEM_CONFORMER_DIVERSEORDER>
1
4
2
3

> <PUBCHEM_MMFF94_PARTIAL_CHARGES>
38
1 -0.57
10 0.09
11 0.1
13 0.12
14 -0.15
15 -0.15
16 0.54
18 -0.15
19 -0.15
2 -0.36
20 -0.15
21 0.13
22 -0.15
23 -0.15
24 -0.15
25 0.08
26 -0.15
27 0.08
28 0.28
29 0.4
3 -0.53
30 0.15
31 0.15
32 0.15
33 0.37
34 0.15
35 0.15
36 0.15
37 0.15
38 0.15
39 0.15
4 -0.52
40 0.45
5 -0.52
6 -0.6
7 -0.55
8 0.91
9 0.1

> <PUBCHEM_EFFECTIVE_ROTOR_COUNT>
3.4

> <PUBCHEM_PHARMACOPHORE_FEATURES>
13
1 1 acceptor
1 2 acceptor
1 3 donor
1 4 acceptor
1 4 anion
1 5 acceptor
1 6 cation
1 6 donor
1 7 donor
6 11 13 19 20 21 22 rings
6 17 23 24 25 26 27 rings
6 9 10 12 14 15 18 rings
7 6 7 9 10 11 13 16 rings

> <PUBCHEM_HEAVY_ATOM_COUNT>
28

> <PUBCHEM_ATOM_DEF_STEREO_COUNT>
0

> <PUBCHEM_ATOM_UDEF_STEREO_COUNT>
0

> <PUBCHEM_BOND_DEF_STEREO_COUNT>
0

> <PUBCHEM_BOND_UDEF_STEREO_COUNT>
0

> <PUBCHEM_ISOTOPIC_ATOM_COUNT>
0

> <PUBCHEM_COMPONENT_COUNT>
1

> <PUBCHEM_CACTVS_TAUTO_COUNT>
27

> <PUBCHEM_CONFORMER_ID>
009D6E8200000001

> <PUBCHEM_MMFF94_ENERGY>
130.367

> <PUBCHEM_FEATURE_SELFOVERLAP>
66.065

> <PUBCHEM_SHAPE_FINGERPRINT>
10299344 5 18411141328920012211
10411042 1 18408323263580974148
10595046 47 18268713999279248253
10622 236 17770765012934528231
11456790 92 17846232072818854715
11524674 6 16845569812343610791
11578080 2 17058347406083594506
117089 54 18119535585933407411
12107183 9 18340778023041714729
12166972 35 17748831800221768132
12236239 1 18273217508290195601
12422481 6 17418376891438703799
12516196 113 18409449159514037824
12596602 18 17775284980269955856
12623949 98 17773605914778293742
13248334 5 18192433189627536004
13533116 47 18340488970998895153
13685833 64 18335141981480518496
13690498 29 18040991809250709853
13862211 1 18335422340187608312
14068700 675 18412827979963035032
14117953 113 18342738486506690167
14556957 393 16298965146876978966
14849402 71 18270402810395714400
15250474 111 18198900491204175567
15361156 5 18113627798023582893
15728490 51 18341891914161396894
15927050 60 17908987956867226436
16087824 20 18191867817755716989
16110190 28 18343865524247634295
17492 89 18122624127127801003
17780758 139 18060138717948490561
17857418 61 18411699911381972535
18608769 82 18341608209991106226
18681886 176 18341325673577354906
20028762 73 18341892995976918430
21049683 271 18333739035421190164
21267235 1 18410297974079990276
21774942 28 11747205849833239670
22950370 63 18410856559988085609
23522609 53 18120970310572543884
23559900 14 18263360442260497905
249057 3 18410011010346442229
25147074 1 18337690649429168853
3004659 81 18040714774863844993
335352 9 18410008811507725365
397830 11 16772936147005671170
4015057 19 18187931750193823825
4058900 60 11239997884470670908
4073 2 18115030839089767675
4093350 32 16702022011671640848
4461854 278 18131079263253929575
46194498 28 17240483658154134220
463206 1 18336267950281177379
465052 167 18413112770421856852
5104073 3 18059020609175685217
559249 180 18411138018423133169
6058803 2 18054520368519129853
6691757 9 17489875917592566651
67856867 119 18341613775915787553
7970288 3 18410289177581429342
999808 66 17968109637922701963

> <PUBCHEM_SHAPE_MULTIPOLES>
531.94
18.65
3.35
0.73
4.51
0.33
-0.02
-13.54
1.96
-0.36
-0.82
-0.5
-0.11
-1.62

> <PUBCHEM_SHAPE_SELFOVERLAP>
1188.173

> <PUBCHEM_SHAPE_VOLUME>
280.1

> <PUBCHEM_COORDINATE_TYPE>
2
5
10

$$$$
