24905303
  -OEChem-10052115143D

 44 47  0     0  0  0  0  0  0999 V2000
   -6.2344    2.1233    0.0579 Cl  0  0  0  0  0  0  0  0  0  0  0  0
   -4.0752    2.2554   -2.0299 O   0  0  0  0  0  0  0  0  0  0  0  0
    5.7107    1.8854   -0.9891 N   0  0  0  0  0  0  0  0  0  0  0  0
    1.2675   -0.3611    0.9320 N   0  0  0  0  0  0  0  0  0  0  0  0
    0.2155    0.4767    0.9891 N   0  0  0  0  0  0  0  0  0  0  0  0
    1.8059   -2.6103    0.2155 N   0  0  0  0  0  0  0  0  0  0  0  0
   -0.1440   -3.7571   -0.6974 N   0  0  0  0  0  0  0  0  0  0  0  0
   -2.2942   -2.7308   -0.8407 N   0  0  0  0  0  0  0  0  0  0  0  0
    3.2931    1.0337    0.4429 C   0  0  0  0  0  0  0  0  0  0  0  0
    4.4111    1.8351    1.1216 C   0  0  0  0  0  0  0  0  0  0  0  0
    3.8590    0.2537   -0.7507 C   0  0  0  0  0  0  0  0  0  0  0  0
    2.6091    0.0975    1.4351 C   0  0  0  0  0  0  0  0  0  0  0  0
    5.1705    2.6910    0.1083 C   0  0  0  0  0  0  0  0  0  0  0  0
    4.6410    1.1718   -1.6900 C   0  0  0  0  0  0  0  0  0  0  0  0
    0.9663   -1.5788    0.3982 C   0  0  0  0  0  0  0  0  0  0  0  0
   -0.3805   -1.5352    0.0832 C   0  0  0  0  0  0  0  0  0  0  0  0
   -0.7850   -0.2442    0.4709 C   0  0  0  0  0  0  0  0  0  0  0  0
   -2.1019    0.3314    0.3641 C   0  0  0  0  0  0  0  0  0  0  0  0
   -0.9345   -2.6778   -0.4845 C   0  0  0  0  0  0  0  0  0  0  0  0
    1.1584   -3.6578   -0.3392 C   0  0  0  0  0  0  0  0  0  0  0  0
   -2.4687    1.0256   -0.7888 C   0  0  0  0  0  0  0  0  0  0  0  0
   -3.0099    0.1942    1.4141 C   0  0  0  0  0  0  0  0  0  0  0  0
   -3.7434    1.5824   -0.8918 C   0  0  0  0  0  0  0  0  0  0  0  0
   -4.2846    0.7509    1.3112 C   0  0  0  0  0  0  0  0  0  0  0  0
   -4.6514    1.4450    0.1581 C   0  0  0  0  0  0  0  0  0  0  0  0
    2.5570    1.7538    0.0585 H   0  0  0  0  0  0  0  0  0  0  0  0
    5.1112    1.1510    1.6191 H   0  0  0  0  0  0  0  0  0  0  0  0
    3.9895    2.4817    1.9004 H   0  0  0  0  0  0  0  0  0  0  0  0
    3.0501   -0.2222   -1.3163 H   0  0  0  0  0  0  0  0  0  0  0  0
    4.5186   -0.5496   -0.3971 H   0  0  0  0  0  0  0  0  0  0  0  0
    2.3900    0.6002    2.3847 H   0  0  0  0  0  0  0  0  0  0  0  0
    3.1954   -0.8023    1.6485 H   0  0  0  0  0  0  0  0  0  0  0  0
    4.5166    3.4771   -0.2889 H   0  0  0  0  0  0  0  0  0  0  0  0
    6.0004    3.1938    0.6167 H   0  0  0  0  0  0  0  0  0  0  0  0
    5.0858    0.5693   -2.4895 H   0  0  0  0  0  0  0  0  0  0  0  0
    3.9629    1.8882   -2.1701 H   0  0  0  0  0  0  0  0  0  0  0  0
    6.1952    2.4953   -1.6470 H   0  0  0  0  0  0  0  0  0  0  0  0
    1.7627   -4.5395   -0.5236 H   0  0  0  0  0  0  0  0  0  0  0  0
   -1.7612    1.1328   -1.6087 H   0  0  0  0  0  0  0  0  0  0  0  0
   -2.7396   -0.3444    2.3193 H   0  0  0  0  0  0  0  0  0  0  0  0
   -2.9076   -1.9428   -0.6938 H   0  0  0  0  0  0  0  0  0  0  0  0
   -2.6565   -3.5812   -1.2506 H   0  0  0  0  0  0  0  0  0  0  0  0
   -4.9809    0.6351    2.1379 H   0  0  0  0  0  0  0  0  0  0  0  0
   -3.3183    2.2439   -2.6405 H   0  0  0  0  0  0  0  0  0  0  0  0
  1 25  1  0  0  0  0
  2 23  1  0  0  0  0
  2 44  1  0  0  0  0
  3 13  1  0  0  0  0
  3 14  1  0  0  0  0
  3 37  1  0  0  0  0
  4  5  1  0  0  0  0
  4 12  1  0  0  0  0
  4 15  1  0  0  0  0
  5 17  2  0  0  0  0
  6 15  2  0  0  0  0
  6 20  1  0  0  0  0
  7 19  1  0  0  0  0
  7 20  2  0  0  0  0
  8 19  1  0  0  0  0
  8 41  1  0  0  0  0
  8 42  1  0  0  0  0
  9 10  1  0  0  0  0
  9 11  1  0  0  0  0
  9 12  1  0  0  0  0
  9 26  1  0  0  0  0
 10 13  1  0  0  0  0
 10 27  1  0  0  0  0
 10 28  1  0  0  0  0
 11 14  1  0  0  0  0
 11 29  1  0  0  0  0
 11 30  1  0  0  0  0
 12 31  1  0  0  0  0
 12 32  1  0  0  0  0
 13 33  1  0  0  0  0
 13 34  1  0  0  0  0
 14 35  1  0  0  0  0
 14 36  1  0  0  0  0
 15 16  1  0  0  0  0
 16 17  1  0  0  0  0
 16 19  2  0  0  0  0
 17 18  1  0  0  0  0
 18 21  2  0  0  0  0
 18 22  1  0  0  0  0
 20 38  1  0  0  0  0
 21 23  1  0  0  0  0
 21 39  1  0  0  0  0
 22 24  2  0  0  0  0
 22 40  1  0  0  0  0
 23 25  2  0  0  0  0
 24 25  1  0  0  0  0
 24 43  1  0  0  0  0
M  END
> <PUBCHEM_COMPOUND_CID>
24905303

> <PUBCHEM_CONFORMER_RMSD>
0.8

> <PUBCHEM_CONFORMER_DIVERSEORDER>
1
12
23
7
16
20
17
21
22
14
19
13
25
15
10
24
18
4
11
5
2
9
6
3
8

> <PUBCHEM_MMFF94_PARTIAL_CHARGES>
29
1 -0.18
12 0.26
13 0.27
14 0.27
15 0.11
17 0.23
18 0.05
19 0.41
2 -0.53
20 0.47
21 -0.15
22 -0.15
23 0.08
24 -0.15
25 0.18
3 -0.9
37 0.36
38 0.15
39 0.15
4 0.31
40 0.15
41 0.4
42 0.4
43 0.15
44 0.45
5 -0.71
6 -0.57
7 -0.62
8 -0.9

> <PUBCHEM_EFFECTIVE_ROTOR_COUNT>
4.2

> <PUBCHEM_PHARMACOPHORE_FEATURES>
12
1 2 donor
1 3 cation
1 3 donor
1 5 acceptor
1 8 cation
1 8 donor
3 4 6 15 cation
3 6 7 20 cation
5 4 5 15 16 17 rings
6 18 21 22 23 24 25 rings
6 3 9 10 11 13 14 rings
6 6 7 15 16 19 20 rings

> <PUBCHEM_HEAVY_ATOM_COUNT>
25

> <PUBCHEM_ATOM_DEF_STEREO_COUNT>
0

> <PUBCHEM_ATOM_UDEF_STEREO_COUNT>
0

> <PUBCHEM_BOND_DEF_STEREO_COUNT>
0

> <PUBCHEM_BOND_UDEF_STEREO_COUNT>
0

> <PUBCHEM_ISOTOPIC_ATOM_COUNT>
0

> <PUBCHEM_COMPONENT_COUNT>
1

> <PUBCHEM_CACTVS_TAUTO_COUNT>
15

> <PUBCHEM_CONFORMER_ID>
017C065700000001

> <PUBCHEM_MMFF94_ENERGY>
48.7138

> <PUBCHEM_FEATURE_SELFOVERLAP>
61.177

> <PUBCHEM_SHAPE_FINGERPRINT>
10165383 225 18412554209967573777
10498660 4 18412824715898549312
105312 117 18411419548527693028
11796584 16 13038898902592489709
12390115 104 18270972339742192931
12403259 118 17749674098563086192
12422481 6 17603578600151681004
12730499 353 18339931424435462075
12788726 201 17761214710331759830
12895836 83 18336834203296720232
12895837 130 17826528944287063340
12969540 114 18412823598906404232
13540713 5 18267282344355253402
13583140 156 17097472220828225451
13911987 19 18412825798256954345
14341114 328 16153431666232456616
1454969 45 18337674243492257611
14747281 78 17834692500079221429
15342168 16 18411696552680857657
15961568 22 17676777482975290637
16752209 62 18198049490420676346
16988056 13 17327719713987483708
17134986 127 18411416198690617762
17980427 23 17531251694763869653
1813 80 17054433934192937623
18222031 100 11097859562150204040
18785283 64 18193270797716023235
193927 3 10375877406792538408
204376 136 18412822482446535443
20871999 31 18128257989957779594
21033648 29 18340484577484910392
23227448 37 18267305524409378652
23557571 272 17842564217428532392
23559900 14 17097228138032024467
283562 15 18124586741892103731
350125 39 18196934585698098793
3729539 64 18053691113060047230
38570 142 17416713279133480961
45377200 153 15769194169323585173
458136 41 18342743962046848539
469060 322 18118130397060899051
5252454 2 18411978070116637600
53917941 68 18269832172117503450
57527293 21 18114468877458937539
59755656 520 17560540476841006467
6034566 193 18336546113848574589
6327066 14 18408600396208566172
633830 44 17775292642127952505
7808743 9 18264487459217656872
7970288 3 9079118864481795984
8863177 126 11239127080078526549
9862522 239 18113609114440988013

> <PUBCHEM_SHAPE_MULTIPOLES>
480.6
11.92
3.93
1.41
0.11
4.1
0.18
-14.86
1.84
0.99
1.16
0.01
-0.59
0.21

> <PUBCHEM_SHAPE_SELFOVERLAP>
1040.75

> <PUBCHEM_SHAPE_VOLUME>
263.4

> <PUBCHEM_COORDINATE_TYPE>
2
5
10

$$$$
