49830944
  -OEChem-10052120443D

 33 35  0     0  0  0  0  0  0999 V2000
    4.9680   -0.7396    0.0666 O   0  0  0  0  0  0  0  0  0  0  0  0
   -3.5978    0.7910    0.1643 O   0  0  0  0  0  0  0  0  0  0  0  0
   -4.2132   -1.2786   -0.6337 O   0  0  0  0  0  0  0  0  0  0  0  0
    2.1150   -1.5379    0.2423 N   0  0  0  0  0  0  0  0  0  0  0  0
    4.2577    1.4498   -0.0400 N   0  0  0  0  0  0  0  0  0  0  0  0
    1.6049    0.5815   -0.1861 C   0  0  0  0  0  0  0  0  0  0  0  0
    1.8593    2.0180   -0.4793 C   0  0  0  0  0  0  0  0  0  0  0  0
    0.3907   -0.1522   -0.1023 C   0  0  0  0  0  0  0  0  0  0  0  0
    2.6492   -0.2949    0.0383 C   0  0  0  0  0  0  0  0  0  0  0  0
    0.7395   -1.4788    0.1699 C   0  0  0  0  0  0  0  0  0  0  0  0
    3.1948    2.4413    0.1462 C   0  0  0  0  0  0  0  0  0  0  0  0
    4.0464    0.0721    0.0314 C   0  0  0  0  0  0  0  0  0  0  0  0
   -0.9735    0.1756   -0.2356 C   0  0  0  0  0  0  0  0  0  0  0  0
   -0.2133   -2.4930    0.3193 C   0  0  0  0  0  0  0  0  0  0  0  0
   -1.9361   -0.8294   -0.0878 C   0  0  0  0  0  0  0  0  0  0  0  0
   -1.5597   -2.1425    0.1858 C   0  0  0  0  0  0  0  0  0  0  0  0
   -3.3461   -0.4969   -0.2221 C   0  0  0  0  0  0  0  0  0  0  0  0
   -4.9550    1.2383    0.0779 C   0  0  0  0  0  0  0  0  0  0  0  0
   -5.0310    2.6763    0.5450 C   0  0  0  0  0  0  0  0  0  0  0  0
    1.0512    2.6534   -0.1022 H   0  0  0  0  0  0  0  0  0  0  0  0
    1.9065    2.1480   -1.5674 H   0  0  0  0  0  0  0  0  0  0  0  0
    3.0799    2.5697    1.2290 H   0  0  0  0  0  0  0  0  0  0  0  0
    3.5388    3.3912   -0.2745 H   0  0  0  0  0  0  0  0  0  0  0  0
    2.6475   -2.3772    0.4258 H   0  0  0  0  0  0  0  0  0  0  0  0
    5.2173    1.7812   -0.0579 H   0  0  0  0  0  0  0  0  0  0  0  0
   -1.2502    1.2014   -0.4621 H   0  0  0  0  0  0  0  0  0  0  0  0
    0.0785   -3.5163    0.5308 H   0  0  0  0  0  0  0  0  0  0  0  0
   -2.3111   -2.9205    0.3027 H   0  0  0  0  0  0  0  0  0  0  0  0
   -5.5869    0.6074    0.7127 H   0  0  0  0  0  0  0  0  0  0  0  0
   -5.2960    1.1664   -0.9607 H   0  0  0  0  0  0  0  0  0  0  0  0
   -6.0568    3.0513    0.4916 H   0  0  0  0  0  0  0  0  0  0  0  0
   -4.3881    3.3153   -0.0694 H   0  0  0  0  0  0  0  0  0  0  0  0
   -4.6748    2.7655    1.5766 H   0  0  0  0  0  0  0  0  0  0  0  0
  1 12  2  0  0  0  0
  2 17  1  0  0  0  0
  2 18  1  0  0  0  0
  3 17  2  0  0  0  0
  4  9  1  0  0  0  0
  4 10  1  0  0  0  0
  4 24  1  0  0  0  0
  5 11  1  0  0  0  0
  5 12  1  0  0  0  0
  5 25  1  0  0  0  0
  6  7  1  0  0  0  0
  6  8  1  0  0  0  0
  6  9  2  0  0  0  0
  7 11  1  0  0  0  0
  7 20  1  0  0  0  0
  7 21  1  0  0  0  0
  8 10  2  0  0  0  0
  8 13  1  0  0  0  0
  9 12  1  0  0  0  0
 10 14  1  0  0  0  0
 11 22  1  0  0  0  0
 11 23  1  0  0  0  0
 13 15  2  0  0  0  0
 13 26  1  0  0  0  0
 14 16  2  0  0  0  0
 14 27  1  0  0  0  0
 15 16  1  0  0  0  0
 15 17  1  0  0  0  0
 16 28  1  0  0  0  0
 18 19  1  0  0  0  0
 18 29  1  0  0  0  0
 18 30  1  0  0  0  0
 19 31  1  0  0  0  0
 19 32  1  0  0  0  0
 19 33  1  0  0  0  0
M  END
> <PUBCHEM_COMPOUND_CID>
49830944

> <PUBCHEM_CONFORMER_RMSD>
0.6

> <PUBCHEM_CONFORMER_DIVERSEORDER>
1
7
12
8
6
9
3
10
11
4
2
5

> <PUBCHEM_MMFF94_PARTIAL_CHARGES>
22
1 -0.57
10 -0.15
11 0.3
12 0.71
13 -0.15
14 -0.15
15 0.09
16 -0.15
17 0.63
18 0.28
2 -0.43
24 0.27
25 0.37
26 0.15
27 0.15
28 0.15
3 -0.57
4 0.03
5 -0.73
6 -0.18
7 0.18
9 -0.24

> <PUBCHEM_EFFECTIVE_ROTOR_COUNT>
3.6

> <PUBCHEM_PHARMACOPHORE_FEATURES>
8
1 1 acceptor
1 3 acceptor
1 4 cation
1 4 donor
1 5 donor
5 4 6 8 9 10 rings
6 5 6 7 9 11 12 rings
6 8 10 13 14 15 16 rings

> <PUBCHEM_HEAVY_ATOM_COUNT>
19

> <PUBCHEM_ATOM_DEF_STEREO_COUNT>
0

> <PUBCHEM_ATOM_UDEF_STEREO_COUNT>
0

> <PUBCHEM_BOND_DEF_STEREO_COUNT>
0

> <PUBCHEM_BOND_UDEF_STEREO_COUNT>
0

> <PUBCHEM_ISOTOPIC_ATOM_COUNT>
0

> <PUBCHEM_COMPONENT_COUNT>
1

> <PUBCHEM_CACTVS_TAUTO_COUNT>
35

> <PUBCHEM_CONFORMER_ID>
02F85C2000000001

> <PUBCHEM_MMFF94_ENERGY>
36.1879

> <PUBCHEM_FEATURE_SELFOVERLAP>
40.778

> <PUBCHEM_SHAPE_FINGERPRINT>
10382601 240 17968377819305354163
10411042 1 17329146867480732203
10608611 8 18193837274248459936
10967382 1 18408320008274779966
11471102 20 18336823191000099222
12173636 292 18267864071978961359
12390115 104 18341068366724522825
12403260 363 18337945809267117071
12644460 14 17822566110325704338
13140716 1 18262513814333584658
14790565 3 18335710437640646260
15196674 1 18410292540276571276
15442244 35 18409164446189930138
15475509 35 16155122573545190595
15475509 8 18055089678817463350
15536298 74 18339922740027439478
1601671 61 18336547118897081076
16945 1 18261658351321956726
17834072 32 18411984629085696753
18186145 218 18408316687842930839
19784866 9 18410573938107251913
21267235 1 18337679710052182647
21304253 335 18335424594945660580
21421861 104 17823407194277753770
21524375 3 18334855056290880167
23402539 116 18272364269791454892
23402655 69 18343299270994610612
23558518 356 18043535133884990698
23559900 14 18343863321277525394
25 1 18408601452733253271
335352 9 18409730630280248910
350125 39 18335422314286507500
4214541 1 18411136956869826877
474 4 18408604730341627649
495365 180 17560514131706544480
5104073 3 18334290998050826224
543358 83 18410294688155715264
59124914 9 18338237050989110937
6328613 192 18261962946461322900
633830 44 18412542110965404582
69090 78 18337948012411584902
7832392 63 18337106873479126166
9709674 26 18340493364745216174

> <PUBCHEM_SHAPE_MULTIPOLES>
363.44
9.95
2.77
0.66
4.79
0.6
0
5.96
-0.44
0.98
-0.31
0.15
0.03
-0.67

> <PUBCHEM_SHAPE_SELFOVERLAP>
797.127

> <PUBCHEM_SHAPE_VOLUME>
196.9

> <PUBCHEM_COORDINATE_TYPE>
2
5
10

$$$$
