49830367
  -OEChem-10052115193D

 62 66  0     1  0  0  0  0  0999 V2000
   -3.4445   -0.2596    1.7556 S   0  0  0  0  0  0  0  0  0  0  0  0
   -8.4851   -3.1313   -0.3601 O   0  0  0  0  0  0  0  0  0  0  0  0
    5.1096   -1.2582   -0.3801 O   0  0  0  0  0  0  0  0  0  0  0  0
   -7.8721   -0.1177   -0.2200 N   0  0  0  0  0  0  0  0  0  0  0  0
   -7.8306    0.5820    0.9267 N   0  0  0  0  0  0  0  0  0  0  0  0
   -2.9126    1.8800   -2.1434 N   0  0  0  0  0  0  0  0  0  0  0  0
   -0.5736    1.8175   -1.8086 N   0  0  0  0  0  0  0  0  0  0  0  0
    4.4748    0.7124    0.7172 N   0  0  0  0  0  0  0  0  0  0  0  0
    6.7143    0.2741    0.3586 N   0  0  0  0  0  0  0  0  0  0  0  0
   -2.0791    0.8403   -0.1444 C   0  0  0  0  0  0  0  0  0  0  0  0
   -3.3935    0.5631    0.2418 C   0  0  0  0  0  0  0  0  0  0  0  0
   -4.4805    0.9393   -0.5563 C   0  0  0  0  0  0  0  0  0  0  0  0
   -1.1403    0.3614    0.8295 C   0  0  0  0  0  0  0  0  0  0  0  0
   -5.8327    0.6633   -0.1776 C   0  0  0  0  0  0  0  0  0  0  0  0
   -9.0876   -0.7956   -0.6022 C   0  0  0  0  0  0  0  0  0  0  0  0
   -6.7008   -0.1007   -0.9188 C   0  0  0  0  0  0  0  0  0  0  0  0
    0.2991    0.4508    0.8012 C   0  0  0  0  0  0  0  0  0  0  0  0
   -1.8741    1.5098   -1.3613 C   0  0  0  0  0  0  0  0  0  0  0  0
   -9.2985   -2.0941    0.1853 C   0  0  1  0  0  0  0  0  0  0  0  0
   -1.7461   -0.2504    1.9012 C   0  0  0  0  0  0  0  0  0  0  0  0
   -4.1638    1.5936   -1.7338 C   0  0  0  0  0  0  0  0  0  0  0  0
   -6.5823    1.0568    0.9470 C   0  0  0  0  0  0  0  0  0  0  0  0
    1.0498   -0.5669    0.2127 C   0  0  0  0  0  0  0  0  0  0  0  0
    0.9402    1.5555    1.3617 C   0  0  0  0  0  0  0  0  0  0  0  0
  -10.7526   -2.5448    0.1296 C   0  0  0  0  0  0  0  0  0  0  0  0
    3.0828    0.6246    0.7457 C   0  0  0  0  0  0  0  0  0  0  0  0
    2.4417   -0.4802    0.1850 C   0  0  0  0  0  0  0  0  0  0  0  0
    2.3321    1.6425    1.3341 C   0  0  0  0  0  0  0  0  0  0  0  0
    5.4073   -0.2039    0.1721 C   0  0  0  0  0  0  0  0  0  0  0  0
    7.9290   -0.3348   -0.0360 C   0  0  0  0  0  0  0  0  0  0  0  0
    9.1451    0.2907    0.2385 C   0  0  0  0  0  0  0  0  0  0  0  0
   10.3422   -0.3116   -0.1488 C   0  0  0  0  0  0  0  0  0  0  0  0
    7.9099   -1.5626   -0.6977 C   0  0  0  0  0  0  0  0  0  0  0  0
   10.3231   -1.5393   -0.8107 C   0  0  0  0  0  0  0  0  0  0  0  0
    9.1070   -2.1648   -1.0851 C   0  0  0  0  0  0  0  0  0  0  0  0
   11.6425    0.3588    0.1413 C   0  0  0  0  0  0  0  0  0  0  0  0
   -9.9056   -0.0873   -0.4244 H   0  0  0  0  0  0  0  0  0  0  0  0
   -9.0353   -0.9934   -1.6791 H   0  0  0  0  0  0  0  0  0  0  0  0
   -6.5891   -0.6237   -1.8596 H   0  0  0  0  0  0  0  0  0  0  0  0
   -9.0073   -1.9626    1.2340 H   0  0  0  0  0  0  0  0  0  0  0  0
   -1.2801   -0.6968    2.7698 H   0  0  0  0  0  0  0  0  0  0  0  0
   -4.9396    1.9279   -2.4180 H   0  0  0  0  0  0  0  0  0  0  0  0
   -6.2779    1.6729    1.7815 H   0  0  0  0  0  0  0  0  0  0  0  0
    0.5642   -1.4337   -0.2296 H   0  0  0  0  0  0  0  0  0  0  0  0
    0.3697    2.3582    1.8231 H   0  0  0  0  0  0  0  0  0  0  0  0
  -11.0615   -2.7396   -0.9034 H   0  0  0  0  0  0  0  0  0  0  0  0
  -10.8864   -3.4823    0.6802 H   0  0  0  0  0  0  0  0  0  0  0  0
  -11.4196   -1.7918    0.5601 H   0  0  0  0  0  0  0  0  0  0  0  0
    2.9503   -1.3076   -0.2885 H   0  0  0  0  0  0  0  0  0  0  0  0
    2.8185    2.5093    1.7742 H   0  0  0  0  0  0  0  0  0  0  0  0
   -0.4812    2.3007   -2.6929 H   0  0  0  0  0  0  0  0  0  0  0  0
    0.2583    1.5817   -1.2954 H   0  0  0  0  0  0  0  0  0  0  0  0
   -8.6284   -3.9300    0.1758 H   0  0  0  0  0  0  0  0  0  0  0  0
    4.8689    1.5465    1.1452 H   0  0  0  0  0  0  0  0  0  0  0  0
    6.8099    1.1670    0.8357 H   0  0  0  0  0  0  0  0  0  0  0  0
    9.1611    1.2491    0.7527 H   0  0  0  0  0  0  0  0  0  0  0  0
    7.0121   -2.1098   -0.9466 H   0  0  0  0  0  0  0  0  0  0  0  0
   11.2487   -2.0176   -1.1198 H   0  0  0  0  0  0  0  0  0  0  0  0
    9.0934   -3.1206   -1.6011 H   0  0  0  0  0  0  0  0  0  0  0  0
   12.4488   -0.3734    0.2575 H   0  0  0  0  0  0  0  0  0  0  0  0
   11.5918    0.9296    1.0748 H   0  0  0  0  0  0  0  0  0  0  0  0
   11.9038    1.0406   -0.6741 H   0  0  0  0  0  0  0  0  0  0  0  0
  1 11  1  0  0  0  0
  1 20  1  0  0  0  0
  2 19  1  0  0  0  0
  2 53  1  0  0  0  0
  3 29  2  0  0  0  0
  4  5  1  0  0  0  0
  4 15  1  0  0  0  0
  4 16  1  0  0  0  0
  5 22  2  0  0  0  0
  6 18  2  0  0  0  0
  6 21  1  0  0  0  0
  7 18  1  0  0  0  0
  7 51  1  0  0  0  0
  7 52  1  0  0  0  0
  8 26  1  0  0  0  0
  8 29  1  0  0  0  0
  8 54  1  0  0  0  0
  9 29  1  0  0  0  0
  9 30  1  0  0  0  0
  9 55  1  0  0  0  0
 10 11  2  0  0  0  0
 10 13  1  0  0  0  0
 10 18  1  0  0  0  0
 11 12  1  0  0  0  0
 12 14  1  0  0  0  0
 12 21  2  0  0  0  0
 13 17  1  0  0  0  0
 13 20  2  0  0  0  0
 14 16  2  0  0  0  0
 14 22  1  0  0  0  0
 15 19  1  0  0  0  0
 15 37  1  0  0  0  0
 15 38  1  0  0  0  0
 16 39  1  0  0  0  0
 17 23  2  0  0  0  0
 17 24  1  0  0  0  0
 19 25  1  0  0  0  0
 19 40  1  0  0  0  0
 20 41  1  0  0  0  0
 21 42  1  0  0  0  0
 22 43  1  0  0  0  0
 23 27  1  0  0  0  0
 23 44  1  0  0  0  0
 24 28  2  0  0  0  0
 24 45  1  0  0  0  0
 25 46  1  0  0  0  0
 25 47  1  0  0  0  0
 25 48  1  0  0  0  0
 26 27  2  0  0  0  0
 26 28  1  0  0  0  0
 27 49  1  0  0  0  0
 28 50  1  0  0  0  0
 30 31  1  0  0  0  0
 30 33  2  0  0  0  0
 31 32  2  0  0  0  0
 31 56  1  0  0  0  0
 32 34  1  0  0  0  0
 32 36  1  0  0  0  0
 33 35  1  0  0  0  0
 33 57  1  0  0  0  0
 34 35  2  0  0  0  0
 34 58  1  0  0  0  0
 35 59  1  0  0  0  0
 36 60  1  0  0  0  0
 36 61  1  0  0  0  0
 36 62  1  0  0  0  0
M  END
> <PUBCHEM_COMPOUND_CID>
49830367

> <PUBCHEM_CONFORMER_RMSD>
1

> <PUBCHEM_CONFORMER_DIVERSEORDER>
1
73
46
58
77
32
36
47
49
44
69
31
27
78
57
18
82
23
71
65
3
43
16
79
62
33
60
80
15
54
67
40
68
59
20
30
12
29
75
55
81
74
10
25
45
70
21
83
13
76
50
41
63
61
37
5
4
35
14
66
64
11
34
52
56
72
38
22
24
42
7
19
17
53
39
6
26
51
8
48
9
28
2

> <PUBCHEM_MMFF94_PARTIAL_CHARGES>
51
1 -0.08
11 0.04
12 0.05
13 -0.05
14 -0.05
15 0.26
16 -0.3
17 0.05
18 0.41
19 0.28
2 -0.68
20 -0.11
21 0.16
22 0.14
23 -0.15
24 -0.15
26 0.12
27 -0.15
28 -0.15
29 0.69
3 -0.57
30 0.12
31 -0.15
32 -0.14
33 -0.15
34 -0.15
35 -0.15
36 0.14
39 0.15
4 0.31
41 0.15
42 0.15
43 0.15
44 0.15
45 0.15
49 0.15
5 -0.71
50 0.15
51 0.4
52 0.4
53 0.4
54 0.37
55 0.37
56 0.15
57 0.15
58 0.15
59 0.15
6 -0.62
7 -0.9
8 -0.55
9 -0.55

> <PUBCHEM_EFFECTIVE_ROTOR_COUNT>
8

> <PUBCHEM_PHARMACOPHORE_FEATURES>
13
1 2 acceptor
1 2 donor
1 3 acceptor
1 5 acceptor
1 7 donor
1 8 donor
1 9 donor
3 6 7 18 cation
5 1 10 11 13 20 rings
5 4 5 14 16 22 rings
6 17 23 24 26 27 28 rings
6 30 31 32 33 34 35 rings
6 6 10 11 12 18 21 rings

> <PUBCHEM_HEAVY_ATOM_COUNT>
36

> <PUBCHEM_ATOM_DEF_STEREO_COUNT>
0

> <PUBCHEM_ATOM_UDEF_STEREO_COUNT>
1

> <PUBCHEM_BOND_DEF_STEREO_COUNT>
0

> <PUBCHEM_BOND_UDEF_STEREO_COUNT>
0

> <PUBCHEM_ISOTOPIC_ATOM_COUNT>
0

> <PUBCHEM_COMPONENT_COUNT>
1

> <PUBCHEM_CACTVS_TAUTO_COUNT>
6

> <PUBCHEM_CONFORMER_ID>
02F859DF00000001

> <PUBCHEM_MMFF94_ENERGY>
104.629

> <PUBCHEM_FEATURE_SELFOVERLAP>
66.087

> <PUBCHEM_SHAPE_FINGERPRINT>
10 15 9583513210328071912
10076449 9 18333732398862773992
10299344 5 16200428049674464804
10429389 143 11530476727894509951
10674148 151 11815894561291224239
11135926 11 15625933197474486100
11315181 36 14634876323326479401
11408170 108 15984833584801729766
11456790 92 12247676106372000371
11476731 38 17918273165661307320
12013929 2 18342451527410857045
12082328 90 18201438022243805876
12144603 126 16630524038744555552
12522641 33 13984662543314371544
12559415 141 18130799966194935774
12664476 115 16877941642557932020
12758862 11 17967256425152041096
13553643 46 11383826052857247354
14118638 360 17313662638673559256
14202775 3 18130794438861864062
14251764 46 7925909279606834176
14344974 52 18040715905279020220
14395042 24 12895078435341849995
15065858 18 18343016658832761116
15247644 1 18413389838757912399
15461852 350 18113336405592625119
15510794 2 18341614828435755498
15538507 75 12607413153244109604
1577012 14 16226321495962004740
16067689 302 17917434190280433326
16728433 110 18131347536149336584
1754911 235 14707209924304087059
1818759 1 17418093205118200902
19315958 150 13254797932824761212
20105231 36 18202281424845082047
21792934 111 8070025567948964582
21792961 116 18187931630261553384
232437 2 18060701684897131954
24771293 8 15068622630574975230
249057 3 17313110761172031464
306946 40 8286204937767146395
335352 9 16805040731205922929
4017518 198 18407759240650977491
4149490 64 17632010961333279930
45377200 153 18337670914492339795
4760202 170 13479140120545122422
4874694 18 17095525085616857034
5028188 123 18260828186026178037
54039377 194 17775283863378231977
57676310 188 18260825982550427771
636775 8 18187365454988399179
6691757 9 16588036683915799345
67123 10 18131070425043507864
9663363 56 17458065950826252901
9937071 3 17346602963085295254

> <PUBCHEM_SHAPE_MULTIPOLES>
703.09
41.43
2.07
1.48
46.85
1.23
0.19
28.32
5.65
-3.26
0.48
-1.35
-0.64
2.15

> <PUBCHEM_SHAPE_SELFOVERLAP>
1537.401

> <PUBCHEM_SHAPE_VOLUME>
385

> <PUBCHEM_COORDINATE_TYPE>
2
5
10

$$$$
