49830768
  -OEChem-10062121523D

 51 54  0     0  0  0  0  0  0999 V2000
   -2.4451   -1.9553   -0.6803 Cl  0  0  0  0  0  0  0  0  0  0  0  0
   -7.2080   -0.3950    0.2428 O   0  0  0  0  0  0  0  0  0  0  0  0
   -4.4628    0.1844    0.0768 N   0  0  0  0  0  0  0  0  0  0  0  0
    2.0141    0.0310    0.2705 N   0  0  0  0  0  0  0  0  0  0  0  0
    0.8327    1.9558   -0.3279 N   0  0  0  0  0  0  0  0  0  0  0  0
    5.5631    1.9061   -0.1906 N   0  0  0  0  0  0  0  0  0  0  0  0
    3.1624    2.0981   -0.3094 N   0  0  0  0  0  0  0  0  0  0  0  0
   -5.1752    0.3306    1.3508 C   0  0  0  0  0  0  0  0  0  0  0  0
   -5.3087    0.2444   -1.1233 C   0  0  0  0  0  0  0  0  0  0  0  0
    2.3202   -2.9491   -0.0651 C   0  0  0  0  0  0  0  0  0  0  0  0
    3.1068   -2.0369    0.9087 C   0  0  0  0  0  0  0  0  0  0  0  0
   -6.3748   -0.6101    1.3814 C   0  0  0  0  0  0  0  0  0  0  0  0
   -6.5003   -0.6923   -0.9607 C   0  0  0  0  0  0  0  0  0  0  0  0
   -3.1330    0.6043   -0.0310 C   0  0  0  0  0  0  0  0  0  0  0  0
    3.1863   -0.6087    0.4893 C   0  0  0  0  0  0  0  0  0  0  0  0
    4.3868    0.0789    0.3176 C   0  0  0  0  0  0  0  0  0  0  0  0
    2.2468   -4.3766    0.4821 C   0  0  0  0  0  0  0  0  0  0  0  0
    2.9481   -2.9643   -1.4611 C   0  0  0  0  0  0  0  0  0  0  0  0
   -2.1162   -0.2876   -0.3722 C   0  0  0  0  0  0  0  0  0  0  0  0
   -2.8327    1.9448    0.2113 C   0  0  0  0  0  0  0  0  0  0  0  0
    4.2924    1.4079   -0.0767 C   0  0  0  0  0  0  0  0  0  0  0  0
   -0.4988    1.5014   -0.2284 C   0  0  0  0  0  0  0  0  0  0  0  0
    2.0740    1.3270   -0.1101 C   0  0  0  0  0  0  0  0  0  0  0  0
   -0.7992    0.1610   -0.4710 C   0  0  0  0  0  0  0  0  0  0  0  0
   -1.5155    2.3934    0.1128 C   0  0  0  0  0  0  0  0  0  0  0  0
    5.7681   -0.2184    0.4416 C   0  0  0  0  0  0  0  0  0  0  0  0
    6.4688    0.9251    0.1221 C   0  0  0  0  0  0  0  0  0  0  0  0
   -4.5146    0.1026    2.1953 H   0  0  0  0  0  0  0  0  0  0  0  0
   -5.5192    1.3670    1.4530 H   0  0  0  0  0  0  0  0  0  0  0  0
   -5.6606    1.2751   -1.2542 H   0  0  0  0  0  0  0  0  0  0  0  0
   -4.7458   -0.0385   -2.0204 H   0  0  0  0  0  0  0  0  0  0  0  0
    1.2933   -2.5746   -0.1585 H   0  0  0  0  0  0  0  0  0  0  0  0
    4.1127   -2.4501    1.0513 H   0  0  0  0  0  0  0  0  0  0  0  0
    2.6240   -2.0672    1.8941 H   0  0  0  0  0  0  0  0  0  0  0  0
   -6.9739   -0.4221    2.2780 H   0  0  0  0  0  0  0  0  0  0  0  0
   -6.0580   -1.6598    1.4078 H   0  0  0  0  0  0  0  0  0  0  0  0
   -6.1842   -1.7424   -0.9478 H   0  0  0  0  0  0  0  0  0  0  0  0
   -7.1926   -0.5645   -1.7988 H   0  0  0  0  0  0  0  0  0  0  0  0
    1.6595   -5.0190   -0.1826 H   0  0  0  0  0  0  0  0  0  0  0  0
    1.7684   -4.3895    1.4671 H   0  0  0  0  0  0  0  0  0  0  0  0
    3.2451   -4.8155    0.5838 H   0  0  0  0  0  0  0  0  0  0  0  0
    2.4034   -3.6461   -2.1232 H   0  0  0  0  0  0  0  0  0  0  0  0
    2.9208   -1.9725   -1.9232 H   0  0  0  0  0  0  0  0  0  0  0  0
    3.9921   -3.2937   -1.4227 H   0  0  0  0  0  0  0  0  0  0  0  0
   -3.6119    2.6564    0.4723 H   0  0  0  0  0  0  0  0  0  0  0  0
   -0.0374   -0.5437   -0.7882 H   0  0  0  0  0  0  0  0  0  0  0  0
   -1.2946    3.4405    0.3037 H   0  0  0  0  0  0  0  0  0  0  0  0
    6.2127   -1.1607    0.7308 H   0  0  0  0  0  0  0  0  0  0  0  0
    0.9233    2.9562   -0.4782 H   0  0  0  0  0  0  0  0  0  0  0  0
    5.7966    2.8508   -0.4632 H   0  0  0  0  0  0  0  0  0  0  0  0
    7.5301    1.1274    0.0898 H   0  0  0  0  0  0  0  0  0  0  0  0
  1 19  1  0  0  0  0
  2 12  1  0  0  0  0
  2 13  1  0  0  0  0
  3  8  1  0  0  0  0
  3  9  1  0  0  0  0
  3 14  1  0  0  0  0
  4 15  1  0  0  0  0
  4 23  2  0  0  0  0
  5 22  1  0  0  0  0
  5 23  1  0  0  0  0
  5 49  1  0  0  0  0
  6 21  1  0  0  0  0
  6 27  1  0  0  0  0
  6 50  1  0  0  0  0
  7 21  2  0  0  0  0
  7 23  1  0  0  0  0
  8 12  1  0  0  0  0
  8 28  1  0  0  0  0
  8 29  1  0  0  0  0
  9 13  1  0  0  0  0
  9 30  1  0  0  0  0
  9 31  1  0  0  0  0
 10 11  1  0  0  0  0
 10 17  1  0  0  0  0
 10 18  1  0  0  0  0
 10 32  1  0  0  0  0
 11 15  1  0  0  0  0
 11 33  1  0  0  0  0
 11 34  1  0  0  0  0
 12 35  1  0  0  0  0
 12 36  1  0  0  0  0
 13 37  1  0  0  0  0
 13 38  1  0  0  0  0
 14 19  2  0  0  0  0
 14 20  1  0  0  0  0
 15 16  2  0  0  0  0
 16 21  1  0  0  0  0
 16 26  1  0  0  0  0
 17 39  1  0  0  0  0
 17 40  1  0  0  0  0
 17 41  1  0  0  0  0
 18 42  1  0  0  0  0
 18 43  1  0  0  0  0
 18 44  1  0  0  0  0
 19 24  1  0  0  0  0
 20 25  2  0  0  0  0
 20 45  1  0  0  0  0
 22 24  2  0  0  0  0
 22 25  1  0  0  0  0
 24 46  1  0  0  0  0
 25 47  1  0  0  0  0
 26 27  2  0  0  0  0
 26 48  1  0  0  0  0
 27 51  1  0  0  0  0
M  END
> <PUBCHEM_COMPOUND_CID>
49830768

> <PUBCHEM_CONFORMER_RMSD>
0.8

> <PUBCHEM_CONFORMER_DIVERSEORDER>
1
75
17
101
9
139
129
146
122
95
82
140
88
144
152
81
94
28
76
70
143
44
151
105
154
87
49
108
150
22
136
51
109
125
100
56
4
117
83
41
115
121
116
134
19
13
112
137
84
2
30
50
123
18
36
46
72
21
149
110
114
14
63
135
128
118
107
58
40
23
111
34
45
103
12
67
147
85
133
24
42
130
126
78
106
120
68
132
90
99
93
64
37
145
98
15
79
96
54
33
74
26
73
77
65
97
66
11
104
113
59
32
124
60
53
6
39
8
91
153
47
142
61
48
20
102
127
62
141
57
69
5
10
16
131
3
86
31
80
138
25
71
38
35
89
55
119
148
27
29
92
7
52
43

> <PUBCHEM_MMFF94_PARTIAL_CHARGES>
30
1 -0.18
11 0.14
12 0.28
13 0.28
14 0.1
15 0.17
19 0.18
2 -0.56
20 -0.15
21 0.11
22 0.1
23 0.72
24 -0.15
25 -0.15
26 -0.15
27 -0.3
3 -0.84
4 -0.62
45 0.15
46 0.15
47 0.15
48 0.15
49 0.4
5 -0.6
50 0.27
51 0.15
6 0.03
7 -0.57
8 0.37
9 0.37

> <PUBCHEM_EFFECTIVE_ROTOR_COUNT>
6.2

> <PUBCHEM_PHARMACOPHORE_FEATURES>
10
1 2 acceptor
1 3 cation
1 5 donor
1 6 donor
3 10 17 18 hydrophobe
4 4 5 7 23 cation
5 6 16 21 26 27 rings
6 14 19 20 22 24 25 rings
6 2 3 8 9 12 13 rings
6 4 7 15 16 21 23 rings

> <PUBCHEM_HEAVY_ATOM_COUNT>
27

> <PUBCHEM_ATOM_DEF_STEREO_COUNT>
0

> <PUBCHEM_ATOM_UDEF_STEREO_COUNT>
0

> <PUBCHEM_BOND_DEF_STEREO_COUNT>
0

> <PUBCHEM_BOND_UDEF_STEREO_COUNT>
0

> <PUBCHEM_ISOTOPIC_ATOM_COUNT>
0

> <PUBCHEM_COMPONENT_COUNT>
1

> <PUBCHEM_CACTVS_TAUTO_COUNT>
17

> <PUBCHEM_CONFORMER_ID>
02F85B7000000001

> <PUBCHEM_MMFF94_ENERGY>
83.8819

> <PUBCHEM_FEATURE_SELFOVERLAP>
50.863

> <PUBCHEM_SHAPE_FINGERPRINT>
10050765 1 18194682566809984677
10616163 171 18411978087734434502
11135926 11 18337379505070955350
11421498 54 17917715648118654352
11578080 2 17170665580897905300
11719270 70 18335695044909834914
11963148 33 18334288807586934691
12107183 9 17621323437755160369
12166972 35 11312059867659103306
12236239 1 18272933825457786081
12422481 6 17773604806802772591
12596602 18 17418095412092958041
12788726 201 17131277856985866505
12838862 33 18266437936757373548
13140716 1 18197500846929289377
13150687 139 18116738360101614132
13402501 40 18187086173726990994
13533116 47 18272367551505333947
1361 2 18410573976862885707
14394314 77 18272375257252209113
14617045 38 18412266146547642286
14840074 17 18131346410788381127
14863182 85 18335147479718996638
15483637 11 18047192135276491346
15537594 2 18201996642500590247
17492 89 18194681462728881754
1813 80 17531537494387700973
19301679 30 18339088090849276281
19319366 153 18412257355140328382
19377110 9 18131635560781952601
20028762 73 18342734122930868726
20721686 56 18408608032591918258
20771845 140 17632850911588523558
21197605 99 18337115665066873442
21267235 1 18409735045512111436
21315763 178 18272650151795170109
21344244 181 17988939851446229422
21521721 280 18270401710957471976
21623969 137 18261116283293709635
22224240 67 18342451582627948352
22956985 138 17900531282531903578
23516275 137 17131017332807761798
23522609 53 18055944153813988233
23559900 14 18266169707433832969
314194 84 18412542128799277665
3178227 256 18408605890236349704
345986 75 17845649244902199329
34797466 226 17489311927788171580
394071 54 18341341036780802451
46194498 28 17530681030785869716
5104073 3 18268430127119865545
57359948 33 17313381167680586735
59755656 215 18335420162465213470
59755656 520 13758352272018502781

> <PUBCHEM_SHAPE_MULTIPOLES>
526.74
16.73
3.42
1.03
13.21
3.45
0.03
-0.68
1.86
-4.33
-0.18
0.94
0.41
-0.28

> <PUBCHEM_SHAPE_SELFOVERLAP>
1125.893

> <PUBCHEM_SHAPE_VOLUME>
293.8

> <PUBCHEM_COORDINATE_TYPE>
2
5
10

$$$$
