44317865
  -OEChem-10052120443D

 38 41  0     0  0  0  0  0  0999 V2000
   -0.9806    4.5090    0.6676 Cl  0  0  0  0  0  0  0  0  0  0  0  0
    5.6994   -1.7772    0.7781 O   0  0  0  0  0  0  0  0  0  0  0  0
    2.7808    1.7302   -1.0584 O   0  0  0  0  0  0  0  0  0  0  0  0
    3.5637   -0.3400   -0.3894 N   0  0  0  0  0  0  0  0  0  0  0  0
   -1.5082   -1.2112   -0.3930 N   0  0  0  0  0  0  0  0  0  0  0  0
    1.2461    0.0522   -0.5927 N   0  0  0  0  0  0  0  0  0  0  0  0
   -4.9473   -2.5100   -0.0918 N   0  0  0  0  0  0  0  0  0  0  0  0
    3.3813   -1.7328    0.0453 C   0  0  0  0  0  0  0  0  0  0  0  0
    4.9579    0.0406   -0.6295 C   0  0  0  0  0  0  0  0  0  0  0  0
   -1.1812    0.1078   -0.1820 C   0  0  0  0  0  0  0  0  0  0  0  0
   -2.3601    0.7786    0.1461 C   0  0  0  0  0  0  0  0  0  0  0  0
    4.3589   -2.0861    1.1611 C   0  0  0  0  0  0  0  0  0  0  0  0
    5.8455   -0.3774    0.5322 C   0  0  0  0  0  0  0  0  0  0  0  0
    0.0597    0.7508   -0.2568 C   0  0  0  0  0  0  0  0  0  0  0  0
   -3.4186   -0.1840    0.1268 C   0  0  0  0  0  0  0  0  0  0  0  0
    2.5347    0.5756   -0.7003 C   0  0  0  0  0  0  0  0  0  0  0  0
   -2.8548   -1.4132   -0.2129 C   0  0  0  0  0  0  0  0  0  0  0  0
   -2.2969    2.1626    0.4128 C   0  0  0  0  0  0  0  0  0  0  0  0
    0.0965    2.1217    0.0120 C   0  0  0  0  0  0  0  0  0  0  0  0
   -1.0630    2.8191    0.3421 C   0  0  0  0  0  0  0  0  0  0  0  0
   -4.8007   -0.1261    0.3654 C   0  0  0  0  0  0  0  0  0  0  0  0
   -3.6152   -2.5703   -0.3214 C   0  0  0  0  0  0  0  0  0  0  0  0
   -5.4978   -1.3200    0.2388 C   0  0  0  0  0  0  0  0  0  0  0  0
    3.5699   -2.3568   -0.8358 H   0  0  0  0  0  0  0  0  0  0  0  0
    2.3649   -1.9249    0.3939 H   0  0  0  0  0  0  0  0  0  0  0  0
    5.0523    1.1153   -0.8105 H   0  0  0  0  0  0  0  0  0  0  0  0
    5.2643   -0.4827   -1.5432 H   0  0  0  0  0  0  0  0  0  0  0  0
    4.1151   -1.5483    2.0854 H   0  0  0  0  0  0  0  0  0  0  0  0
    4.3083   -3.1579    1.3773 H   0  0  0  0  0  0  0  0  0  0  0  0
    6.8957   -0.1858    0.2912 H   0  0  0  0  0  0  0  0  0  0  0  0
    5.6029    0.1806    1.4444 H   0  0  0  0  0  0  0  0  0  0  0  0
   -0.8492   -1.9343   -0.6463 H   0  0  0  0  0  0  0  0  0  0  0  0
    1.1291   -0.9452   -0.7375 H   0  0  0  0  0  0  0  0  0  0  0  0
   -3.2016    2.7073    0.6704 H   0  0  0  0  0  0  0  0  0  0  0  0
    1.0244    2.6828   -0.0002 H   0  0  0  0  0  0  0  0  0  0  0  0
   -5.3043    0.7956    0.6335 H   0  0  0  0  0  0  0  0  0  0  0  0
   -3.2006   -3.5347   -0.5836 H   0  0  0  0  0  0  0  0  0  0  0  0
   -6.5700   -1.3468    0.4090 H   0  0  0  0  0  0  0  0  0  0  0  0
  1 20  1  0  0  0  0
  2 12  1  0  0  0  0
  2 13  1  0  0  0  0
  3 16  2  0  0  0  0
  4  8  1  0  0  0  0
  4  9  1  0  0  0  0
  4 16  1  0  0  0  0
  5 10  1  0  0  0  0
  5 17  1  0  0  0  0
  5 32  1  0  0  0  0
  6 14  1  0  0  0  0
  6 16  1  0  0  0  0
  6 33  1  0  0  0  0
  7 22  2  0  0  0  0
  7 23  1  0  0  0  0
  8 12  1  0  0  0  0
  8 24  1  0  0  0  0
  8 25  1  0  0  0  0
  9 13  1  0  0  0  0
  9 26  1  0  0  0  0
  9 27  1  0  0  0  0
 10 11  2  0  0  0  0
 10 14  1  0  0  0  0
 11 15  1  0  0  0  0
 11 18  1  0  0  0  0
 12 28  1  0  0  0  0
 12 29  1  0  0  0  0
 13 30  1  0  0  0  0
 13 31  1  0  0  0  0
 14 19  2  0  0  0  0
 15 17  2  0  0  0  0
 15 21  1  0  0  0  0
 17 22  1  0  0  0  0
 18 20  2  0  0  0  0
 18 34  1  0  0  0  0
 19 20  1  0  0  0  0
 19 35  1  0  0  0  0
 21 23  2  0  0  0  0
 21 36  1  0  0  0  0
 22 37  1  0  0  0  0
 23 38  1  0  0  0  0
M  END
> <PUBCHEM_COMPOUND_CID>
44317865

> <PUBCHEM_CONFORMER_RMSD>
0.8

> <PUBCHEM_CONFORMER_DIVERSEORDER>
1
14
16
10
7
15
9
6
8
11
17
2
3
12
18
5
4
13

> <PUBCHEM_MMFF94_PARTIAL_CHARGES>
28
1 -0.18
10 -0.15
12 0.28
13 0.28
14 0.12
16 0.69
17 -0.15
18 -0.15
19 -0.15
2 -0.56
20 0.18
21 -0.15
22 0.16
23 0.16
3 -0.57
32 0.27
33 0.37
34 0.15
35 0.15
36 0.15
37 0.15
38 0.15
4 -0.66
5 0.03
6 -0.55
7 -0.62
8 0.3
9 0.3

> <PUBCHEM_EFFECTIVE_ROTOR_COUNT>
4.2

> <PUBCHEM_PHARMACOPHORE_FEATURES>
10
1 2 acceptor
1 3 acceptor
1 5 cation
1 5 donor
1 6 donor
1 7 acceptor
5 5 10 11 15 17 rings
6 10 11 14 18 19 20 rings
6 2 4 8 9 12 13 rings
6 7 15 17 21 22 23 rings

> <PUBCHEM_HEAVY_ATOM_COUNT>
23

> <PUBCHEM_ATOM_DEF_STEREO_COUNT>
0

> <PUBCHEM_ATOM_UDEF_STEREO_COUNT>
0

> <PUBCHEM_BOND_DEF_STEREO_COUNT>
0

> <PUBCHEM_BOND_UDEF_STEREO_COUNT>
0

> <PUBCHEM_ISOTOPIC_ATOM_COUNT>
0

> <PUBCHEM_COMPONENT_COUNT>
1

> <PUBCHEM_CACTVS_TAUTO_COUNT>
4

> <PUBCHEM_CONFORMER_ID>
02A43CA900000001

> <PUBCHEM_MMFF94_ENERGY>
57.4129

> <PUBCHEM_FEATURE_SELFOVERLAP>
50.933

> <PUBCHEM_SHAPE_FINGERPRINT>
10319926 262 18055338164572678578
10411042 1 18340487871892747439
11045515 52 18186519916876105341
11056379 131 18269002990047625148
11265709 11 18411421738844982221
11963148 33 16902706230682452719
12107183 9 17543909002108589074
12236239 1 18113902654054432406
12516196 113 18340767138665736059
12553582 1 18271240620505809679
12760667 363 18410289212099183031
12788726 201 18338248084754572552
12839892 36 18201720630501240822
12969540 37 17760645167687824927
13004483 165 18413103978835025677
13140716 1 18343303660810513369
13533116 47 18334015025502240376
13583140 156 17559092312805653162
13631057 29 18410857655600248568
138480 1 15312669883784991585
13862211 1 18412825819979411951
13955234 65 17692818503284447561
14178342 30 18194965141435077046
14394314 77 18410858776180927649
14420673 8 17620194235646746670
14844126 61 18410573942629092177
15042514 8 18340210683167226369
15352361 1 18410575106143463014
15842332 3 18043839535903588484
17492 89 18339081471930594214
17857418 61 18408040723335985198
19784866 135 18412823568994289569
200 152 18260267460026779574
20832881 197 18335422413381465643
21033648 29 16414907544604341154
21065198 48 18262801762142482216
21250096 35 18410292544671921311
21267235 1 18410023147048308070
21792934 111 18341889710785450969
22950370 63 18410296951477081123
2297311 6 18201170883751553844
23366157 5 17905328781964447861
23402539 116 18343581841683808557
23557571 272 17845949424282427772
23559900 14 18339635749901731897
25147074 1 18189353328492241300
3004659 81 18187365458428590494
314194 84 18264776647807840579
335352 9 18412546527325804445
3411729 13 17415837153208226600
3421961 26 18197497531087929993
345986 75 18188756280297162923
4409770 3 18263075514774029813
463206 1 18264208186989801163
5104073 3 18200322142458242091
559249 180 18188205390843964659
5924683 9 18339077082120115688
67856867 119 18335422426087454652
7970288 3 18338231664995340939
79837 15 17766004891441414441
9981440 41 17546172900460993321

> <PUBCHEM_SHAPE_MULTIPOLES>
443.54
12.47
3.8
0.85
9.84
3.73
0.04
-10.67
1.84
-2.64
0.81
0.66
0
-1.42

> <PUBCHEM_SHAPE_SELFOVERLAP>
969.043

> <PUBCHEM_SHAPE_VOLUME>
241.7

> <PUBCHEM_COORDINATE_TYPE>
2
5
10

$$$$
