9796713
  -OEChem-10062121593D

 38 43  0     0  0  0  0  0  0999 V2000
   -2.3445    3.1138    0.0013 O   0  0  0  0  0  0  0  0  0  0  0  0
    1.8127   -1.9357   -0.0005 N   0  0  0  0  0  0  0  0  0  0  0  0
   -0.0702    3.5905   -0.0003 N   0  0  0  0  0  0  0  0  0  0  0  0
   -0.5391   -1.0290   -0.0006 C   0  0  0  0  0  0  0  0  0  0  0  0
   -1.3359    0.1511   -0.0005 C   0  0  0  0  0  0  0  0  0  0  0  0
    0.8570   -0.9508   -0.0006 C   0  0  0  0  0  0  0  0  0  0  0  0
    1.5214    0.2770   -0.0005 C   0  0  0  0  0  0  0  0  0  0  0  0
    0.7315    1.4435   -0.0005 C   0  0  0  0  0  0  0  0  0  0  0  0
   -0.6826    1.3683   -0.0003 C   0  0  0  0  0  0  0  0  0  0  0  0
   -1.4070   -2.2724   -0.0003 C   0  0  0  0  0  0  0  0  0  0  0  0
   -2.7358   -0.2630   -0.0002 C   0  0  0  0  0  0  0  0  0  0  0  0
   -2.7918   -1.6784    0.0001 C   0  0  0  0  0  0  0  0  0  0  0  0
    1.1784    2.8747   -0.0002 C   0  0  0  0  0  0  0  0  0  0  0  0
    2.9252   -0.0001   -0.0002 C   0  0  0  0  0  0  0  0  0  0  0  0
    3.0743   -1.3884   -0.0002 C   0  0  0  0  0  0  0  0  0  0  0  0
   -1.1816    2.7599    0.0000 C   0  0  0  0  0  0  0  0  0  0  0  0
   -3.9252    0.4479   -0.0002 C   0  0  0  0  0  0  0  0  0  0  0  0
   -3.9892   -2.3783    0.0006 C   0  0  0  0  0  0  0  0  0  0  0  0
    4.0878    0.7997    0.0003 C   0  0  0  0  0  0  0  0  0  0  0  0
    4.3252   -2.0164    0.0003 C   0  0  0  0  0  0  0  0  0  0  0  0
   -5.1418   -0.2487    0.0003 C   0  0  0  0  0  0  0  0  0  0  0  0
   -5.1744   -1.6491    0.0007 C   0  0  0  0  0  0  0  0  0  0  0  0
    5.3455    0.1858    0.0009 C   0  0  0  0  0  0  0  0  0  0  0  0
    5.4602   -1.2019    0.0008 C   0  0  0  0  0  0  0  0  0  0  0  0
   -1.2326   -2.8629    0.9039 H   0  0  0  0  0  0  0  0  0  0  0  0
   -1.2330   -2.8631   -0.9044 H   0  0  0  0  0  0  0  0  0  0  0  0
    1.7370    3.1329    0.9028 H   0  0  0  0  0  0  0  0  0  0  0  0
    1.7373    3.1332   -0.9031 H   0  0  0  0  0  0  0  0  0  0  0  0
    1.6172   -2.9273   -0.0004 H   0  0  0  0  0  0  0  0  0  0  0  0
   -0.1343    4.6036    0.0003 H   0  0  0  0  0  0  0  0  0  0  0  0
   -3.9625    1.5269   -0.0006 H   0  0  0  0  0  0  0  0  0  0  0  0
   -4.0063   -3.4626    0.0009 H   0  0  0  0  0  0  0  0  0  0  0  0
    4.0194    1.8837    0.0005 H   0  0  0  0  0  0  0  0  0  0  0  0
    4.4150   -3.0976    0.0003 H   0  0  0  0  0  0  0  0  0  0  0  0
   -6.0761    0.3073    0.0003 H   0  0  0  0  0  0  0  0  0  0  0  0
   -6.1297   -2.1662    0.0011 H   0  0  0  0  0  0  0  0  0  0  0  0
    6.2417    0.8006    0.0014 H   0  0  0  0  0  0  0  0  0  0  0  0
    6.4462   -1.6593    0.0013 H   0  0  0  0  0  0  0  0  0  0  0  0
  1 16  2  0  0  0  0
  2  6  1  0  0  0  0
  2 15  1  0  0  0  0
  2 29  1  0  0  0  0
  3 13  1  0  0  0  0
  3 16  1  0  0  0  0
  3 30  1  0  0  0  0
  4  5  2  0  0  0  0
  4  6  1  0  0  0  0
  4 10  1  0  0  0  0
  5  9  1  0  0  0  0
  5 11  1  0  0  0  0
  6  7  2  0  0  0  0
  7  8  1  0  0  0  0
  7 14  1  0  0  0  0
  8  9  2  0  0  0  0
  8 13  1  0  0  0  0
  9 16  1  0  0  0  0
 10 12  1  0  0  0  0
 10 25  1  0  0  0  0
 10 26  1  0  0  0  0
 11 12  1  0  0  0  0
 11 17  2  0  0  0  0
 12 18  2  0  0  0  0
 13 27  1  0  0  0  0
 13 28  1  0  0  0  0
 14 15  1  0  0  0  0
 14 19  2  0  0  0  0
 15 20  2  0  0  0  0
 17 21  1  0  0  0  0
 17 31  1  0  0  0  0
 18 22  1  0  0  0  0
 18 32  1  0  0  0  0
 19 23  1  0  0  0  0
 19 33  1  0  0  0  0
 20 24  1  0  0  0  0
 20 34  1  0  0  0  0
 21 22  2  0  0  0  0
 21 35  1  0  0  0  0
 22 36  1  0  0  0  0
 23 24  2  0  0  0  0
 23 37  1  0  0  0  0
 24 38  1  0  0  0  0
M  END
> <PUBCHEM_COMPOUND_CID>
9796713

> <PUBCHEM_CONFORMER_RMSD>
0.6

> <PUBCHEM_CONFORMER_DIVERSEORDER>
1

> <PUBCHEM_MMFF94_PARTIAL_CHARGES>
30
1 -0.57
10 0.29
12 -0.14
13 0.44
15 -0.15
16 0.54
17 -0.15
18 -0.15
19 -0.15
2 0.03
20 -0.15
21 -0.15
22 -0.15
23 -0.15
24 -0.15
29 0.27
3 -0.73
30 0.37
31 0.15
32 0.15
33 0.15
34 0.15
35 0.15
36 0.15
37 0.15
38 0.15
4 -0.14
6 -0.15
8 -0.14
9 0.09

> <PUBCHEM_EFFECTIVE_ROTOR_COUNT>
0.6

> <PUBCHEM_PHARMACOPHORE_FEATURES>
10
1 1 acceptor
1 2 cation
1 2 donor
1 3 donor
5 2 6 7 14 15 rings
5 3 8 9 13 16 rings
5 4 5 10 11 12 rings
6 11 12 17 18 21 22 rings
6 14 15 19 20 23 24 rings
6 4 5 6 7 8 9 rings

> <PUBCHEM_HEAVY_ATOM_COUNT>
24

> <PUBCHEM_ATOM_DEF_STEREO_COUNT>
0

> <PUBCHEM_ATOM_UDEF_STEREO_COUNT>
0

> <PUBCHEM_BOND_DEF_STEREO_COUNT>
0

> <PUBCHEM_BOND_UDEF_STEREO_COUNT>
0

> <PUBCHEM_ISOTOPIC_ATOM_COUNT>
0

> <PUBCHEM_COMPONENT_COUNT>
1

> <PUBCHEM_CACTVS_TAUTO_COUNT>
5

> <PUBCHEM_CONFORMER_ID>
00957C6900000001

> <PUBCHEM_MMFF94_ENERGY>
75.0869

> <PUBCHEM_FEATURE_SELFOVERLAP>
51.154

> <PUBCHEM_SHAPE_FINGERPRINT>
10050765 1 18194401096824391610
10319926 262 18124573312383697978
10411042 1 18410856581119920291
10616163 171 18339643322229644630
10688039 33 18186522107403942893
10906281 52 18266762275185860447
10967382 1 18194683893516554981
1100329 8 18265615566294538979
11045515 52 18186518800015588877
11265709 11 18410296921111434729
12107183 9 17542780915852656082
12166972 35 17749111101913183614
12236239 1 17821729416711205390
12293681 4 18260275178262709947
12403259 226 18340763746401201656
12516196 113 18411980294904584331
12553582 1 18338784693441744550
12788726 201 18262233322572036834
13004483 165 18338224995068742746
13140716 1 18194682793994384497
13544653 18 18334019405767599506
13583140 156 14189570797940148591
138480 1 15168263311942062893
13862211 1 18410852178794753358
14347332 77 18266742377341382782
14787075 74 18187085108817778634
14790565 3 17691692182086460697
14866123 147 18196093235991008897
15042514 8 18266458694249626792
15131766 46 14834681852795505650
15196674 1 18410573998073536134
15352361 1 18410574002405329255
15927050 60 17548982612578795836
1601671 61 18341615935883046922
16087824 20 18265897956986000677
17357779 13 18338219523269683181
17492 89 17979071914490632415
17980427 23 17417826045204249577
19591789 44 18411135818513706288
200 152 18202281420296920003
20510252 161 18270399365388025616
20775438 99 16976124908561884639
21029758 11 18410291436638768283
21049683 271 18044666527170861389
21236236 1 18341894031021338417
21267235 1 18410582794187923682
21279426 13 18337105653581872463
21421861 104 18043529404414481690
21641784 216 18041858245951576828
21792934 111 18339629079727454545
221357 26 18335973255880212327
221490 88 18119253015412169859
22182313 1 18266715017729755016
2297311 6 18340779165138680622
23352939 185 18272375295173191512
23366157 5 17826227677240617877
23402539 116 18342171163638478431
23557571 272 18200318719400981180
23558518 356 18046356236166859474
23559900 14 18267858557646810211
23845131 108 17404313897502733289
3004659 81 18114180843935354814
3178227 256 18335434486851487851
335352 9 18410573986085167125
3421961 26 18268147737225391017
34934 24 18410569604322180722
350125 39 18411983546400672736
4214541 1 18410575046008386246
5104073 3 18411981360209461946
5283173 99 18115016403567730589
7164475 11 18336550417774758502
7364860 26 18123469650946672305
8863177 126 17752218437896404979
9709674 26 18126567812942494342

> <PUBCHEM_SHAPE_MULTIPOLES>
478.08
10.46
3.45
0.61
2.47
2.77
0
-6.14
0
-1
0
0
-0.02
0

> <PUBCHEM_SHAPE_SELFOVERLAP>
1123.944

> <PUBCHEM_SHAPE_VOLUME>
245.3

> <PUBCHEM_COORDINATE_TYPE>
2
5
10

$$$$
