66552478
  -OEChem-10052120443D

 71 76  0     0  0  0  0  0  0999 V2000
   -4.8782   -3.6233    1.6034 S   0  0  0  0  0  0  0  0  0  0  0  0
    4.0563   -0.5999   -0.0742 N   0  0  0  0  0  0  0  0  0  0  0  0
    1.2670   -0.0275    0.1532 N   0  0  0  0  0  0  0  0  0  0  0  0
    8.2065   -1.5337   -0.1549 N   0  0  0  0  0  0  0  0  0  0  0  0
   -1.3058    4.1922    0.1363 N   0  0  0  0  0  0  0  0  0  0  0  0
   -0.4389    1.5672    0.1384 N   0  0  0  0  0  0  0  0  0  0  0  0
   -0.9417   -0.7793    0.1249 N   0  0  0  0  0  0  0  0  0  0  0  0
   -3.5543    3.4591    0.1087 N   0  0  0  0  0  0  0  0  0  0  0  0
   -4.0572    1.1126    0.0951 N   0  0  0  0  0  0  0  0  0  0  0  0
   -3.1901   -1.5125    0.0975 N   0  0  0  0  0  0  0  0  0  0  0  0
   -0.4981    6.4532    0.1753 C   0  0  0  0  0  0  0  0  0  0  0  0
   -0.5734    7.8119   -0.4574 C   0  0  0  0  0  0  0  0  0  0  0  0
    0.2502    6.7316   -1.0951 C   0  0  0  0  0  0  0  0  0  0  0  0
    5.3718   -1.0307    0.3933 C   0  0  0  0  0  0  0  0  0  0  0  0
   -1.6965    5.5628    0.1363 C   0  0  0  0  0  0  0  0  0  0  0  0
    5.8449   -2.2506   -0.4040 C   0  0  0  0  0  0  0  0  0  0  0  0
    6.3950    0.1049    0.2770 C   0  0  0  0  0  0  0  0  0  0  0  0
    3.5969    0.5690    0.6857 C   0  0  0  0  0  0  0  0  0  0  0  0
    3.0824   -1.6914    0.0513 C   0  0  0  0  0  0  0  0  0  0  0  0
    2.2445    1.0651    0.1682 C   0  0  0  0  0  0  0  0  0  0  0  0
    1.7136   -1.2706   -0.4883 C   0  0  0  0  0  0  0  0  0  0  0  0
    7.2661   -2.6466   -0.0011 C   0  0  0  0  0  0  0  0  0  0  0  0
    7.7947   -0.3831    0.6534 C   0  0  0  0  0  0  0  0  0  0  0  0
   -0.1012    0.2654    0.1381 C   0  0  0  0  0  0  0  0  0  0  0  0
   -2.2464    3.1290    0.1227 C   0  0  0  0  0  0  0  0  0  0  0  0
   -1.7585    1.8363    0.1241 C   0  0  0  0  0  0  0  0  0  0  0  0
   -2.7376    0.8434    0.1094 C   0  0  0  0  0  0  0  0  0  0  0  0
   -2.2496   -0.4494    0.1108 C   0  0  0  0  0  0  0  0  0  0  0  0
   -4.3947    2.4143    0.0954 C   0  0  0  0  0  0  0  0  0  0  0  0
   -3.1383   -2.8133   -0.4235 C   0  0  0  0  0  0  0  0  0  0  0  0
   -3.8504   -3.8624    0.1576 C   0  0  0  0  0  0  0  0  0  0  0  0
   -2.3494   -3.0456   -1.5502 C   0  0  0  0  0  0  0  0  0  0  0  0
   -3.7737   -5.1439   -0.3879 C   0  0  0  0  0  0  0  0  0  0  0  0
   -2.2726   -4.3271   -2.0957 C   0  0  0  0  0  0  0  0  0  0  0  0
   -2.9847   -5.3763   -1.5146 C   0  0  0  0  0  0  0  0  0  0  0  0
   -4.0988   -4.7510    2.7907 C   0  0  0  0  0  0  0  0  0  0  0  0
    0.0722    6.3556    1.0912 H   0  0  0  0  0  0  0  0  0  0  0  0
   -0.0482    8.6244    0.0298 H   0  0  0  0  0  0  0  0  0  0  0  0
   -1.4892    8.1071   -0.9545 H   0  0  0  0  0  0  0  0  0  0  0  0
   -0.1136    6.3008   -2.0198 H   0  0  0  0  0  0  0  0  0  0  0  0
    1.3283    6.8177   -1.0358 H   0  0  0  0  0  0  0  0  0  0  0  0
    5.3121   -1.3221    1.4528 H   0  0  0  0  0  0  0  0  0  0  0  0
   -2.3066    5.7787   -0.7498 H   0  0  0  0  0  0  0  0  0  0  0  0
   -2.3128    5.7810    1.0168 H   0  0  0  0  0  0  0  0  0  0  0  0
    5.2265   -3.1342   -0.2188 H   0  0  0  0  0  0  0  0  0  0  0  0
    5.8147   -2.0428   -1.4819 H   0  0  0  0  0  0  0  0  0  0  0  0
    6.4098    0.5066   -0.7449 H   0  0  0  0  0  0  0  0  0  0  0  0
    6.1708    0.9339    0.9557 H   0  0  0  0  0  0  0  0  0  0  0  0
    4.2693    1.4240    0.5756 H   0  0  0  0  0  0  0  0  0  0  0  0
    3.5210    0.3361    1.7563 H   0  0  0  0  0  0  0  0  0  0  0  0
    2.9855   -2.0137    1.0967 H   0  0  0  0  0  0  0  0  0  0  0  0
    3.3576   -2.5650   -0.5452 H   0  0  0  0  0  0  0  0  0  0  0  0
    2.3496    1.4775   -0.8435 H   0  0  0  0  0  0  0  0  0  0  0  0
    1.9188    1.8781    0.8289 H   0  0  0  0  0  0  0  0  0  0  0  0
    1.0214   -2.1000   -0.3007 H   0  0  0  0  0  0  0  0  0  0  0  0
    1.7604   -1.1211   -1.5748 H   0  0  0  0  0  0  0  0  0  0  0  0
    7.2803   -3.0093    1.0342 H   0  0  0  0  0  0  0  0  0  0  0  0
    7.5992   -3.4767   -0.6340 H   0  0  0  0  0  0  0  0  0  0  0  0
    8.5116    0.4303    0.4957 H   0  0  0  0  0  0  0  0  0  0  0  0
    7.8334   -0.6404    1.7192 H   0  0  0  0  0  0  0  0  0  0  0  0
    9.1352   -1.8354    0.1383 H   0  0  0  0  0  0  0  0  0  0  0  0
   -0.3586    3.9504   -0.1379 H   0  0  0  0  0  0  0  0  0  0  0  0
   -5.4535    2.6408    0.0838 H   0  0  0  0  0  0  0  0  0  0  0  0
   -3.9883   -1.3416    0.7032 H   0  0  0  0  0  0  0  0  0  0  0  0
   -1.7959   -2.2453   -2.0340 H   0  0  0  0  0  0  0  0  0  0  0  0
   -4.3256   -5.9776    0.0389 H   0  0  0  0  0  0  0  0  0  0  0  0
   -1.6615   -4.5074   -2.9752 H   0  0  0  0  0  0  0  0  0  0  0  0
   -2.9270   -6.3734   -1.9413 H   0  0  0  0  0  0  0  0  0  0  0  0
   -4.2264   -5.7915    2.4820 H   0  0  0  0  0  0  0  0  0  0  0  0
   -3.0327   -4.5271    2.8855 H   0  0  0  0  0  0  0  0  0  0  0  0
   -4.5701   -4.6213    3.7686 H   0  0  0  0  0  0  0  0  0  0  0  0
  1 31  1  0  0  0  0
  1 36  1  0  0  0  0
  2 14  1  0  0  0  0
  2 18  1  0  0  0  0
  2 19  1  0  0  0  0
  3 20  1  0  0  0  0
  3 21  1  0  0  0  0
  3 24  1  0  0  0  0
  4 22  1  0  0  0  0
  4 23  1  0  0  0  0
  4 61  1  0  0  0  0
  5 15  1  0  0  0  0
  5 25  1  0  0  0  0
  5 62  1  0  0  0  0
  6 24  2  0  0  0  0
  6 26  1  0  0  0  0
  7 24  1  0  0  0  0
  7 28  2  0  0  0  0
  8 25  2  0  0  0  0
  8 29  1  0  0  0  0
  9 27  1  0  0  0  0
  9 29  2  0  0  0  0
 10 28  1  0  0  0  0
 10 30  1  0  0  0  0
 10 64  1  0  0  0  0
 11 12  1  0  0  0  0
 11 13  1  0  0  0  0
 11 15  1  0  0  0  0
 11 37  1  0  0  0  0
 12 13  1  0  0  0  0
 12 38  1  0  0  0  0
 12 39  1  0  0  0  0
 13 40  1  0  0  0  0
 13 41  1  0  0  0  0
 14 16  1  0  0  0  0
 14 17  1  0  0  0  0
 14 42  1  0  0  0  0
 15 43  1  0  0  0  0
 15 44  1  0  0  0  0
 16 22  1  0  0  0  0
 16 45  1  0  0  0  0
 16 46  1  0  0  0  0
 17 23  1  0  0  0  0
 17 47  1  0  0  0  0
 17 48  1  0  0  0  0
 18 20  1  0  0  0  0
 18 49  1  0  0  0  0
 18 50  1  0  0  0  0
 19 21  1  0  0  0  0
 19 51  1  0  0  0  0
 19 52  1  0  0  0  0
 20 53  1  0  0  0  0
 20 54  1  0  0  0  0
 21 55  1  0  0  0  0
 21 56  1  0  0  0  0
 22 57  1  0  0  0  0
 22 58  1  0  0  0  0
 23 59  1  0  0  0  0
 23 60  1  0  0  0  0
 25 26  1  0  0  0  0
 26 27  2  0  0  0  0
 27 28  1  0  0  0  0
 29 63  1  0  0  0  0
 30 31  1  0  0  0  0
 30 32  2  0  0  0  0
 31 33  2  0  0  0  0
 32 34  1  0  0  0  0
 32 65  1  0  0  0  0
 33 35  1  0  0  0  0
 33 66  1  0  0  0  0
 34 35  2  0  0  0  0
 34 67  1  0  0  0  0
 35 68  1  0  0  0  0
 36 69  1  0  0  0  0
 36 70  1  0  0  0  0
 36 71  1  0  0  0  0
M  END
> <PUBCHEM_COMPOUND_CID>
66552478

> <PUBCHEM_CONFORMER_RMSD>
1.2

> <PUBCHEM_CONFORMER_DIVERSEORDER>
1
16
2
10
25
24
18
20
9
12
23
15
17
7
13
21
8
19
5
6
22
3
14
4
11

> <PUBCHEM_MMFF94_PARTIAL_CHARGES>
47
1 -0.33
10 -0.6
11 -0.19
12 -0.2
13 -0.2
14 0.27
15 0.46
18 0.27
19 0.27
2 -0.81
20 0.37
21 0.37
22 0.27
23 0.27
24 0.72
25 0.41
26 0.31
27 0.31
28 0.41
29 0.47
3 -0.84
30 0.1
31 0.1
32 -0.15
33 -0.15
34 -0.15
35 -0.15
36 0.23
37 0.1
38 0.1
39 0.1
4 -0.9
40 0.1
41 0.1
5 -0.87
6 -0.62
61 0.36
62 0.4
63 0.15
64 0.4
65 0.15
66 0.15
67 0.15
68 0.15
7 -0.62
8 -0.62
9 -0.62

> <PUBCHEM_EFFECTIVE_ROTOR_COUNT>
11

> <PUBCHEM_PHARMACOPHORE_FEATURES>
14
1 10 donor
1 2 cation
1 36 hydrophobe
1 4 cation
1 4 donor
1 5 donor
3 5 8 25 cation
3 8 9 29 cation
4 3 6 7 24 cation
6 2 3 18 19 20 21 rings
6 30 31 32 33 34 35 rings
6 4 14 16 17 22 23 rings
6 6 7 24 26 27 28 rings
6 8 9 25 26 27 29 rings

> <PUBCHEM_HEAVY_ATOM_COUNT>
36

> <PUBCHEM_ATOM_DEF_STEREO_COUNT>
0

> <PUBCHEM_ATOM_UDEF_STEREO_COUNT>
0

> <PUBCHEM_BOND_DEF_STEREO_COUNT>
0

> <PUBCHEM_BOND_UDEF_STEREO_COUNT>
0

> <PUBCHEM_ISOTOPIC_ATOM_COUNT>
0

> <PUBCHEM_COMPONENT_COUNT>
1

> <PUBCHEM_CACTVS_TAUTO_COUNT>
9

> <PUBCHEM_CONFORMER_ID>
03F7829E00000001

> <PUBCHEM_MMFF94_ENERGY>
118.4647

> <PUBCHEM_FEATURE_SELFOVERLAP>
71.229

> <PUBCHEM_SHAPE_FINGERPRINT>
10010297 198 17691411132695516891
102385 1 18050000288986407933
10290309 65 17692813687940578888
10319688 45 18410851053745320012
10411042 1 18195525016081833047
10940486 97 18336552629646259396
11049842 53 17399267164721015308
11297010 23 16611373521651813036
11763715 3 18264224667290584028
12106331 60 18335133233208000866
12758862 11 18200868471252471688
13757389 114 18338804390641838380
14790565 3 17762055437104944530
14844126 61 18411138056545777779
15042514 8 18411420626823050955
15400415 2 17836082270039475440
15439362 3 16681473985166774796
15773216 30 17257925421701678655
16087824 20 18339358575389707165
21133410 171 17402550564045866998
21796203 349 17831893460838448563
21987440 362 17616256880032307302
22311459 1 18338515219115361904
23569943 247 13613693835705001612
3418910 222 18337116791208225640
4073 2 18411138005528312018
4144715 1 18267310825153090458
513202 73 18340209690703376651
5265222 85 17980760437563161970
550186 72 18339639040511039684
563151 97 17762045546017626821
6673363 416 18265909119974982828
6700243 42 17913526586142180732

> <PUBCHEM_SHAPE_MULTIPOLES>
699.88
15.09
12.08
1.29
34.62
26.51
0.24
-25.5
3.19
-9.65
-2.49
-2.07
-2.1
-0.03

> <PUBCHEM_SHAPE_SELFOVERLAP>
1488

> <PUBCHEM_SHAPE_VOLUME>
390.9

> <PUBCHEM_COORDINATE_TYPE>
2
5
10

$$$$
