49830628
  -OEChem-10062121543D

 50 53  0     0  0  0  0  0  0999 V2000
    9.9189    1.0677   -0.0152 Br  0  0  0  0  0  0  0  0  0  0  0  0
    2.0522   -2.0676    1.0627 S   0  0  0  0  0  0  0  0  0  0  0  0
   -3.1015   -2.3146    0.8026 O   0  0  0  0  0  0  0  0  0  0  0  0
   -7.7276    0.8119   -0.0323 N   0  0  0  0  0  0  0  0  0  0  0  0
   -4.1185   -1.4710   -1.1095 N   0  0  0  0  0  0  0  0  0  0  0  0
    1.5661    1.8243   -1.1006 N   0  0  0  0  0  0  0  0  0  0  0  0
    3.9138    2.0924   -1.0565 N   0  0  0  0  0  0  0  0  0  0  0  0
   -9.6831    1.6900    0.5476 N   0  0  0  0  0  0  0  0  0  0  0  0
   -6.3920   -1.3150   -0.1589 C   0  0  0  0  0  0  0  0  0  0  0  0
   -6.7079    0.0299   -0.8213 C   0  0  0  0  0  0  0  0  0  0  0  0
    2.8851    0.1086   -0.0574 C   0  0  0  0  0  0  0  0  0  0  0  0
    4.0429   -0.5925    0.4192 C   0  0  0  0  0  0  0  0  0  0  0  0
    1.7131   -0.5958    0.2321 C   0  0  0  0  0  0  0  0  0  0  0  0
   -5.3914   -2.1403   -0.9613 C   0  0  0  0  0  0  0  0  0  0  0  0
    0.4571   -0.1013   -0.1394 C   0  0  0  0  0  0  0  0  0  0  0  0
    5.4275   -0.2022    0.3171 C   0  0  0  0  0  0  0  0  0  0  0  0
    2.7712    1.3330   -0.7350 C   0  0  0  0  0  0  0  0  0  0  0  0
    3.7321   -1.7784    1.0412 C   0  0  0  0  0  0  0  0  0  0  0  0
    0.4611    1.1135   -0.8020 C   0  0  0  0  0  0  0  0  0  0  0  0
   -0.7599   -0.8300    0.1538 C   0  0  0  0  0  0  0  0  0  0  0  0
   -7.4953    1.5180    1.1142 C   0  0  0  0  0  0  0  0  0  0  0  0
   -3.0786   -1.6188   -0.2074 C   0  0  0  0  0  0  0  0  0  0  0  0
   -9.0545    0.9444   -0.3337 C   0  0  0  0  0  0  0  0  0  0  0  0
    6.1820   -0.5903   -0.7901 C   0  0  0  0  0  0  0  0  0  0  0  0
    6.0119    0.5649    1.3250 C   0  0  0  0  0  0  0  0  0  0  0  0
   -1.8846   -0.8186   -0.6029 C   0  0  0  0  0  0  0  0  0  0  0  0
   -8.7168    2.0509    1.4529 C   0  0  0  0  0  0  0  0  0  0  0  0
    7.5208   -0.2117   -0.8893 C   0  0  0  0  0  0  0  0  0  0  0  0
    7.3507    0.9435    1.2259 C   0  0  0  0  0  0  0  0  0  0  0  0
    8.1052    0.5552    0.1188 C   0  0  0  0  0  0  0  0  0  0  0  0
   -7.3182   -1.8910   -0.0420 H   0  0  0  0  0  0  0  0  0  0  0  0
   -6.0020   -1.1421    0.8520 H   0  0  0  0  0  0  0  0  0  0  0  0
   -5.8310    0.6833   -0.8829 H   0  0  0  0  0  0  0  0  0  0  0  0
   -7.1327   -0.0980   -1.8228 H   0  0  0  0  0  0  0  0  0  0  0  0
   -5.2308   -3.1054   -0.4687 H   0  0  0  0  0  0  0  0  0  0  0  0
   -5.7757   -2.3348   -1.9682 H   0  0  0  0  0  0  0  0  0  0  0  0
    4.4056   -2.4977    1.4881 H   0  0  0  0  0  0  0  0  0  0  0  0
   -4.0040   -0.8655   -1.9173 H   0  0  0  0  0  0  0  0  0  0  0  0
   -0.4601    1.5910   -1.1243 H   0  0  0  0  0  0  0  0  0  0  0  0
   -0.7529   -1.4264    1.0625 H   0  0  0  0  0  0  0  0  0  0  0  0
   -6.5182    1.5780    1.5726 H   0  0  0  0  0  0  0  0  0  0  0  0
   -9.5035    0.4781   -1.2000 H   0  0  0  0  0  0  0  0  0  0  0  0
    5.7413   -1.1871   -1.5853 H   0  0  0  0  0  0  0  0  0  0  0  0
    5.4373    0.8770    2.1939 H   0  0  0  0  0  0  0  0  0  0  0  0
   -1.9398   -0.2458   -1.5231 H   0  0  0  0  0  0  0  0  0  0  0  0
   -8.9494    2.6759    2.3027 H   0  0  0  0  0  0  0  0  0  0  0  0
    3.7761    2.9677   -1.5452 H   0  0  0  0  0  0  0  0  0  0  0  0
    4.8501    1.8079   -0.8253 H   0  0  0  0  0  0  0  0  0  0  0  0
    8.0947   -0.5222   -1.7587 H   0  0  0  0  0  0  0  0  0  0  0  0
    7.7907    1.5415    2.0198 H   0  0  0  0  0  0  0  0  0  0  0  0
  1 30  1  0  0  0  0
  2 13  1  0  0  0  0
  2 18  1  0  0  0  0
  3 22  2  0  0  0  0
  4 10  1  0  0  0  0
  4 21  1  0  0  0  0
  4 23  1  0  0  0  0
  5 14  1  0  0  0  0
  5 22  1  0  0  0  0
  5 38  1  0  0  0  0
  6 17  2  0  0  0  0
  6 19  1  0  0  0  0
  7 17  1  0  0  0  0
  7 47  1  0  0  0  0
  7 48  1  0  0  0  0
  8 23  2  0  0  0  0
  8 27  1  0  0  0  0
  9 10  1  0  0  0  0
  9 14  1  0  0  0  0
  9 31  1  0  0  0  0
  9 32  1  0  0  0  0
 10 33  1  0  0  0  0
 10 34  1  0  0  0  0
 11 12  1  0  0  0  0
 11 13  2  0  0  0  0
 11 17  1  0  0  0  0
 12 16  1  0  0  0  0
 12 18  2  0  0  0  0
 13 15  1  0  0  0  0
 14 35  1  0  0  0  0
 14 36  1  0  0  0  0
 15 19  2  0  0  0  0
 15 20  1  0  0  0  0
 16 24  2  0  0  0  0
 16 25  1  0  0  0  0
 18 37  1  0  0  0  0
 19 39  1  0  0  0  0
 20 26  2  3  0  0  0
 20 40  1  0  0  0  0
 21 27  2  0  0  0  0
 21 41  1  0  0  0  0
 22 26  1  0  0  0  0
 23 42  1  0  0  0  0
 24 28  1  0  0  0  0
 24 43  1  0  0  0  0
 25 29  2  0  0  0  0
 25 44  1  0  0  0  0
 26 45  1  0  0  0  0
 27 46  1  0  0  0  0
 28 30  2  0  0  0  0
 28 49  1  0  0  0  0
 29 30  1  0  0  0  0
 29 50  1  0  0  0  0
M  END
> <PUBCHEM_COMPOUND_CID>
49830628

> <PUBCHEM_CONFORMER_RMSD>
1

> <PUBCHEM_CONFORMER_DIVERSEORDER>
1
28
21
15
39
25
45
23
29
33
5
31
36
51
30
18
47
57
46
48
19
2
22
20
32
37
17
3
42
27
11
9
50
43
54
16
14
41
8
13
40
34
12
10
38
52
6
26
4
35
55
53
49
24
56
44
7

> <PUBCHEM_MMFF94_PARTIAL_CHARGES>
42
1 -0.11
10 0.26
12 -0.05
13 0.04
14 0.3
15 0.03
16 0.05
17 0.41
18 -0.11
19 0.16
2 -0.08
20 -0.18
21 -0.3
22 0.62
23 0.04
24 -0.15
25 -0.15
26 -0.14
27 0.08
28 -0.15
29 -0.15
3 -0.57
30 0.11
37 0.15
38 0.37
39 0.15
4 0.05
40 0.15
41 0.15
42 0.15
43 0.15
44 0.15
45 0.15
46 0.15
47 0.4
48 0.4
49 0.15
5 -0.73
50 0.15
6 -0.62
7 -0.9
8 -0.57

> <PUBCHEM_EFFECTIVE_ROTOR_COUNT>
8

> <PUBCHEM_PHARMACOPHORE_FEATURES>
10
1 1 hydrophobe
1 3 acceptor
1 5 donor
1 7 donor
3 4 8 23 cation
3 6 7 17 cation
5 2 11 12 13 18 rings
5 4 8 21 23 27 rings
6 16 24 25 28 29 30 rings
6 6 11 13 15 17 19 rings

> <PUBCHEM_HEAVY_ATOM_COUNT>
30

> <PUBCHEM_ATOM_DEF_STEREO_COUNT>
0

> <PUBCHEM_ATOM_UDEF_STEREO_COUNT>
0

> <PUBCHEM_BOND_DEF_STEREO_COUNT>
0

> <PUBCHEM_BOND_UDEF_STEREO_COUNT>
1

> <PUBCHEM_ISOTOPIC_ATOM_COUNT>
0

> <PUBCHEM_COMPONENT_COUNT>
1

> <PUBCHEM_CACTVS_TAUTO_COUNT>
7

> <PUBCHEM_CONFORMER_ID>
02F85AE400000001

> <PUBCHEM_MMFF94_ENERGY>
68.2502

> <PUBCHEM_FEATURE_SELFOVERLAP>
50.811

> <PUBCHEM_SHAPE_FINGERPRINT>
10580692 12 18411699889949509711
11181472 205 17489315126889434715
11409948 35 17417539000045703830
14040222 383 17749670813224673371
14294032 229 18199755739531385177
15131766 46 16125814245346858776
15183329 4 18260540139601753167
15461852 350 16773789325806665543
15604295 49 18059565948977872105
1577012 14 18411410697112201507
16087824 20 18334011674874219141
18335252 98 13190337959016423232
18608769 82 13840269195638706377
195137 175 18343865515741842355
21298829 104 18412261736038521339
22149856 69 18334571318435720826
23569917 315 8069755121694390224
3178227 256 16660364779024849146
335352 9 18041554858225911422
3633792 109 17846502521517789086
3711267 37 18260835878070382805
4149490 64 13768192884392259504
4339292 15 13118283711881612963
45266715 3 14333132961895516117
474113 269 15625950764238574774
5028188 123 18129943507371932270
5758199 1 18260264148755187891
5969126 39 11815900038292665051

> <PUBCHEM_SHAPE_MULTIPOLES>
596.4
33.44
2.23
1.21
35.1
0.25
0.15
-18.12
4.33
3.11
0.24
0.02
-0.14
-2.28

> <PUBCHEM_SHAPE_SELFOVERLAP>
1268.859

> <PUBCHEM_SHAPE_VOLUME>
338.8

> <PUBCHEM_COORDINATE_TYPE>
2
5
10

$$$$
