24905223
  -OEChem-10052115143D

 37 40  0     0  0  0  0  0  0999 V2000
   -2.4067    1.0264   -0.0420 N   0  0  0  0  0  0  0  0  0  0  0  0
   -1.1218    1.4016    0.1002 N   0  0  0  0  0  0  0  0  0  0  0  0
   -3.7370   -0.9880   -0.2289 N   0  0  0  0  0  0  0  0  0  0  0  0
   -2.3533   -2.9947   -0.1344 N   0  0  0  0  0  0  0  0  0  0  0  0
    5.0643    0.2346    0.4217 N   0  0  0  0  0  0  0  0  0  0  0  0
    0.0193   -2.9150    0.1143 N   0  0  0  0  0  0  0  0  0  0  0  0
    5.4552    0.2669   -0.8633 N   0  0  0  0  0  0  0  0  0  0  0  0
   -3.4375    2.0339   -0.1241 C   0  0  0  0  0  0  0  0  0  0  0  0
   -1.3129   -0.8747    0.0248 C   0  0  0  0  0  0  0  0  0  0  0  0
   -0.4607    0.2394    0.1403 C   0  0  0  0  0  0  0  0  0  0  0  0
   -2.5775   -0.3252   -0.0927 C   0  0  0  0  0  0  0  0  0  0  0  0
    0.9687    0.2357    0.2880 C   0  0  0  0  0  0  0  0  0  0  0  0
   -3.2518    2.9307   -1.3506 C   0  0  0  0  0  0  0  0  0  0  0  0
   -3.5110    2.8697    1.1562 C   0  0  0  0  0  0  0  0  0  0  0  0
   -1.2216   -2.2624    0.0005 C   0  0  0  0  0  0  0  0  0  0  0  0
    1.7783    0.2644   -0.8545 C   0  0  0  0  0  0  0  0  0  0  0  0
    3.1733    0.2611   -0.6885 C   0  0  0  0  0  0  0  0  0  0  0  0
    1.5305    0.2043    1.5656 C   0  0  0  0  0  0  0  0  0  0  0  0
    3.7065    0.2295    0.5952 C   0  0  0  0  0  0  0  0  0  0  0  0
    2.9174    0.2006    1.7471 C   0  0  0  0  0  0  0  0  0  0  0  0
   -3.5239   -2.3216   -0.2393 C   0  0  0  0  0  0  0  0  0  0  0  0
    4.3021    0.2827   -1.5356 C   0  0  0  0  0  0  0  0  0  0  0  0
   -4.3959    1.5125   -0.2359 H   0  0  0  0  0  0  0  0  0  0  0  0
   -3.2075    2.3326   -2.2676 H   0  0  0  0  0  0  0  0  0  0  0  0
   -2.3268    3.5146   -1.2895 H   0  0  0  0  0  0  0  0  0  0  0  0
   -4.0868    3.6328   -1.4459 H   0  0  0  0  0  0  0  0  0  0  0  0
   -2.5959    3.4513    1.3137 H   0  0  0  0  0  0  0  0  0  0  0  0
   -3.6522    2.2279    2.0329 H   0  0  0  0  0  0  0  0  0  0  0  0
   -4.3514    3.5706    1.1123 H   0  0  0  0  0  0  0  0  0  0  0  0
    1.3460    0.2885   -1.8512 H   0  0  0  0  0  0  0  0  0  0  0  0
    0.8931    0.1816    2.4479 H   0  0  0  0  0  0  0  0  0  0  0  0
    3.3556    0.1761    2.7386 H   0  0  0  0  0  0  0  0  0  0  0  0
   -4.4099   -2.9382   -0.3461 H   0  0  0  0  0  0  0  0  0  0  0  0
    4.3305    0.3096   -2.6158 H   0  0  0  0  0  0  0  0  0  0  0  0
    5.7791    0.2173    1.1383 H   0  0  0  0  0  0  0  0  0  0  0  0
    0.8792   -2.3961    0.2155 H   0  0  0  0  0  0  0  0  0  0  0  0
    0.0408   -3.9258    0.0918 H   0  0  0  0  0  0  0  0  0  0  0  0
  1  2  1  0  0  0  0
  1  8  1  0  0  0  0
  1 11  1  0  0  0  0
  2 10  2  0  0  0  0
  3 11  2  0  0  0  0
  3 21  1  0  0  0  0
  4 15  1  0  0  0  0
  4 21  2  0  0  0  0
  5  7  1  0  0  0  0
  5 19  1  0  0  0  0
  5 35  1  0  0  0  0
  6 15  1  0  0  0  0
  6 36  1  0  0  0  0
  6 37  1  0  0  0  0
  7 22  2  0  0  0  0
  8 13  1  0  0  0  0
  8 14  1  0  0  0  0
  8 23  1  0  0  0  0
  9 10  1  0  0  0  0
  9 11  1  0  0  0  0
  9 15  2  0  0  0  0
 10 12  1  0  0  0  0
 12 16  2  0  0  0  0
 12 18  1  0  0  0  0
 13 24  1  0  0  0  0
 13 25  1  0  0  0  0
 13 26  1  0  0  0  0
 14 27  1  0  0  0  0
 14 28  1  0  0  0  0
 14 29  1  0  0  0  0
 16 17  1  0  0  0  0
 16 30  1  0  0  0  0
 17 19  2  0  0  0  0
 17 22  1  0  0  0  0
 18 20  2  0  0  0  0
 18 31  1  0  0  0  0
 19 20  1  0  0  0  0
 20 32  1  0  0  0  0
 21 33  1  0  0  0  0
 22 34  1  0  0  0  0
M  END
> <PUBCHEM_COMPOUND_CID>
24905223

> <PUBCHEM_CONFORMER_RMSD>
0.6

> <PUBCHEM_CONFORMER_DIVERSEORDER>
2
3
6
4
5
1

> <PUBCHEM_MMFF94_PARTIAL_CHARGES>
26
1 0.31
10 0.23
11 0.11
12 0.05
15 0.41
16 -0.15
18 -0.15
19 -0.15
2 -0.71
20 -0.15
21 0.47
22 0.14
3 -0.57
30 0.15
31 0.15
32 0.15
33 0.15
34 0.15
35 0.27
36 0.4
37 0.4
4 -0.62
5 0.3
6 -0.9
7 -0.71
8 0.26

> <PUBCHEM_EFFECTIVE_ROTOR_COUNT>
2

> <PUBCHEM_PHARMACOPHORE_FEATURES>
12
1 2 acceptor
1 5 donor
1 6 cation
1 6 donor
1 7 acceptor
3 1 3 11 cation
3 3 4 21 cation
3 8 13 14 hydrophobe
5 1 2 9 10 11 rings
5 5 7 17 19 22 rings
6 12 16 17 18 19 20 rings
6 3 4 9 11 15 21 rings

> <PUBCHEM_HEAVY_ATOM_COUNT>
22

> <PUBCHEM_ATOM_DEF_STEREO_COUNT>
0

> <PUBCHEM_ATOM_UDEF_STEREO_COUNT>
0

> <PUBCHEM_BOND_DEF_STEREO_COUNT>
0

> <PUBCHEM_BOND_UDEF_STEREO_COUNT>
0

> <PUBCHEM_ISOTOPIC_ATOM_COUNT>
0

> <PUBCHEM_COMPONENT_COUNT>
1

> <PUBCHEM_CACTVS_TAUTO_COUNT>
14

> <PUBCHEM_CONFORMER_ID>
017C060700000002

> <PUBCHEM_MMFF94_ENERGY>
46.1624

> <PUBCHEM_FEATURE_SELFOVERLAP>
61.266

> <PUBCHEM_SHAPE_FINGERPRINT>
10165383 225 18269285560405007305
10319926 262 18198600256142138792
105312 117 18264202522170284493
11796584 16 18271530785119485174
12236239 1 17676482873903581282
12390115 104 18200606778652734225
12403259 415 17917711327149464880
12500047 106 18412822461029707956
12553582 1 18191862538501756235
12714826 92 18271529796274310395
12788726 201 18260823851961234123
13140716 1 18122627412619137523
14251751 93 18411139134202215126
14294032 229 18335700474181709109
14386348 63 17632021948208068238
14508225 48 18195797686628087061
14790565 3 17910686358065331105
15042514 8 18265621068649116875
15842332 3 17749654230270767498
15961568 22 17975686509567308964
16752209 62 18337379526366495387
16945 1 18338790208791500507
17804303 29 18270682103011359075
18186145 218 17917992763149638680
20510252 161 18271520996271404041
20645477 56 18411986832108591905
20645477 70 16486979484001810316
20871999 31 18412549833701600796
21033648 29 17274812563320830176
21065201 7 18413103979156714234
21618674 53 17967542259129848256
22907989 373 18188473757812564845
23175994 123 17060348447845934424
23366157 5 17825944823764574011
23402539 116 18340199795345886783
23493267 7 18271806791742465248
23557571 272 18272085054527192024
23559900 14 18201723895593685718
23598291 2 17676756592253764722
2748010 2 18194406589723391031
283562 15 18411697725370654827
458136 41 17980487763333481345
559249 180 18336262337233811570
573450 72 18333722520975647794
57527295 17 17131265732161300741
59755656 215 18273215283797849287
59755656 520 17701840807733304001
602551 16 18340766031144364082
6049 1 17916863646354645360
77492 1 17676479566826145378
7808743 9 18336830801308263780
81228 2 18338514265732407513
9709674 26 18272660051716166142
9862522 239 17895748470636693437

> <PUBCHEM_SHAPE_MULTIPOLES>
417.88
9.29
3.01
1.26
8.71
0.81
-0.16
-3.02
1.57
-5.68
0.22
0.97
-0.56
-0.17

> <PUBCHEM_SHAPE_SELFOVERLAP>
938.592

> <PUBCHEM_SHAPE_VOLUME>
220.9

> <PUBCHEM_COORDINATE_TYPE>
2
5
10

$$$$
