16118737
  -OEChem-10062121573D

 73 77  0     0  0  0  0  0  0999 V2000
    6.5013   -4.1986   -0.0245 F   0  0  0  0  0  0  0  0  0  0  0  0
    8.4872   -4.9280   -0.5025 F   0  0  0  0  0  0  0  0  0  0  0  0
    7.3024   -3.9294   -2.0282 F   0  0  0  0  0  0  0  0  0  0  0  0
    0.3514    2.2756   -1.3018 O   0  0  0  0  0  0  0  0  0  0  0  0
    7.8116    2.1309   -0.4436 O   0  0  0  0  0  0  0  0  0  0  0  0
   -9.1310   -0.7493   -0.4119 N   0  0  0  0  0  0  0  0  0  0  0  0
  -11.5548   -1.1461   -1.8702 N   0  0  0  0  0  0  0  0  0  0  0  0
   -4.2475   -0.4464    2.3108 N   0  0  0  0  0  0  0  0  0  0  0  0
   -2.8738    0.5733    0.7094 N   0  0  0  0  0  0  0  0  0  0  0  0
   -2.0098   -0.0379    2.8744 N   0  0  0  0  0  0  0  0  0  0  0  0
    0.6792    1.5015    0.8951 N   0  0  0  0  0  0  0  0  0  0  0  0
    5.8158    0.9102   -0.2093 N   0  0  0  0  0  0  0  0  0  0  0  0
   -9.0980   -0.8749   -1.8745 C   0  0  0  0  0  0  0  0  0  0  0  0
  -10.2971   -1.3424    0.2496 C   0  0  0  0  0  0  0  0  0  0  0  0
  -10.4297   -0.4279   -2.4818 C   0  0  0  0  0  0  0  0  0  0  0  0
  -11.5907   -0.8814   -0.4268 C   0  0  0  0  0  0  0  0  0  0  0  0
   -7.9110   -0.6730    0.2692 C   0  0  0  0  0  0  0  0  0  0  0  0
  -12.8163   -0.7510   -2.4958 C   0  0  0  0  0  0  0  0  0  0  0  0
   -7.0190    0.3621   -0.0115 C   0  0  0  0  0  0  0  0  0  0  0  0
   -7.5862   -1.6329    1.2278 C   0  0  0  0  0  0  0  0  0  0  0  0
   -5.8024    0.4375    0.6665 C   0  0  0  0  0  0  0  0  0  0  0  0
   -6.3695   -1.5574    1.9057 C   0  0  0  0  0  0  0  0  0  0  0  0
   -5.4776   -0.5224    1.6251 C   0  0  0  0  0  0  0  0  0  0  0  0
   -2.9822    0.0543    1.9473 C   0  0  0  0  0  0  0  0  0  0  0  0
    2.4897    2.4973   -0.4132 C   0  0  0  0  0  0  0  0  0  0  0  0
    2.8458    3.8272   -0.6380 C   0  0  0  0  0  0  0  0  0  0  0  0
    4.8253    1.8823   -0.3528 C   0  0  0  0  0  0  0  0  0  0  0  0
    3.4795    1.5250   -0.2707 C   0  0  0  0  0  0  0  0  0  0  0  0
   -0.5696    1.0072    1.2537 C   0  0  0  0  0  0  0  0  0  0  0  0
    4.1915    4.1846   -0.7202 C   0  0  0  0  0  0  0  0  0  0  0  0
    1.0633    2.0897   -0.3208 C   0  0  0  0  0  0  0  0  0  0  0  0
    5.1813    3.2121   -0.5775 C   0  0  0  0  0  0  0  0  0  0  0  0
   -1.6487    1.0424    0.3943 C   0  0  0  0  0  0  0  0  0  0  0  0
   -0.8112    0.4501    2.4928 C   0  0  0  0  0  0  0  0  0  0  0  0
    1.8052    4.8879   -0.7952 C   0  0  0  0  0  0  0  0  0  0  0  0
    8.0062   -0.1613   -0.0989 C   0  0  0  0  0  0  0  0  0  0  0  0
    7.2056    1.0806   -0.2606 C   0  0  0  0  0  0  0  0  0  0  0  0
    7.4655   -1.3935   -0.4665 C   0  0  0  0  0  0  0  0  0  0  0  0
    8.2177   -2.5582   -0.3148 C   0  0  0  0  0  0  0  0  0  0  0  0
    9.2990   -0.0940    0.4204 C   0  0  0  0  0  0  0  0  0  0  0  0
    9.5106   -2.4908    0.2045 C   0  0  0  0  0  0  0  0  0  0  0  0
   10.0513   -1.2587    0.5722 C   0  0  0  0  0  0  0  0  0  0  0  0
    7.6399   -3.8763   -0.7069 C   0  0  0  0  0  0  0  0  0  0  0  0
   -8.8930   -1.9197   -2.1416 H   0  0  0  0  0  0  0  0  0  0  0  0
   -8.3009   -0.2667   -2.3175 H   0  0  0  0  0  0  0  0  0  0  0  0
  -10.3402   -1.0421    1.3040 H   0  0  0  0  0  0  0  0  0  0  0  0
  -10.2325   -2.4374    0.2101 H   0  0  0  0  0  0  0  0  0  0  0  0
  -10.5459    0.6568   -2.3537 H   0  0  0  0  0  0  0  0  0  0  0  0
  -10.3990   -0.6280   -3.5598 H   0  0  0  0  0  0  0  0  0  0  0  0
  -12.4285   -1.4197    0.0330 H   0  0  0  0  0  0  0  0  0  0  0  0
  -11.7446    0.1888   -0.2329 H   0  0  0  0  0  0  0  0  0  0  0  0
  -13.6517   -1.3135   -2.0643 H   0  0  0  0  0  0  0  0  0  0  0  0
  -13.0224    0.3188   -2.3764 H   0  0  0  0  0  0  0  0  0  0  0  0
  -12.8028   -0.9821   -3.5668 H   0  0  0  0  0  0  0  0  0  0  0  0
   -7.2643    1.1326   -0.7381 H   0  0  0  0  0  0  0  0  0  0  0  0
   -8.2496   -2.4606    1.4615 H   0  0  0  0  0  0  0  0  0  0  0  0
   -5.1607    1.2850    0.4502 H   0  0  0  0  0  0  0  0  0  0  0  0
   -6.1261   -2.3137    2.6477 H   0  0  0  0  0  0  0  0  0  0  0  0
   -4.2306   -0.9434    3.1963 H   0  0  0  0  0  0  0  0  0  0  0  0
    3.2029    0.4865   -0.1005 H   0  0  0  0  0  0  0  0  0  0  0  0
    4.4846    5.2163   -0.8967 H   0  0  0  0  0  0  0  0  0  0  0  0
    6.1990    3.5677   -0.6541 H   0  0  0  0  0  0  0  0  0  0  0  0
   -1.6145    1.4480   -0.6072 H   0  0  0  0  0  0  0  0  0  0  0  0
   -0.0305    0.3739    3.2434 H   0  0  0  0  0  0  0  0  0  0  0  0
    1.3971    1.4230    1.6127 H   0  0  0  0  0  0  0  0  0  0  0  0
    5.4544   -0.0180   -0.0087 H   0  0  0  0  0  0  0  0  0  0  0  0
    2.2439    5.8912   -0.7554 H   0  0  0  0  0  0  0  0  0  0  0  0
    1.0667    4.8361    0.0117 H   0  0  0  0  0  0  0  0  0  0  0  0
    1.2989    4.7865   -1.7604 H   0  0  0  0  0  0  0  0  0  0  0  0
    6.4766   -1.4796   -0.9079 H   0  0  0  0  0  0  0  0  0  0  0  0
    9.7366    0.8554    0.7177 H   0  0  0  0  0  0  0  0  0  0  0  0
   10.1119   -3.3869    0.3306 H   0  0  0  0  0  0  0  0  0  0  0  0
   11.0574   -1.2065    0.9778 H   0  0  0  0  0  0  0  0  0  0  0  0
  1 43  1  0  0  0  0
  2 43  1  0  0  0  0
  3 43  1  0  0  0  0
  4 31  2  0  0  0  0
  5 37  2  0  0  0  0
  6 13  1  0  0  0  0
  6 14  1  0  0  0  0
  6 17  1  0  0  0  0
  7 15  1  0  0  0  0
  7 16  1  0  0  0  0
  7 18  1  0  0  0  0
  8 23  1  0  0  0  0
  8 24  1  0  0  0  0
  8 59  1  0  0  0  0
  9 24  2  0  0  0  0
  9 33  1  0  0  0  0
 10 24  1  0  0  0  0
 10 34  2  0  0  0  0
 11 29  1  0  0  0  0
 11 31  1  0  0  0  0
 11 65  1  0  0  0  0
 12 27  1  0  0  0  0
 12 37  1  0  0  0  0
 12 66  1  0  0  0  0
 13 15  1  0  0  0  0
 13 44  1  0  0  0  0
 13 45  1  0  0  0  0
 14 16  1  0  0  0  0
 14 46  1  0  0  0  0
 14 47  1  0  0  0  0
 15 48  1  0  0  0  0
 15 49  1  0  0  0  0
 16 50  1  0  0  0  0
 16 51  1  0  0  0  0
 17 19  2  0  0  0  0
 17 20  1  0  0  0  0
 18 52  1  0  0  0  0
 18 53  1  0  0  0  0
 18 54  1  0  0  0  0
 19 21  1  0  0  0  0
 19 55  1  0  0  0  0
 20 22  2  0  0  0  0
 20 56  1  0  0  0  0
 21 23  2  0  0  0  0
 21 57  1  0  0  0  0
 22 23  1  0  0  0  0
 22 58  1  0  0  0  0
 25 26  2  0  0  0  0
 25 28  1  0  0  0  0
 25 31  1  0  0  0  0
 26 30  1  0  0  0  0
 26 35  1  0  0  0  0
 27 28  2  0  0  0  0
 27 32  1  0  0  0  0
 28 60  1  0  0  0  0
 29 33  2  0  0  0  0
 29 34  1  0  0  0  0
 30 32  2  0  0  0  0
 30 61  1  0  0  0  0
 32 62  1  0  0  0  0
 33 63  1  0  0  0  0
 34 64  1  0  0  0  0
 35 67  1  0  0  0  0
 35 68  1  0  0  0  0
 35 69  1  0  0  0  0
 36 37  1  0  0  0  0
 36 38  2  0  0  0  0
 36 40  1  0  0  0  0
 38 39  1  0  0  0  0
 38 70  1  0  0  0  0
 39 41  2  0  0  0  0
 39 43  1  0  0  0  0
 40 42  2  0  0  0  0
 40 71  1  0  0  0  0
 41 42  1  0  0  0  0
 41 72  1  0  0  0  0
 42 73  1  0  0  0  0
M  END
> <PUBCHEM_COMPOUND_CID>
16118737

> <PUBCHEM_CONFORMER_RMSD>
1.2

> <PUBCHEM_CONFORMER_DIVERSEORDER>
1
21
38
36
34
12
30
33
25
17
26
35
27
5
7
16
14
19
15
29
22
13
28
24
23
37
18
40
4
9
6
31
8
11
20
2
10
32
39
3

> <PUBCHEM_MMFF94_PARTIAL_CHARGES>
59
1 -0.34
10 -0.62
11 -0.55
12 -0.55
13 0.37
14 0.37
15 0.27
16 0.27
17 0.1
18 0.27
19 -0.15
2 -0.34
20 -0.15
21 -0.15
22 -0.15
23 0.1
24 0.72
25 0.09
26 -0.14
27 0.12
28 -0.15
29 0.12
3 -0.34
30 -0.15
31 0.54
32 -0.15
33 0.16
34 0.16
35 0.14
36 0.09
37 0.54
38 -0.15
39 -0.14
4 -0.57
40 -0.15
41 -0.15
42 -0.15
43 1.16
5 -0.57
55 0.15
56 0.15
57 0.15
58 0.15
59 0.4
6 -0.84
60 0.15
61 0.15
62 0.15
63 0.15
64 0.15
65 0.37
66 0.37
7 -0.81
70 0.15
71 0.15
72 0.15
73 0.15
8 -0.6
9 -0.62

> <PUBCHEM_EFFECTIVE_ROTOR_COUNT>
11.2

> <PUBCHEM_PHARMACOPHORE_FEATURES>
14
1 10 acceptor
1 11 donor
1 12 donor
1 4 acceptor
1 5 acceptor
1 6 cation
1 7 cation
1 8 donor
4 8 9 10 24 cation
6 17 19 20 21 22 23 rings
6 25 26 27 28 30 32 rings
6 36 38 39 40 41 42 rings
6 6 7 13 14 15 16 rings
6 9 10 24 29 33 34 rings

> <PUBCHEM_HEAVY_ATOM_COUNT>
43

> <PUBCHEM_ATOM_DEF_STEREO_COUNT>
0

> <PUBCHEM_ATOM_UDEF_STEREO_COUNT>
0

> <PUBCHEM_BOND_DEF_STEREO_COUNT>
0

> <PUBCHEM_BOND_UDEF_STEREO_COUNT>
0

> <PUBCHEM_ISOTOPIC_ATOM_COUNT>
0

> <PUBCHEM_COMPONENT_COUNT>
1

> <PUBCHEM_CACTVS_TAUTO_COUNT>
8

> <PUBCHEM_CONFORMER_ID>
00F5F3D100000001

> <PUBCHEM_MMFF94_ENERGY>
151.006

> <PUBCHEM_FEATURE_SELFOVERLAP>
71.051

> <PUBCHEM_SHAPE_FINGERPRINT>
11408170 108 18412269419545103555
11409948 41 18413107243110637738
11409948 8 12895353313559165105
11672396 167 18410293601455539093
117089 54 18263657169725944296
11966995 16 17748828497666587186
12013929 112 17095521799523457531
12133447 93 16515674542969550541
12173638 130 18413109467962499391
13150687 139 17968094266149892123
14617042 71 9151174250916134770
14919807 6 17167858682172817753
15152005 77 18270966735443589062
15392192 104 16558757811156655508
16992610 120 15357695297627765401
19301679 30 18339368462341521724
21133410 58 18260552277459004122
212700 22 18409168813903346898
21895431 317 18131352985808733342
23524908 199 18334292093663469021
24204213 265 18410011057185192880
3991529 128 13045940184754107479
4173938 188 12823299018525580637
44426701 170 18334009455057330365
474113 269 18413393128971197760

> <PUBCHEM_SHAPE_MULTIPOLES>
816.49
49.03
5.02
2.06
78.4
0
0.36
44.7
-25.33
-19.99
-2.36
6.45
0.7
0.84

> <PUBCHEM_SHAPE_SELFOVERLAP>
1775.682

> <PUBCHEM_SHAPE_VOLUME>
444.6

> <PUBCHEM_COORDINATE_TYPE>
2
5
10

$$$$
