23532567
  -OEChem-10062121583D

 54 58  0     0  0  0  0  0  0999 V2000
   -2.2630   -2.1691   -2.7019 Cl  0  0  0  0  0  0  0  0  0  0  0  0
   -2.9063   -1.1760    2.6295 Cl  0  0  0  0  0  0  0  0  0  0  0  0
    3.4709    0.1787    2.1777 F   0  0  0  0  0  0  0  0  0  0  0  0
    7.3544   -0.4029   -0.4571 F   0  0  0  0  0  0  0  0  0  0  0  0
   -1.4787   -4.0967    0.6848 O   0  0  0  0  0  0  0  0  0  0  0  0
   -2.8102    5.0819    0.0123 N   0  0  0  0  0  0  0  0  0  0  0  0
   -1.2918   -1.8205    0.1476 N   0  0  0  0  0  0  0  0  0  0  0  0
    0.5946   -3.2032    0.5469 N   0  0  0  0  0  0  0  0  0  0  0  0
   -0.6047    3.1575   -0.0606 C   0  0  0  0  0  0  0  0  0  0  0  0
   -1.5104    3.4179   -1.2757 C   0  0  0  0  0  0  0  0  0  0  0  0
   -1.3571    3.4987    1.2364 C   0  0  0  0  0  0  0  0  0  0  0  0
   -0.0495    1.7462   -0.0491 C   0  0  0  0  0  0  0  0  0  0  0  0
   -2.0887    4.8327   -1.2359 C   0  0  0  0  0  0  0  0  0  0  0  0
   -1.9417    4.9100    1.1771 C   0  0  0  0  0  0  0  0  0  0  0  0
   -0.9208    0.6562    0.0379 C   0  0  0  0  0  0  0  0  0  0  0  0
   -0.4379   -0.6658    0.0353 C   0  0  0  0  0  0  0  0  0  0  0  0
    1.3219    1.5397   -0.1261 C   0  0  0  0  0  0  0  0  0  0  0  0
    0.9526   -0.8549    0.0006 C   0  0  0  0  0  0  0  0  0  0  0  0
    1.8224    0.2425   -0.0997 C   0  0  0  0  0  0  0  0  0  0  0  0
    1.5171   -2.2355    0.0044 C   0  0  0  0  0  0  0  0  0  0  0  0
    3.2619    0.0751   -0.1890 C   0  0  0  0  0  0  0  0  0  0  0  0
   -0.7839   -3.0968    0.4769 C   0  0  0  0  0  0  0  0  0  0  0  0
   -2.7034   -1.6595   -0.0528 C   0  0  0  0  0  0  0  0  0  0  0  0
    4.0384    0.0492    0.9695 C   0  0  0  0  0  0  0  0  0  0  0  0
    3.8677   -0.0606   -1.4380 C   0  0  0  0  0  0  0  0  0  0  0  0
   -3.2474   -1.8012   -1.3294 C   0  0  0  0  0  0  0  0  0  0  0  0
   -3.5317   -1.3617    1.0292 C   0  0  0  0  0  0  0  0  0  0  0  0
    5.4209   -0.1125    0.8789 C   0  0  0  0  0  0  0  0  0  0  0  0
    5.2503   -0.2222   -1.5286 C   0  0  0  0  0  0  0  0  0  0  0  0
    6.0268   -0.2481   -0.3701 C   0  0  0  0  0  0  0  0  0  0  0  0
   -4.6198   -1.6454   -1.5239 C   0  0  0  0  0  0  0  0  0  0  0  0
   -4.9042   -1.2059    0.8346 C   0  0  0  0  0  0  0  0  0  0  0  0
   -5.4483   -1.3477   -0.4418 C   0  0  0  0  0  0  0  0  0  0  0  0
    0.2408    3.8570   -0.1346 H   0  0  0  0  0  0  0  0  0  0  0  0
   -2.3377    2.6976   -1.3110 H   0  0  0  0  0  0  0  0  0  0  0  0
   -0.9410    3.2827   -2.2037 H   0  0  0  0  0  0  0  0  0  0  0  0
   -0.6786    3.4209    2.0950 H   0  0  0  0  0  0  0  0  0  0  0  0
   -2.1710    2.7850    1.4180 H   0  0  0  0  0  0  0  0  0  0  0  0
   -2.7772    4.9688   -2.0771 H   0  0  0  0  0  0  0  0  0  0  0  0
   -1.2912    5.5751   -1.3604 H   0  0  0  0  0  0  0  0  0  0  0  0
   -1.1380    5.6559    1.1565 H   0  0  0  0  0  0  0  0  0  0  0  0
   -2.5238    5.1020    2.0851 H   0  0  0  0  0  0  0  0  0  0  0  0
   -3.5879    4.4250    0.0807 H   0  0  0  0  0  0  0  0  0  0  0  0
   -1.9883    0.8481    0.0955 H   0  0  0  0  0  0  0  0  0  0  0  0
    1.9970    2.3894   -0.2012 H   0  0  0  0  0  0  0  0  0  0  0  0
    1.7529   -2.5495   -1.0181 H   0  0  0  0  0  0  0  0  0  0  0  0
    2.4160   -2.3177    0.6219 H   0  0  0  0  0  0  0  0  0  0  0  0
    0.9739   -4.1069    0.8131 H   0  0  0  0  0  0  0  0  0  0  0  0
    3.2771   -0.0434   -2.3510 H   0  0  0  0  0  0  0  0  0  0  0  0
    6.0254   -0.1327    1.7807 H   0  0  0  0  0  0  0  0  0  0  0  0
    5.7226   -0.3282   -2.5007 H   0  0  0  0  0  0  0  0  0  0  0  0
   -5.0601   -1.7523   -2.5121 H   0  0  0  0  0  0  0  0  0  0  0  0
   -5.5638   -0.9735    1.6669 H   0  0  0  0  0  0  0  0  0  0  0  0
   -6.5168   -1.2261   -0.5933 H   0  0  0  0  0  0  0  0  0  0  0  0
  1 26  1  0  0  0  0
  2 27  1  0  0  0  0
  3 24  1  0  0  0  0
  4 30  1  0  0  0  0
  5 22  2  0  0  0  0
  6 13  1  0  0  0  0
  6 14  1  0  0  0  0
  6 43  1  0  0  0  0
  7 16  1  0  0  0  0
  7 22  1  0  0  0  0
  7 23  1  0  0  0  0
  8 20  1  0  0  0  0
  8 22  1  0  0  0  0
  8 48  1  0  0  0  0
  9 10  1  0  0  0  0
  9 11  1  0  0  0  0
  9 12  1  0  0  0  0
  9 34  1  0  0  0  0
 10 13  1  0  0  0  0
 10 35  1  0  0  0  0
 10 36  1  0  0  0  0
 11 14  1  0  0  0  0
 11 37  1  0  0  0  0
 11 38  1  0  0  0  0
 12 15  1  0  0  0  0
 12 17  2  0  0  0  0
 13 39  1  0  0  0  0
 13 40  1  0  0  0  0
 14 41  1  0  0  0  0
 14 42  1  0  0  0  0
 15 16  2  0  0  0  0
 15 44  1  0  0  0  0
 16 18  1  0  0  0  0
 17 19  1  0  0  0  0
 17 45  1  0  0  0  0
 18 19  2  0  0  0  0
 18 20  1  0  0  0  0
 19 21  1  0  0  0  0
 20 46  1  0  0  0  0
 20 47  1  0  0  0  0
 21 24  2  0  0  0  0
 21 25  1  0  0  0  0
 23 26  2  0  0  0  0
 23 27  1  0  0  0  0
 24 28  1  0  0  0  0
 25 29  2  0  0  0  0
 25 49  1  0  0  0  0
 26 31  1  0  0  0  0
 27 32  2  0  0  0  0
 28 30  2  0  0  0  0
 28 50  1  0  0  0  0
 29 30  1  0  0  0  0
 29 51  1  0  0  0  0
 31 33  2  0  0  0  0
 31 52  1  0  0  0  0
 32 33  1  0  0  0  0
 32 53  1  0  0  0  0
 33 54  1  0  0  0  0
M  END
> <PUBCHEM_COMPOUND_CID>
23532567

> <PUBCHEM_CONFORMER_RMSD>
0.8

> <PUBCHEM_CONFORMER_DIVERSEORDER>
2
10
17
12
4
14
18
7
19
5
16
9
13
11
8
3
1
15
6

> <PUBCHEM_MMFF94_PARTIAL_CHARGES>
39
1 -0.18
12 -0.14
13 0.27
14 0.27
15 -0.15
16 0.12
17 -0.15
18 -0.14
2 -0.18
20 0.44
22 0.69
23 0.12
24 0.19
25 -0.15
26 0.18
27 0.18
28 -0.15
29 -0.15
3 -0.19
30 0.19
31 -0.15
32 -0.15
33 -0.15
4 -0.19
43 0.36
44 0.15
45 0.15
48 0.37
49 0.15
5 -0.57
50 0.15
51 0.15
52 0.15
53 0.15
54 0.15
6 -0.9
7 -0.29
8 -0.73
9 0.14

> <PUBCHEM_EFFECTIVE_ROTOR_COUNT>
4.8

> <PUBCHEM_PHARMACOPHORE_FEATURES>
9
1 5 acceptor
1 6 cation
1 6 donor
1 8 donor
6 12 15 16 17 18 19 rings
6 21 24 25 28 29 30 rings
6 23 26 27 31 32 33 rings
6 6 9 10 11 13 14 rings
6 7 8 16 18 20 22 rings

> <PUBCHEM_HEAVY_ATOM_COUNT>
33

> <PUBCHEM_ATOM_DEF_STEREO_COUNT>
0

> <PUBCHEM_ATOM_UDEF_STEREO_COUNT>
0

> <PUBCHEM_BOND_DEF_STEREO_COUNT>
0

> <PUBCHEM_BOND_UDEF_STEREO_COUNT>
0

> <PUBCHEM_ISOTOPIC_ATOM_COUNT>
0

> <PUBCHEM_COMPONENT_COUNT>
1

> <PUBCHEM_CACTVS_TAUTO_COUNT>
2

> <PUBCHEM_CONFORMER_ID>
0167141700000002

> <PUBCHEM_MMFF94_ENERGY>
110.8253

> <PUBCHEM_FEATURE_SELFOVERLAP>
45.697

> <PUBCHEM_SHAPE_FINGERPRINT>
10006869 2 18195805164166083971
102385 1 17977383837486890643
10815517 723 18343032089948947689
10930396 42 18049973836008143176
11646440 116 18339650039526886363
12156800 1 17903878281324793385
12160290 23 18265602208846151540
12440605 4 18120660132265383211
12553582 1 18336827597309757082
12741549 16 17749106747011654213
12788726 201 18336255778116747570
13140716 1 18193560197334416250
13540713 5 18043804287344068050
13583140 156 14333134091604165822
13911987 19 18115598174004760366
13965767 371 17556334720452922403
14028597 1 17603864464648233233
140371 6 18335712671334363382
14068700 675 18337104657186682068
14294032 229 18265060123933934333
14955137 171 18193006030562891011
15276724 80 18341338876961223348
15420108 30 17771648758247348849
15439362 3 17834668680343662613
15484559 13 16680904438158339981
15927050 60 17980201881108089870
16087824 20 18339643327411374429
16752209 62 18334005095458815250
19311894 1 18265338485101631538
20600515 1 18197799879415411632
20642791 105 18262788567507641896
20775438 99 16900707288272429535
21285901 2 18059309711502714734
21641784 216 18187096043841665916
23558518 356 17971753276831634787
23559900 14 18266741479824443398
23569943 247 18058463010394104598
23929065 36 18269536309254072424
244849 19 17488725780741875082
266924 87 18337105653424006447
283562 15 18409446959968464811
3027735 51 18339360768894278875
469060 322 18335154071914034625
5080951 261 17987784225342353252
508180 173 18193810813614489069
513202 73 18341061700666559782
5171179 24 18129652127304676193
57527306 92 18201726163294570987
6004065 56 18054212500298160727
653340 110 18339919316537948536
7226269 152 18335420205457370230
9658208 31 17983301426215782148

> <PUBCHEM_SHAPE_MULTIPOLES>
647.5
11.08
5.86
1.81
15.95
9.55
-0.06
-5.19
-1.3
-7.81
0.01
-1.04
-0.44
-0.17

> <PUBCHEM_SHAPE_SELFOVERLAP>
1413.963

> <PUBCHEM_SHAPE_VOLUME>
352.6

> <PUBCHEM_COORDINATE_TYPE>
2
5
10

$$$$
