49830285
  -OEChem-10052120443D

 25 27  0     0  0  0  0  0  0999 V2000
   -4.5563   -1.7173   -0.7141 Cl  0  0  0  0  0  0  0  0  0  0  0  0
    2.1582   -2.0008    0.4909 N   0  0  0  0  0  0  0  0  0  0  0  0
    3.9697   -0.4777    0.0406 N   0  0  0  0  0  0  0  0  0  0  0  0
   -1.2279    1.0193    0.3689 N   0  0  0  0  0  0  0  0  0  0  0  0
   -3.5624    0.5768   -0.0337 N   0  0  0  0  0  0  0  0  0  0  0  0
   -2.8309    2.7198    0.5807 N   0  0  0  0  0  0  0  0  0  0  0  0
    0.4048   -0.6706    0.1640 C   0  0  0  0  0  0  0  0  0  0  0  0
    1.5852    0.0850   -0.0648 C   0  0  0  0  0  0  0  0  0  0  0  0
    2.6603   -0.7732    0.1472 C   0  0  0  0  0  0  0  0  0  0  0  0
    0.7884   -1.9500    0.5037 C   0  0  0  0  0  0  0  0  0  0  0  0
   -0.9722   -0.2752    0.0873 C   0  0  0  0  0  0  0  0  0  0  0  0
    1.8776    1.4089   -0.4309 C   0  0  0  0  0  0  0  0  0  0  0  0
   -1.9448   -1.1913   -0.2578 C   0  0  0  0  0  0  0  0  0  0  0  0
    3.2182    1.7687   -0.5556 C   0  0  0  0  0  0  0  0  0  0  0  0
    4.1923    0.8093   -0.3139 C   0  0  0  0  0  0  0  0  0  0  0  0
   -3.2350   -0.7041   -0.3027 C   0  0  0  0  0  0  0  0  0  0  0  0
   -2.5252    1.3723    0.2902 C   0  0  0  0  0  0  0  0  0  0  0  0
    0.2255   -2.8359    0.7656 H   0  0  0  0  0  0  0  0  0  0  0  0
    2.7137   -2.8175    0.7041 H   0  0  0  0  0  0  0  0  0  0  0  0
    1.0972    2.1391   -0.6181 H   0  0  0  0  0  0  0  0  0  0  0  0
   -1.7325   -2.2267   -0.4964 H   0  0  0  0  0  0  0  0  0  0  0  0
    3.4942    2.7793   -0.8370 H   0  0  0  0  0  0  0  0  0  0  0  0
    5.2427    1.0726   -0.4067 H   0  0  0  0  0  0  0  0  0  0  0  0
   -2.0858    3.3557    0.8295 H   0  0  0  0  0  0  0  0  0  0  0  0
   -3.7908    3.0326    0.5358 H   0  0  0  0  0  0  0  0  0  0  0  0
  1 16  1  0  0  0  0
  2  9  1  0  0  0  0
  2 10  1  0  0  0  0
  2 19  1  0  0  0  0
  3  9  1  0  0  0  0
  3 15  2  0  0  0  0
  4 11  1  0  0  0  0
  4 17  2  0  0  0  0
  5 16  2  0  0  0  0
  5 17  1  0  0  0  0
  6 17  1  0  0  0  0
  6 24  1  0  0  0  0
  6 25  1  0  0  0  0
  7  8  1  0  0  0  0
  7 10  2  0  0  0  0
  7 11  1  0  0  0  0
  8  9  2  0  0  0  0
  8 12  1  0  0  0  0
 10 18  1  0  0  0  0
 11 13  2  0  0  0  0
 12 14  2  0  0  0  0
 12 20  1  0  0  0  0
 13 16  1  0  0  0  0
 13 21  1  0  0  0  0
 14 15  1  0  0  0  0
 14 22  1  0  0  0  0
 15 23  1  0  0  0  0
M  END
> <PUBCHEM_COMPOUND_CID>
49830285

> <PUBCHEM_CONFORMER_RMSD>
0.6

> <PUBCHEM_CONFORMER_DIVERSEORDER>
1
4
3
5
2

> <PUBCHEM_MMFF94_PARTIAL_CHARGES>
24
1 -0.18
10 -0.3
11 0.36
12 -0.15
13 -0.15
14 -0.15
15 0.16
16 0.49
17 0.72
18 0.15
19 0.27
2 0.03
20 0.15
21 0.15
22 0.15
23 0.15
24 0.4
25 0.4
3 -0.57
4 -0.62
5 -0.62
6 -0.9
7 -0.05
9 0.11

> <PUBCHEM_EFFECTIVE_ROTOR_COUNT>
1

> <PUBCHEM_PHARMACOPHORE_FEATURES>
9
1 2 cation
1 2 donor
1 3 acceptor
1 5 acceptor
1 6 donor
4 4 5 6 17 cation
5 2 7 8 9 10 rings
6 3 8 9 12 14 15 rings
6 4 5 11 13 16 17 rings

> <PUBCHEM_HEAVY_ATOM_COUNT>
17

> <PUBCHEM_ATOM_DEF_STEREO_COUNT>
0

> <PUBCHEM_ATOM_UDEF_STEREO_COUNT>
0

> <PUBCHEM_BOND_DEF_STEREO_COUNT>
0

> <PUBCHEM_BOND_UDEF_STEREO_COUNT>
0

> <PUBCHEM_ISOTOPIC_ATOM_COUNT>
0

> <PUBCHEM_COMPONENT_COUNT>
1

> <PUBCHEM_CACTVS_TAUTO_COUNT>
16

> <PUBCHEM_CONFORMER_ID>
02F8598D00000001

> <PUBCHEM_MMFF94_ENERGY>
40.4124

> <PUBCHEM_FEATURE_SELFOVERLAP>
45.783

> <PUBCHEM_SHAPE_FINGERPRINT>
10608611 8 18335138661354870900
10616163 171 18342176665760778815
10967382 1 18408042935465344426
10980938 120 18261675870414124040
11045515 52 18188202221780787869
11471102 20 18261106404990163542
12162725 195 18408886239203303306
12173636 292 18271800182067475453
12403260 363 18336540603558436416
12553582 1 18056745741029868991
13380535 76 18261393390362702042
13583140 156 16153984771898809024
14144814 61 18336264556987630954
14178342 30 18194664991413335386
14787075 74 17899418868236521819
15196674 1 18410012139258020924
15442244 35 18193555562911547482
15536298 74 18413390917300046798
15775835 57 18410863135319414600
16945 1 18336837475792508194
17492 89 18411699846694712927
17802600 8 18410005567879047188
18186145 218 18334577919309850630
19050596 39 18410294705182616803
19422 9 18413107234256764143
200 152 18410567431532718983
20279233 1 15719109158506792611
20300324 65 18272089435092678989
20449540 30 18335697231043056749
21267235 1 18410582789892859006
21501502 16 18337670819574894331
21524375 3 18261110820258780650
22854114 111 18333452045104187820
23402539 116 18341888631946494495
23402655 69 18410009914280352029
23557571 272 17703794721004153385
23559900 14 18128248991706454062
25610 137 18337392750897743387
2748010 2 17330840630444998328
2871803 45 18337666516228757855
474 4 17967819383294118900
4990 188 18202293481002593198
5104073 3 18409729543046751706
53777708 50 18339924814206798555
57096353 35 18338796818308248151
58051976 378 18412262869493331662
603831 33 18341319076692425271
6333272 397 18261394515564667930
7364860 26 18340489946188332870
7832392 63 18267024942653730248
84936 182 18341893022004880040
9709674 26 18410863148178378039
9981440 41 17471287831100026464

> <PUBCHEM_SHAPE_MULTIPOLES>
326.82
8.06
2.31
0.73
1.32
0.64
0.03
0.2
1.46
0.77
-0.3
0.11
0
-1.18

> <PUBCHEM_SHAPE_SELFOVERLAP>
724.163

> <PUBCHEM_SHAPE_VOLUME>
176.4

> <PUBCHEM_COORDINATE_TYPE>
2
5
10

$$$$
