49830577
  -OEChem-10052115193D

 74 79  0     0  0  0  0  0  0999 V2000
    7.8094    5.3473   -0.3301 O   0  0  0  0  0  0  0  0  0  0  0  0
    5.0272   -2.5083    0.3359 O   0  0  0  0  0  0  0  0  0  0  0  0
   -0.6130   -2.5320   -3.5538 O   0  0  0  0  0  0  0  0  0  0  0  0
   -7.7738    0.6187    2.0673 O   0  0  0  0  0  0  0  0  0  0  0  0
    7.0511    2.6505   -0.1034 N   0  0  0  0  0  0  0  0  0  0  0  0
   -1.2877   -1.5785    0.6326 N   0  0  0  0  0  0  0  0  0  0  0  0
    0.4010   -2.7722   -1.5815 N   0  0  0  0  0  0  0  0  0  0  0  0
   -8.6729    4.4664    1.8877 N   0  0  0  0  0  0  0  0  0  0  0  0
    7.1842    3.2742   -1.4245 C   0  0  0  0  0  0  0  0  0  0  0  0
    6.8196    3.5832    1.0082 C   0  0  0  0  0  0  0  0  0  0  0  0
    8.1823    4.4245   -1.3530 C   0  0  0  0  0  0  0  0  0  0  0  0
    7.8378    4.7163    0.9500 C   0  0  0  0  0  0  0  0  0  0  0  0
    6.5419    1.3525    0.0070 C   0  0  0  0  0  0  0  0  0  0  0  0
   -0.0479   -2.1960    0.7961 C   0  0  0  0  0  0  0  0  0  0  0  0
    0.7253   -2.7431   -0.2196 C   0  0  0  0  0  0  0  0  0  0  0  0
    2.4402   -3.3956    1.4089 C   0  0  0  0  0  0  0  0  0  0  0  0
   -2.1122   -1.3121   -0.4638 C   0  0  0  0  0  0  0  0  0  0  0  0
    3.7537   -4.0326    1.7073 C   0  0  0  0  0  0  0  0  0  0  0  0
    6.9550    0.5280    1.0535 C   0  0  0  0  0  0  0  0  0  0  0  0
    5.6208    0.8825   -0.9292 C   0  0  0  0  0  0  0  0  0  0  0  0
   -1.8568   -1.6371   -1.7964 C   0  0  0  0  0  0  0  0  0  0  0  0
    1.9667   -3.3393    0.1006 C   0  0  0  0  0  0  0  0  0  0  0  0
    4.9251   -3.0467    1.6479 C   0  0  0  0  0  0  0  0  0  0  0  0
   -4.2621   -0.2999   -1.1335 C   0  0  0  0  0  0  0  0  0  0  0  0
    5.5260   -1.2365    0.2276 C   0  0  0  0  0  0  0  0  0  0  0  0
    0.4530   -2.2638    2.1204 C   0  0  0  0  0  0  0  0  0  0  0  0
   -3.3274   -0.6413   -0.1603 C   0  0  0  0  0  0  0  0  0  0  0  0
    1.6779   -2.8535    2.4270 C   0  0  0  0  0  0  0  0  0  0  0  0
    6.4469   -0.7664    1.1638 C   0  0  0  0  0  0  0  0  0  0  0  0
    5.1130   -0.4120   -0.8190 C   0  0  0  0  0  0  0  0  0  0  0  0
   -0.6600   -2.3322   -2.3332 C   0  0  0  0  0  0  0  0  0  0  0  0
   -2.8209   -1.2816   -2.7750 C   0  0  0  0  0  0  0  0  0  0  0  0
   -5.4829    0.3842   -0.7698 C   0  0  0  0  0  0  0  0  0  0  0  0
   -4.0062   -0.6231   -2.4506 C   0  0  0  0  0  0  0  0  0  0  0  0
   -6.0526    0.1746    0.4860 C   0  0  0  0  0  0  0  0  0  0  0  0
   -6.0913    1.2534   -1.6753 C   0  0  0  0  0  0  0  0  0  0  0  0
   -7.2307    0.8342    0.8365 C   0  0  0  0  0  0  0  0  0  0  0  0
   -7.8391    1.7035   -0.0691 C   0  0  0  0  0  0  0  0  0  0  0  0
   -7.2695    1.9130   -1.3249 C   0  0  0  0  0  0  0  0  0  0  0  0
   -9.1004    2.4178    0.2886 C   0  0  0  0  0  0  0  0  0  0  0  0
   -7.0858   -0.2854    2.9295 C   0  0  0  0  0  0  0  0  0  0  0  0
   -8.8652    3.5644    1.1835 C   0  0  0  0  0  0  0  0  0  0  0  0
    6.2080    3.6625   -1.7402 H   0  0  0  0  0  0  0  0  0  0  0  0
    7.5340    2.5526   -2.1722 H   0  0  0  0  0  0  0  0  0  0  0  0
    6.8949    3.0922    1.9845 H   0  0  0  0  0  0  0  0  0  0  0  0
    5.8052    3.9905    0.9148 H   0  0  0  0  0  0  0  0  0  0  0  0
    8.1982    4.9649   -2.3048 H   0  0  0  0  0  0  0  0  0  0  0  0
    9.1989    4.0598   -1.1616 H   0  0  0  0  0  0  0  0  0  0  0  0
    8.8521    4.3532    1.1554 H   0  0  0  0  0  0  0  0  0  0  0  0
    7.5974    5.4732    1.7032 H   0  0  0  0  0  0  0  0  0  0  0  0
    3.9283   -4.8454    0.9902 H   0  0  0  0  0  0  0  0  0  0  0  0
    3.7247   -4.5053    2.6971 H   0  0  0  0  0  0  0  0  0  0  0  0
    7.6865    0.8697    1.7813 H   0  0  0  0  0  0  0  0  0  0  0  0
    5.2662    1.5016   -1.7483 H   0  0  0  0  0  0  0  0  0  0  0  0
    2.5762   -3.7697   -0.6941 H   0  0  0  0  0  0  0  0  0  0  0  0
   -1.6789   -1.2498    1.5120 H   0  0  0  0  0  0  0  0  0  0  0  0
    4.7460   -2.2662    2.3994 H   0  0  0  0  0  0  0  0  0  0  0  0
    5.8549   -3.5739    1.8905 H   0  0  0  0  0  0  0  0  0  0  0  0
   -0.1284   -1.8437    2.9408 H   0  0  0  0  0  0  0  0  0  0  0  0
   -3.4908   -0.3599    0.8801 H   0  0  0  0  0  0  0  0  0  0  0  0
    2.0179   -2.8782    3.4582 H   0  0  0  0  0  0  0  0  0  0  0  0
    1.1103   -3.2218   -2.1579 H   0  0  0  0  0  0  0  0  0  0  0  0
    6.8186   -1.3863    1.9743 H   0  0  0  0  0  0  0  0  0  0  0  0
    4.3926   -0.7722   -1.5485 H   0  0  0  0  0  0  0  0  0  0  0  0
   -2.6722   -1.5184   -3.8273 H   0  0  0  0  0  0  0  0  0  0  0  0
   -4.7030   -0.4137   -3.2569 H   0  0  0  0  0  0  0  0  0  0  0  0
   -5.5844   -0.5395    1.1522 H   0  0  0  0  0  0  0  0  0  0  0  0
   -5.6682    1.4701   -2.6524 H   0  0  0  0  0  0  0  0  0  0  0  0
   -7.7271    2.5935   -2.0382 H   0  0  0  0  0  0  0  0  0  0  0  0
   -9.6091    2.7688   -0.6181 H   0  0  0  0  0  0  0  0  0  0  0  0
   -9.8019    1.7159    0.7567 H   0  0  0  0  0  0  0  0  0  0  0  0
   -7.0758   -1.3028    2.5239 H   0  0  0  0  0  0  0  0  0  0  0  0
   -6.0836    0.0775    3.1824 H   0  0  0  0  0  0  0  0  0  0  0  0
   -7.6509   -0.3263    3.8668 H   0  0  0  0  0  0  0  0  0  0  0  0
  1 11  1  0  0  0  0
  1 12  1  0  0  0  0
  2 23  1  0  0  0  0
  2 25  1  0  0  0  0
  3 31  2  0  0  0  0
  4 37  1  0  0  0  0
  4 41  1  0  0  0  0
  5  9  1  0  0  0  0
  5 10  1  0  0  0  0
  5 13  1  0  0  0  0
  6 14  1  0  0  0  0
  6 17  1  0  0  0  0
  6 56  1  0  0  0  0
  7 15  1  0  0  0  0
  7 31  1  0  0  0  0
  7 62  1  0  0  0  0
  8 42  3  0  0  0  0
  9 11  1  0  0  0  0
  9 43  1  0  0  0  0
  9 44  1  0  0  0  0
 10 12  1  0  0  0  0
 10 45  1  0  0  0  0
 10 46  1  0  0  0  0
 11 47  1  0  0  0  0
 11 48  1  0  0  0  0
 12 49  1  0  0  0  0
 12 50  1  0  0  0  0
 13 19  2  0  0  0  0
 13 20  1  0  0  0  0
 14 15  2  0  0  0  0
 14 26  1  0  0  0  0
 15 22  1  0  0  0  0
 16 18  1  0  0  0  0
 16 22  2  0  0  0  0
 16 28  1  0  0  0  0
 17 21  2  0  0  0  0
 17 27  1  0  0  0  0
 18 23  1  0  0  0  0
 18 51  1  0  0  0  0
 18 52  1  0  0  0  0
 19 29  1  0  0  0  0
 19 53  1  0  0  0  0
 20 30  2  0  0  0  0
 20 54  1  0  0  0  0
 21 31  1  0  0  0  0
 21 32  1  0  0  0  0
 22 55  1  0  0  0  0
 23 57  1  0  0  0  0
 23 58  1  0  0  0  0
 24 27  2  0  0  0  0
 24 33  1  0  0  0  0
 24 34  1  0  0  0  0
 25 29  2  0  0  0  0
 25 30  1  0  0  0  0
 26 28  2  0  0  0  0
 26 59  1  0  0  0  0
 27 60  1  0  0  0  0
 28 61  1  0  0  0  0
 29 63  1  0  0  0  0
 30 64  1  0  0  0  0
 32 34  2  0  0  0  0
 32 65  1  0  0  0  0
 33 35  2  0  0  0  0
 33 36  1  0  0  0  0
 34 66  1  0  0  0  0
 35 37  1  0  0  0  0
 35 67  1  0  0  0  0
 36 39  2  0  0  0  0
 36 68  1  0  0  0  0
 37 38  2  0  0  0  0
 38 39  1  0  0  0  0
 38 40  1  0  0  0  0
 39 69  1  0  0  0  0
 40 42  1  0  0  0  0
 40 70  1  0  0  0  0
 40 71  1  0  0  0  0
 41 72  1  0  0  0  0
 41 73  1  0  0  0  0
 41 74  1  0  0  0  0
M  END
> <PUBCHEM_COMPOUND_CID>
49830577

> <PUBCHEM_CONFORMER_RMSD>
1.2

> <PUBCHEM_CONFORMER_DIVERSEORDER>
1
46
17
37
74
7
28
18
35
66
43
30
29
16
65
24
22
64
68
31
53
58
49
45
2
48
60
55
72
57
32
73
14
76
36
78
44
51
8
50
63
11
13
9
71
38
62
33
59
34
79
20
12
52
3
42
6
67
75
41
19
25
40
77
4
23
15
10
21
56
69
39
54
27
47
61
26
5
70

> <PUBCHEM_MMFF94_PARTIAL_CHARGES>
55
1 -0.56
10 0.37
11 0.28
12 0.28
13 0.1
14 0.1
15 0.12
16 -0.14
17 0.1
18 0.14
19 -0.15
2 -0.36
20 -0.15
21 0.09
22 -0.15
23 0.28
25 0.08
26 -0.15
27 -0.15
28 -0.15
29 -0.15
3 -0.57
30 -0.15
31 0.54
32 -0.15
34 -0.15
35 -0.15
36 -0.15
37 0.08
38 -0.14
39 -0.15
4 -0.36
40 0.34
41 0.28
42 0.36
5 -0.84
53 0.15
54 0.15
55 0.15
56 0.4
59 0.15
6 -0.6
60 0.15
61 0.15
62 0.37
63 0.15
64 0.15
65 0.15
66 0.15
67 0.15
68 0.15
69 0.15
7 -0.55
8 -0.56
9 0.37

> <PUBCHEM_EFFECTIVE_ROTOR_COUNT>
9.6

> <PUBCHEM_PHARMACOPHORE_FEATURES>
15
1 1 acceptor
1 2 acceptor
1 3 acceptor
1 4 acceptor
1 5 cation
1 6 cation
1 6 donor
1 7 donor
1 8 acceptor
6 1 5 9 10 11 12 rings
6 13 19 20 25 29 30 rings
6 14 15 16 22 26 28 rings
6 17 21 24 27 32 34 rings
6 33 35 36 37 38 39 rings
7 6 7 14 15 17 21 31 rings

> <PUBCHEM_HEAVY_ATOM_COUNT>
42

> <PUBCHEM_ATOM_DEF_STEREO_COUNT>
0

> <PUBCHEM_ATOM_UDEF_STEREO_COUNT>
0

> <PUBCHEM_BOND_DEF_STEREO_COUNT>
0

> <PUBCHEM_BOND_UDEF_STEREO_COUNT>
0

> <PUBCHEM_ISOTOPIC_ATOM_COUNT>
0

> <PUBCHEM_COMPONENT_COUNT>
1

> <PUBCHEM_CACTVS_TAUTO_COUNT>
15

> <PUBCHEM_CONFORMER_ID>
02F85AB100000001

> <PUBCHEM_MMFF94_ENERGY>
181.2883

> <PUBCHEM_FEATURE_SELFOVERLAP>
76.138

> <PUBCHEM_SHAPE_FINGERPRINT>
10675989 125 18334004000822228338
10951579 204 15051736343944447131
11399510 152 15286455675774175538
11456790 92 17460017510724499146
11479125 193 18261104201798404880
117089 54 10087382044650181176
11828042 207 17555162916084495512
12061779 8 18271801358851487684
12559415 36 18270698522613802989
131240 88 18261395581276227120
1361 87 14260510339609766558
13782708 43 10665241336810238531
14394314 77 18410007779782443604
14904525 67 17970614200387472229
15131766 46 18411129272936282286
15152005 1 9438865875773509120
16992779 147 18187636995573898554
16994733 274 18272085032482526142
19301676 85 11023824002434140924
19304671 126 18342465863752904172
19309040 13 18339637949753572398
19841028 212 9007063465524674676
2026 5 9367341536158101417
20691028 202 18116709811326928412
22002106 203 9943538388812704532
23522609 53 18273208678011813503
23569914 152 11671237236800291467
3525247 18 17980755262635525696
3711267 37 18202283567875462369
397830 11 17967255265479397643
406291 66 8142093065253049516
4112364 45 18409164385485875911
4258327 124 18201711843921182831
44426701 194 18334020509753855304
50742298 180 16370998608016338156
5874358 3 11674875619438893873
6698420 124 18334015012427740282
9555976 147 12180664072246315342

> <PUBCHEM_SHAPE_MULTIPOLES>
820.94
31.79
6.68
2.74
17.11
6.33
0.74
52.35
-9.99
-14.29
-1.9
3.38
-1.47
-5.4

> <PUBCHEM_SHAPE_SELFOVERLAP>
1802.589

> <PUBCHEM_SHAPE_VOLUME>
437.9

> <PUBCHEM_COORDINATE_TYPE>
2
5
10

$$$$
