50908681
  -OEChem-10052115143D

 39 42  0     0  0  0  0  0  0999 V2000
   -4.4572    0.1304   -0.1106 O   0  0  0  0  0  0  0  0  0  0  0  0
    6.1274   -1.2269    0.2240 O   0  0  0  0  0  0  0  0  0  0  0  0
    0.2003    0.9041    0.0846 N   0  0  0  0  0  0  0  0  0  0  0  0
   -3.7823    2.4160   -0.1062 N   0  0  0  0  0  0  0  0  0  0  0  0
   -2.2337    0.5164   -0.0172 C   0  0  0  0  0  0  0  0  0  0  0  0
   -2.4421   -0.8915   -0.0108 C   0  0  0  0  0  0  0  0  0  0  0  0
   -1.1249    1.3767    0.0222 C   0  0  0  0  0  0  0  0  0  0  0  0
   -3.4983    1.0996   -0.0792 C   0  0  0  0  0  0  0  0  0  0  0  0
   -3.8201   -1.0723   -0.0693 C   0  0  0  0  0  0  0  0  0  0  0  0
    1.3363    1.7740    0.1238 C   0  0  0  0  0  0  0  0  0  0  0  0
   -1.6185   -2.0311    0.0378 C   0  0  0  0  0  0  0  0  0  0  0  0
    2.6105    0.9763    0.1510 C   0  0  0  0  0  0  0  0  0  0  0  0
   -1.3651    2.7489   -0.0034 C   0  0  0  0  0  0  0  0  0  0  0  0
   -4.4446   -2.3185   -0.0829 C   0  0  0  0  0  0  0  0  0  0  0  0
   -2.6778    3.1960   -0.0661 C   0  0  0  0  0  0  0  0  0  0  0  0
   -2.2181   -3.2977    0.0254 C   0  0  0  0  0  0  0  0  0  0  0  0
   -3.6065   -3.4363   -0.0340 C   0  0  0  0  0  0  0  0  0  0  0  0
    3.0184    0.3523    1.3300 C   0  0  0  0  0  0  0  0  0  0  0  0
    3.3846    0.8599   -1.0034 C   0  0  0  0  0  0  0  0  0  0  0  0
    4.2003   -0.3878    1.3547 C   0  0  0  0  0  0  0  0  0  0  0  0
    4.5667    0.1198   -0.9789 C   0  0  0  0  0  0  0  0  0  0  0  0
    4.9745   -0.5040    0.2002 C   0  0  0  0  0  0  0  0  0  0  0  0
    6.8703   -1.3044   -0.9918 C   0  0  0  0  0  0  0  0  0  0  0  0
    1.3110    2.4147    1.0149 H   0  0  0  0  0  0  0  0  0  0  0  0
    1.3480    2.4383   -0.7497 H   0  0  0  0  0  0  0  0  0  0  0  0
    0.3412   -0.0974    0.1001 H   0  0  0  0  0  0  0  0  0  0  0  0
   -0.5373   -1.9595    0.0846 H   0  0  0  0  0  0  0  0  0  0  0  0
   -0.5733    3.4894    0.0252 H   0  0  0  0  0  0  0  0  0  0  0  0
   -5.5226   -2.4182   -0.1291 H   0  0  0  0  0  0  0  0  0  0  0  0
   -2.8835    4.2631   -0.0863 H   0  0  0  0  0  0  0  0  0  0  0  0
   -1.5918   -4.1855    0.0627 H   0  0  0  0  0  0  0  0  0  0  0  0
   -4.0444   -4.4314   -0.0422 H   0  0  0  0  0  0  0  0  0  0  0  0
    2.4231    0.4358    2.2355 H   0  0  0  0  0  0  0  0  0  0  0  0
    3.0772    1.3389   -1.9294 H   0  0  0  0  0  0  0  0  0  0  0  0
    4.5127   -0.8718    2.2760 H   0  0  0  0  0  0  0  0  0  0  0  0
    5.1192    0.0700   -1.9110 H   0  0  0  0  0  0  0  0  0  0  0  0
    6.3024   -1.8123   -1.7787 H   0  0  0  0  0  0  0  0  0  0  0  0
    7.2282   -0.3188   -1.3082 H   0  0  0  0  0  0  0  0  0  0  0  0
    7.7557   -1.9165   -0.7910 H   0  0  0  0  0  0  0  0  0  0  0  0
  1  8  1  0  0  0  0
  1  9  1  0  0  0  0
  2 22  1  0  0  0  0
  2 23  1  0  0  0  0
  3  7  1  0  0  0  0
  3 10  1  0  0  0  0
  3 26  1  0  0  0  0
  4  8  2  0  0  0  0
  4 15  1  0  0  0  0
  5  6  1  0  0  0  0
  5  7  2  0  0  0  0
  5  8  1  0  0  0  0
  6  9  1  0  0  0  0
  6 11  2  0  0  0  0
  7 13  1  0  0  0  0
  9 14  2  0  0  0  0
 10 12  1  0  0  0  0
 10 24  1  0  0  0  0
 10 25  1  0  0  0  0
 11 16  1  0  0  0  0
 11 27  1  0  0  0  0
 12 18  2  0  0  0  0
 12 19  1  0  0  0  0
 13 15  2  0  0  0  0
 13 28  1  0  0  0  0
 14 17  1  0  0  0  0
 14 29  1  0  0  0  0
 15 30  1  0  0  0  0
 16 17  2  0  0  0  0
 16 31  1  0  0  0  0
 17 32  1  0  0  0  0
 18 20  1  0  0  0  0
 18 33  1  0  0  0  0
 19 21  2  0  0  0  0
 19 34  1  0  0  0  0
 20 22  2  0  0  0  0
 20 35  1  0  0  0  0
 21 22  1  0  0  0  0
 21 36  1  0  0  0  0
 23 37  1  0  0  0  0
 23 38  1  0  0  0  0
 23 39  1  0  0  0  0
M  END
> <PUBCHEM_COMPOUND_CID>
50908681

> <PUBCHEM_CONFORMER_RMSD>
0.6

> <PUBCHEM_CONFORMER_DIVERSEORDER>
1
21
10
20
4
15
5
16
17
3
8
11
18
13
7
14
19
6
2
9
12

> <PUBCHEM_MMFF94_PARTIAL_CHARGES>
32
1 -0.28
10 0.51
11 -0.15
12 -0.14
13 -0.15
14 -0.15
15 0.16
16 -0.15
17 -0.15
18 -0.15
19 -0.15
2 -0.36
20 -0.15
21 -0.15
22 0.08
23 0.28
26 0.4
27 0.15
28 0.15
29 0.15
3 -0.87
30 0.15
31 0.15
32 0.15
33 0.15
34 0.15
35 0.15
36 0.15
4 -0.57
7 0.1
8 0.4
9 0.14

> <PUBCHEM_EFFECTIVE_ROTOR_COUNT>
4

> <PUBCHEM_PHARMACOPHORE_FEATURES>
7
1 2 acceptor
1 3 cation
1 3 donor
5 1 5 6 8 9 rings
6 12 18 19 20 21 22 rings
6 4 5 7 8 13 15 rings
6 6 9 11 14 16 17 rings

> <PUBCHEM_HEAVY_ATOM_COUNT>
23

> <PUBCHEM_ATOM_DEF_STEREO_COUNT>
0

> <PUBCHEM_ATOM_UDEF_STEREO_COUNT>
0

> <PUBCHEM_BOND_DEF_STEREO_COUNT>
0

> <PUBCHEM_BOND_UDEF_STEREO_COUNT>
0

> <PUBCHEM_ISOTOPIC_ATOM_COUNT>
0

> <PUBCHEM_COMPONENT_COUNT>
1

> <PUBCHEM_CACTVS_TAUTO_COUNT>
4

> <PUBCHEM_CONFORMER_ID>
0308CE0900000001

> <PUBCHEM_MMFF94_ENERGY>
70.9456

> <PUBCHEM_FEATURE_SELFOVERLAP>
35.74

> <PUBCHEM_SHAPE_FINGERPRINT>
10411042 1 18194402419352825231
10595046 47 18334582386645940652
10616163 171 18410009940087260698
10693767 8 17552620862449479335
11524674 6 17489584532949917871
11545043 162 18131348592636944416
11796584 16 18269557140193285982
12236239 1 17894916188000911420
12553582 1 18264484173509367451
12555020 224 18409718570038299677
12633257 1 18271817825635092801
12643181 29 18339077061310164198
12760667 363 18342455976184404223
12788726 201 18335427918875398297
13167823 11 18260267456159203496
13402501 40 18202287970370064102
13726171 33 17983047649436035220
13911987 19 14634876344647783048
14251751 18 18341895203948161498
14251757 5 18410296899910918072
14289585 56 16733263444325285950
14420673 8 18340772533619777374
14461889 52 18272359898754379674
14866123 147 18412832395885292811
15042514 8 18410013277988616521
15230672 131 18048600309825535318
15250474 111 18188480294932650314
15352361 1 18339078318922990698
15484559 13 13850624108333415028
15537594 2 17895194359762403346
15927050 60 18126000456827017085
16120349 21 18341344348707185131
16752209 62 18336252488393474841
17492 89 18265895945932802030
20403669 9 18270403909326502039
21065201 7 18341040861680158560
21267235 1 18335988640194499555
21403212 168 18130239155904282705
23559900 14 18341042020936745496
238918 7 17917715690852627694
3004659 81 18114457954892743030
335352 9 18410291428750415061
338550 245 18261396594592986014
3882209 13 16975293737637556982
397830 11 18200858661837051624
4214541 1 18410292480400600468
44062 13 18412826888935547646
508706 21 18341899554228157286
5104073 3 18201722894096497792
5385378 56 17764314938439615825
559249 180 18261671463593088064
56633871 153 18125167275900616499
58902169 19 17677350320813410854
59755656 215 18339920416149699135
602551 16 18411976945415428792
6138700 20 18411697704170047031
6437827 68 18339925892555073006
6823239 73 18272081726080239408
7970288 3 18194680603699207223
9709674 26 18343586226434013070

> <PUBCHEM_SHAPE_MULTIPOLES>
451.63
13.36
3.72
0.91
20.15
0.66
-0.1
7.15
1.63
-5.92
0.15
1.26
0.04
0.21

> <PUBCHEM_SHAPE_SELFOVERLAP>
1008.1

> <PUBCHEM_SHAPE_VOLUME>
240.7

> <PUBCHEM_COORDINATE_TYPE>
2
5
10

$$$$
