49830641
  -OEChem-10062121543D

 34 37  0     0  0  0  0  0  0999 V2000
   -0.6887    2.8004   -0.9237 S   0  0  0  0  0  0  0  0  0  0  0  0
    1.3423    1.3514    0.0179 N   0  0  0  0  0  0  0  0  0  0  0  0
    3.4169    2.0407    0.4184 N   0  0  0  0  0  0  0  0  0  0  0  0
   -0.8724    0.4435    0.1220 N   0  0  0  0  0  0  0  0  0  0  0  0
    1.6599    3.6709    0.3060 N   0  0  0  0  0  0  0  0  0  0  0  0
    2.3864   -4.5658   -0.4251 N   0  0  0  0  0  0  0  0  0  0  0  0
    2.1107    0.2155    0.0232 C   0  0  0  0  0  0  0  0  0  0  0  0
    3.4014    0.6722    0.2754 C   0  0  0  0  0  0  0  0  0  0  0  0
    2.1673    2.4147    0.2581 C   0  0  0  0  0  0  0  0  0  0  0  0
   -0.0242    1.3971   -0.1932 C   0  0  0  0  0  0  0  0  0  0  0  0
    1.7971   -1.1309   -0.1651 C   0  0  0  0  0  0  0  0  0  0  0  0
    4.4541   -0.2555    0.3475 C   0  0  0  0  0  0  0  0  0  0  0  0
   -2.1454    0.8419   -0.2367 C   0  0  0  0  0  0  0  0  0  0  0  0
    2.8571   -2.0405   -0.0899 C   0  0  0  0  0  0  0  0  0  0  0  0
    4.1628   -1.6127    0.1618 C   0  0  0  0  0  0  0  0  0  0  0  0
   -3.2864    0.0009   -0.0159 C   0  0  0  0  0  0  0  0  0  0  0  0
   -2.2455    2.0889   -0.8173 C   0  0  0  0  0  0  0  0  0  0  0  0
   -4.5377    0.5713    0.2173 C   0  0  0  0  0  0  0  0  0  0  0  0
   -3.1449   -1.3866   -0.0338 C   0  0  0  0  0  0  0  0  0  0  0  0
   -5.6476   -0.2457    0.4325 C   0  0  0  0  0  0  0  0  0  0  0  0
   -4.2546   -2.2038    0.1813 C   0  0  0  0  0  0  0  0  0  0  0  0
   -5.5061   -1.6333    0.4145 C   0  0  0  0  0  0  0  0  0  0  0  0
    2.5974   -3.4346   -0.2750 C   0  0  0  0  0  0  0  0  0  0  0  0
    0.7848   -1.4636   -0.3676 H   0  0  0  0  0  0  0  0  0  0  0  0
    5.4719    0.0670    0.5426 H   0  0  0  0  0  0  0  0  0  0  0  0
    4.9780   -2.3317    0.2175 H   0  0  0  0  0  0  0  0  0  0  0  0
   -3.1120    2.6159   -1.1920 H   0  0  0  0  0  0  0  0  0  0  0  0
    2.2653    4.4686    0.4728 H   0  0  0  0  0  0  0  0  0  0  0  0
    0.6731    3.8899    0.2358 H   0  0  0  0  0  0  0  0  0  0  0  0
   -4.6852    1.6475    0.2570 H   0  0  0  0  0  0  0  0  0  0  0  0
   -2.1808   -1.8547   -0.2180 H   0  0  0  0  0  0  0  0  0  0  0  0
   -6.6214    0.1980    0.6182 H   0  0  0  0  0  0  0  0  0  0  0  0
   -4.1448   -3.2842    0.1664 H   0  0  0  0  0  0  0  0  0  0  0  0
   -6.3700   -2.2695    0.5828 H   0  0  0  0  0  0  0  0  0  0  0  0
  1 10  1  0  0  0  0
  1 17  1  0  0  0  0
  2  7  1  0  0  0  0
  2  9  1  0  0  0  0
  2 10  1  0  0  0  0
  3  8  1  0  0  0  0
  3  9  2  0  0  0  0
  4 10  2  0  0  0  0
  4 13  1  0  0  0  0
  5  9  1  0  0  0  0
  5 28  1  0  0  0  0
  5 29  1  0  0  0  0
  6 23  3  0  0  0  0
  7  8  2  0  0  0  0
  7 11  1  0  0  0  0
  8 12  1  0  0  0  0
 11 14  2  0  0  0  0
 11 24  1  0  0  0  0
 12 15  2  0  0  0  0
 12 25  1  0  0  0  0
 13 16  1  0  0  0  0
 13 17  2  0  0  0  0
 14 15  1  0  0  0  0
 14 23  1  0  0  0  0
 15 26  1  0  0  0  0
 16 18  2  0  0  0  0
 16 19  1  0  0  0  0
 17 27  1  0  0  0  0
 18 20  1  0  0  0  0
 18 30  1  0  0  0  0
 19 21  2  0  0  0  0
 19 31  1  0  0  0  0
 20 22  2  0  0  0  0
 20 32  1  0  0  0  0
 21 22  1  0  0  0  0
 21 33  1  0  0  0  0
 22 34  1  0  0  0  0
M  END
> <PUBCHEM_COMPOUND_CID>
49830641

> <PUBCHEM_CONFORMER_RMSD>
0.6

> <PUBCHEM_CONFORMER_DIVERSEORDER>
1
8
10
4
7
9
3
6
11
2
5
12

> <PUBCHEM_MMFF94_PARTIAL_CHARGES>
34
1 -0.08
10 0.3
11 -0.15
12 -0.15
13 0.17
14 0.07
15 -0.15
16 0.05
17 -0.11
18 -0.15
19 -0.15
2 0.38
20 -0.15
21 -0.15
22 -0.15
23 0.48
24 0.15
25 0.15
26 0.15
27 0.15
28 0.4
29 0.4
3 -0.57
30 0.15
31 0.15
32 0.15
33 0.15
34 0.15
4 -0.57
5 -0.88
6 -0.56
7 -0.15
8 0.23
9 0.27

> <PUBCHEM_EFFECTIVE_ROTOR_COUNT>
2

> <PUBCHEM_PHARMACOPHORE_FEATURES>
7
1 5 donor
1 6 acceptor
4 2 3 5 9 cation
5 1 4 10 13 17 rings
5 2 3 7 8 9 rings
6 16 18 19 20 21 22 rings
6 7 8 11 12 14 15 rings

> <PUBCHEM_HEAVY_ATOM_COUNT>
23

> <PUBCHEM_ATOM_DEF_STEREO_COUNT>
0

> <PUBCHEM_ATOM_UDEF_STEREO_COUNT>
0

> <PUBCHEM_BOND_DEF_STEREO_COUNT>
0

> <PUBCHEM_BOND_UDEF_STEREO_COUNT>
0

> <PUBCHEM_ISOTOPIC_ATOM_COUNT>
0

> <PUBCHEM_COMPONENT_COUNT>
1

> <PUBCHEM_CACTVS_TAUTO_COUNT>
2

> <PUBCHEM_CONFORMER_ID>
02F85AF100000001

> <PUBCHEM_MMFF94_ENERGY>
61.3913

> <PUBCHEM_FEATURE_SELFOVERLAP>
35.629

> <PUBCHEM_SHAPE_FINGERPRINT>
10616163 171 18122345941531413223
108634 29 17822300135775513699
114674 6 18334296461223554162
11552529 35 18059571442931353319
11963148 33 18335132090599195178
12107183 9 17983026557315102233
12506688 2 18341611469380887672
12553582 1 18339912741101156878
12596602 18 16917068918709142491
12969540 37 18191866730605952622
12990986 174 17903632986936448434
13140716 1 18197489838948877472
13150687 139 17898033432705216084
13402501 40 18335422374099473602
13533116 47 18271807964948973529
1361 2 18266738172415496995
138480 1 18411139104158497382
14617045 38 18410302410206635999
14790565 3 17615695462887416340
14863182 85 18263087772172297108
14866123 147 17116635441548052345
15196674 1 18409448124389950635
15250474 111 18200304563247504031
15352361 1 18408886213639429227
15422964 175 18267576915008359716
15475509 84 18059867116907233745
15927050 60 17764590211567232324
17492 89 18265894644590171858
17859628 70 18412268341202278890
17909252 39 18055643815672962766
1813 80 17312822706157964749
19141452 34 18410857664290409929
19930381 70 18409729517652143051
20028762 73 18129094692368772854
20645477 70 18334291010999167305
20739085 24 18190459548458045892
20775530 9 18193838145889990070
21033650 10 16226600785190492485
21065198 57 18411419505968611321
21197605 99 18122912202836593939
21267235 1 18410300211088077474
21279426 13 18118678826046124533
21285901 2 17894623782063173765
21344244 181 17987259849202381382
221490 88 18337952294820558868
23379529 103 17838060299652458814
23559900 14 18410285921974931641
239999 70 18130234834555161966
3117164 225 18198357152150529761
314173 41 18340775853386404030
33824 294 18410572937559304184
3421961 26 18411699880779183368
350125 39 18338796827431269960
3737641 26 18269283374055345102
3882209 13 17181051498889052843
4214541 1 18410573981574291977
463206 1 18337391655365059027
5104073 3 18341043038928254944
5309563 4 18411981334344549438
6433294 58 18410575067568313875
6443956 14 18409451392485867268
6823239 73 18128827339381480062
7399639 24 18337657715883596260
9709674 26 18261958556566500115

> <PUBCHEM_SHAPE_MULTIPOLES>
452.27
10.83
4.38
0.74
10.47
1.84
-0.06
6.1
1.88
-3.67
-0.65
0.09
-0.15
1.11

> <PUBCHEM_SHAPE_SELFOVERLAP>
1008.909

> <PUBCHEM_SHAPE_VOLUME>
241.5

> <PUBCHEM_COORDINATE_TYPE>
2
5
10

$$$$
