49830744
  -OEChem-10052120443D

 46 48  0     1  0  0  0  0  0999 V2000
    2.2514    0.9076   -0.5782 O   0  0  0  0  0  0  0  0  0  0  0  0
    5.8049    1.4077   -1.2780 N   0  0  0  0  0  0  0  0  0  0  0  0
    0.3555    3.6065    1.0041 N   0  0  0  0  0  0  0  0  0  0  0  0
   -6.9383   -1.2611   -0.3730 N   0  0  0  0  0  0  0  0  0  0  0  0
    4.6130    0.5901   -1.0318 C   0  0  1  0  0  0  0  0  0  0  0  0
    5.0201   -0.6005   -0.1384 C   0  0  0  0  0  0  0  0  0  0  0  0
    3.5391    1.4821   -0.3975 C   0  0  0  0  0  0  0  0  0  0  0  0
    3.9025   -1.5674    0.1693 C   0  0  0  0  0  0  0  0  0  0  0  0
    3.1022   -1.3732    1.2951 C   0  0  0  0  0  0  0  0  0  0  0  0
    3.6703   -2.6552   -0.6722 C   0  0  0  0  0  0  0  0  0  0  0  0
    1.1831    1.6250   -0.1062 C   0  0  0  0  0  0  0  0  0  0  0  0
    2.0696   -2.2670    1.5794 C   0  0  0  0  0  0  0  0  0  0  0  0
    2.6378   -3.5489   -0.3881 C   0  0  0  0  0  0  0  0  0  0  0  0
    1.8374   -3.3548    0.7378 C   0  0  0  0  0  0  0  0  0  0  0  0
   -0.1158    1.1461   -0.2360 C   0  0  0  0  0  0  0  0  0  0  0  0
   -1.1795    1.8961    0.2537 C   0  0  0  0  0  0  0  0  0  0  0  0
    1.3637    2.8496    0.5161 C   0  0  0  0  0  0  0  0  0  0  0  0
   -0.8932    3.1087    0.8599 C   0  0  0  0  0  0  0  0  0  0  0  0
   -2.5468    1.4239    0.1347 C   0  0  0  0  0  0  0  0  0  0  0  0
   -2.9155    0.1360   -0.0740 C   0  0  0  0  0  0  0  0  0  0  0  0
   -4.3043   -0.3462   -0.1775 C   0  0  0  0  0  0  0  0  0  0  0  0
   -5.3314    0.5422   -0.4758 C   0  0  0  0  0  0  0  0  0  0  0  0
   -4.5925   -1.6917    0.0231 C   0  0  0  0  0  0  0  0  0  0  0  0
   -6.6195    0.0392   -0.5614 C   0  0  0  0  0  0  0  0  0  0  0  0
   -5.9138   -2.0949   -0.0850 C   0  0  0  0  0  0  0  0  0  0  0  0
    4.2440    0.2045   -1.9906 H   0  0  0  0  0  0  0  0  0  0  0  0
    5.4411   -0.2348    0.8090 H   0  0  0  0  0  0  0  0  0  0  0  0
    5.8376   -1.1582   -0.6167 H   0  0  0  0  0  0  0  0  0  0  0  0
    3.7627    1.6301    0.6671 H   0  0  0  0  0  0  0  0  0  0  0  0
    3.5568    2.4525   -0.9127 H   0  0  0  0  0  0  0  0  0  0  0  0
    6.5208    0.8418   -1.7320 H   0  0  0  0  0  0  0  0  0  0  0  0
    5.5791    2.1573   -1.9308 H   0  0  0  0  0  0  0  0  0  0  0  0
    3.2743   -0.5334    1.9628 H   0  0  0  0  0  0  0  0  0  0  0  0
    4.2854   -2.8156   -1.5536 H   0  0  0  0  0  0  0  0  0  0  0  0
    1.4465   -2.1158    2.4560 H   0  0  0  0  0  0  0  0  0  0  0  0
    2.4564   -4.3954   -1.0438 H   0  0  0  0  0  0  0  0  0  0  0  0
    1.0332   -4.0504    0.9588 H   0  0  0  0  0  0  0  0  0  0  0  0
   -0.2595    0.1943   -0.7394 H   0  0  0  0  0  0  0  0  0  0  0  0
    2.3288    3.3162    0.6738 H   0  0  0  0  0  0  0  0  0  0  0  0
   -1.6763    3.7432    1.2649 H   0  0  0  0  0  0  0  0  0  0  0  0
   -3.3014    2.1957    0.2598 H   0  0  0  0  0  0  0  0  0  0  0  0
   -2.1669   -0.6484   -0.1481 H   0  0  0  0  0  0  0  0  0  0  0  0
   -5.1733    1.5982   -0.6624 H   0  0  0  0  0  0  0  0  0  0  0  0
   -3.8200   -2.4165    0.2587 H   0  0  0  0  0  0  0  0  0  0  0  0
   -7.4558    0.6896   -0.7962 H   0  0  0  0  0  0  0  0  0  0  0  0
   -6.1915   -3.1334    0.0626 H   0  0  0  0  0  0  0  0  0  0  0  0
  1  7  1  0  0  0  0
  1 11  1  0  0  0  0
  2  5  1  0  0  0  0
  2 31  1  0  0  0  0
  2 32  1  0  0  0  0
  3 17  1  0  0  0  0
  3 18  2  0  0  0  0
  4 24  2  0  0  0  0
  4 25  1  0  0  0  0
  5  6  1  0  0  0  0
  5  7  1  0  0  0  0
  5 26  1  0  0  0  0
  6  8  1  0  0  0  0
  6 27  1  0  0  0  0
  6 28  1  0  0  0  0
  7 29  1  0  0  0  0
  7 30  1  0  0  0  0
  8  9  2  0  0  0  0
  8 10  1  0  0  0  0
  9 12  1  0  0  0  0
  9 33  1  0  0  0  0
 10 13  2  0  0  0  0
 10 34  1  0  0  0  0
 11 15  1  0  0  0  0
 11 17  2  0  0  0  0
 12 14  2  0  0  0  0
 12 35  1  0  0  0  0
 13 14  1  0  0  0  0
 13 36  1  0  0  0  0
 14 37  1  0  0  0  0
 15 16  2  0  0  0  0
 15 38  1  0  0  0  0
 16 18  1  0  0  0  0
 16 19  1  0  0  0  0
 17 39  1  0  0  0  0
 18 40  1  0  0  0  0
 19 20  2  3  0  0  0
 19 41  1  0  0  0  0
 20 21  1  0  0  0  0
 20 42  1  0  0  0  0
 21 22  2  0  0  0  0
 21 23  1  0  0  0  0
 22 24  1  0  0  0  0
 22 43  1  0  0  0  0
 23 25  2  0  0  0  0
 23 44  1  0  0  0  0
 24 45  1  0  0  0  0
 25 46  1  0  0  0  0
M  END
> <PUBCHEM_COMPOUND_CID>
49830744

> <PUBCHEM_CONFORMER_RMSD>
1

> <PUBCHEM_CONFORMER_DIVERSEORDER>
1
93
23
110
45
17
95
7
118
24
64
49
84
37
112
25
74
94
101
106
15
44
67
91
66
69
43
30
68
10
102
55
90
103
111
62
72
65
115
32
78
21
88
121
61
92
11
36
76
41
113
57
8
114
120
19
87
42
105
117
59
13
80
20
48
82
35
26
18
60
33
38
51
63
109
4
56
9
28
27
47
81
85
96
107
71
22
116
53
16
83
3
119
34
12
77
73
98
75
54
108
2
40
52
39
31
100
58
46
14
79
97
104
6
29
89
5
99
86
50
70

> <PUBCHEM_MMFF94_PARTIAL_CHARGES>
41
1 -0.36
10 -0.15
11 0.08
12 -0.15
13 -0.15
14 -0.15
15 -0.15
16 0.03
17 0.16
18 0.16
19 -0.18
2 -0.99
20 -0.18
21 0.03
22 -0.15
23 -0.15
24 0.16
25 0.16
3 -0.62
31 0.36
32 0.36
33 0.15
34 0.15
35 0.15
36 0.15
37 0.15
38 0.15
39 0.15
4 -0.62
40 0.15
41 0.15
42 0.15
43 0.15
44 0.15
45 0.15
46 0.15
5 0.27
6 0.14
7 0.28
8 -0.14
9 -0.15

> <PUBCHEM_EFFECTIVE_ROTOR_COUNT>
7

> <PUBCHEM_PHARMACOPHORE_FEATURES>
8
1 1 acceptor
1 2 cation
1 2 donor
1 3 acceptor
1 4 acceptor
6 3 11 15 16 17 18 rings
6 4 21 22 23 24 25 rings
6 8 9 10 12 13 14 rings

> <PUBCHEM_HEAVY_ATOM_COUNT>
25

> <PUBCHEM_ATOM_DEF_STEREO_COUNT>
0

> <PUBCHEM_ATOM_UDEF_STEREO_COUNT>
1

> <PUBCHEM_BOND_DEF_STEREO_COUNT>
0

> <PUBCHEM_BOND_UDEF_STEREO_COUNT>
1

> <PUBCHEM_ISOTOPIC_ATOM_COUNT>
0

> <PUBCHEM_COMPONENT_COUNT>
1

> <PUBCHEM_CACTVS_TAUTO_COUNT>
1

> <PUBCHEM_CONFORMER_ID>
02F85B5800000001

> <PUBCHEM_MMFF94_ENERGY>
74.0355

> <PUBCHEM_FEATURE_SELFOVERLAP>
40.597

> <PUBCHEM_SHAPE_FINGERPRINT>
11135609 187 18261679289172006692
11315621 136 18265337214312875862
11443803 9 18188211018422533196
12107183 9 18200323118012495345
12553582 1 18272355490846672998
13150687 139 18042987518177957972
13631057 29 18341618071199516560
14681490 219 18408885122881311929
14840074 17 17775278349115069271
14931854 50 18334584537970557118
15003188 105 18188489073682409162
15110567 62 18408884057376079171
15183329 4 18409444766200545229
15324115 91 15864065421369770499
15537594 2 18272649082169004847
15927050 60 17766273563447182308
16993438 75 17606413295462821163
17492 89 18124314909248451790
17909252 39 18342173341144375106
19026451 147 18187918422831300314
19319366 153 18334292106622529646
20028762 73 18339079281866752654
20567600 70 18411133654087734907
21285901 2 17603860083507303749
21703447 108 18130217255065083633
23559900 14 18262513823113851753
25222932 49 18271239525431567943
2838139 119 9079114436881170561
3004659 81 18259701185737022551
314194 84 18411706495477192721
3421961 26 18342451577974609777
4073 2 18190462856326207529
46194498 28 17458625661482887853
463206 1 18338515356295936955
4756261 7 17973972130896056314
6697151 62 17916564541392369509

> <PUBCHEM_SHAPE_MULTIPOLES>
493.68
14.99
4.41
1.05
20.51
0.35
0.17
7.52
-4.58
-2.99
1.07
-0.97
0.07
-1.08

> <PUBCHEM_SHAPE_SELFOVERLAP>
1056.371

> <PUBCHEM_SHAPE_VOLUME>
270.3

> <PUBCHEM_COORDINATE_TYPE>
2
5
10

$$$$
