25011729
  -OEChem-10062122013D

 43 46  0     0  0  0  0  0  0999 V2000
   -3.8411    1.0288   -2.5648 Cl  0  0  0  0  0  0  0  0  0  0  0  0
    2.3951    2.3558   -1.2654 S   0  0  0  0  0  0  0  0  0  0  0  0
   -1.4399   -0.2990    1.8144 O   0  0  0  0  0  0  0  0  0  0  0  0
   -1.5154    1.9381    2.7073 O   0  0  0  0  0  0  0  0  0  0  0  0
    3.5570    3.2156   -1.4411 O   0  0  0  0  0  0  0  0  0  0  0  0
    1.6274    1.9318   -2.4283 O   0  0  0  0  0  0  0  0  0  0  0  0
   -2.5084   -1.0456   -0.7665 N   0  0  0  0  0  0  0  0  0  0  0  0
    1.8722   -2.5828    0.0978 N   0  0  0  0  0  0  0  0  0  0  0  0
   -0.2968   -1.7969   -0.3301 N   0  0  0  0  0  0  0  0  0  0  0  0
    0.1611   -4.1595   -0.2054 N   0  0  0  0  0  0  0  0  0  0  0  0
   -2.0439    0.5764    0.9654 C   0  0  0  0  0  0  0  0  0  0  0  0
   -2.5698    0.2709   -0.2731 C   0  0  0  0  0  0  0  0  0  0  0  0
   -2.0872    1.8539    1.4753 C   0  0  0  0  0  0  0  0  0  0  0  0
    2.9021    0.9416   -0.3758 C   0  0  0  0  0  0  0  0  0  0  0  0
    2.5929   -1.3799    0.2170 C   0  0  0  0  0  0  0  0  0  0  0  0
    2.1877   -0.2505   -0.4942 C   0  0  0  0  0  0  0  0  0  0  0  0
   -3.1548    1.3086   -1.0030 C   0  0  0  0  0  0  0  0  0  0  0  0
   -2.6586    2.8965    0.7748 C   0  0  0  0  0  0  0  0  0  0  0  0
   -1.1067    0.5708    2.9155 C   0  0  0  0  0  0  0  0  0  0  0  0
    4.0217    1.0043    0.4536 C   0  0  0  0  0  0  0  0  0  0  0  0
   -1.5892   -2.0980   -0.5734 C   0  0  0  0  0  0  0  0  0  0  0  0
   -3.1989    2.6137   -0.4821 C   0  0  0  0  0  0  0  0  0  0  0  0
    3.7126   -1.3173    1.0465 C   0  0  0  0  0  0  0  0  0  0  0  0
    4.4271   -0.1252    1.1649 C   0  0  0  0  0  0  0  0  0  0  0  0
    1.2632    3.1835   -0.1713 C   0  0  0  0  0  0  0  0  0  0  0  0
    0.5117   -2.8601   -0.1585 C   0  0  0  0  0  0  0  0  0  0  0  0
   -2.0754   -3.3874   -0.6468 C   0  0  0  0  0  0  0  0  0  0  0  0
   -1.1455   -4.3881   -0.4526 C   0  0  0  0  0  0  0  0  0  0  0  0
    1.3433   -0.2869   -1.1738 H   0  0  0  0  0  0  0  0  0  0  0  0
   -3.1686   -1.2262   -1.5183 H   0  0  0  0  0  0  0  0  0  0  0  0
   -2.6898    3.9015    1.1799 H   0  0  0  0  0  0  0  0  0  0  0  0
   -0.0206    0.5480    3.0627 H   0  0  0  0  0  0  0  0  0  0  0  0
   -1.5934    0.1924    3.8217 H   0  0  0  0  0  0  0  0  0  0  0  0
    4.5889    1.9238    0.5669 H   0  0  0  0  0  0  0  0  0  0  0  0
   -3.6538    3.4209   -1.0517 H   0  0  0  0  0  0  0  0  0  0  0  0
    4.0380   -2.1899    1.6071 H   0  0  0  0  0  0  0  0  0  0  0  0
    2.3970   -3.4148    0.3509 H   0  0  0  0  0  0  0  0  0  0  0  0
    5.2977   -0.0759    1.8123 H   0  0  0  0  0  0  0  0  0  0  0  0
    0.9009    4.0832   -0.6728 H   0  0  0  0  0  0  0  0  0  0  0  0
    0.4308    2.5124    0.0391 H   0  0  0  0  0  0  0  0  0  0  0  0
    1.7879    3.4527    0.7472 H   0  0  0  0  0  0  0  0  0  0  0  0
   -3.1159   -3.6150   -0.8420 H   0  0  0  0  0  0  0  0  0  0  0  0
   -1.4339   -5.4331   -0.4913 H   0  0  0  0  0  0  0  0  0  0  0  0
  1 17  1  0  0  0  0
  2  5  2  0  0  0  0
  2  6  2  0  0  0  0
  2 14  1  0  0  0  0
  2 25  1  0  0  0  0
  3 11  1  0  0  0  0
  3 19  1  0  0  0  0
  4 13  1  0  0  0  0
  4 19  1  0  0  0  0
  7 12  1  0  0  0  0
  7 21  1  0  0  0  0
  7 30  1  0  0  0  0
  8 15  1  0  0  0  0
  8 26  1  0  0  0  0
  8 37  1  0  0  0  0
  9 21  2  0  0  0  0
  9 26  1  0  0  0  0
 10 26  2  0  0  0  0
 10 28  1  0  0  0  0
 11 12  1  0  0  0  0
 11 13  2  0  0  0  0
 12 17  2  0  0  0  0
 13 18  1  0  0  0  0
 14 16  1  0  0  0  0
 14 20  2  0  0  0  0
 15 16  2  0  0  0  0
 15 23  1  0  0  0  0
 16 29  1  0  0  0  0
 17 22  1  0  0  0  0
 18 22  2  0  0  0  0
 18 31  1  0  0  0  0
 19 32  1  0  0  0  0
 19 33  1  0  0  0  0
 20 24  1  0  0  0  0
 20 34  1  0  0  0  0
 21 27  1  0  0  0  0
 22 35  1  0  0  0  0
 23 24  2  0  0  0  0
 23 36  1  0  0  0  0
 24 38  1  0  0  0  0
 25 39  1  0  0  0  0
 25 40  1  0  0  0  0
 25 41  1  0  0  0  0
 27 28  2  0  0  0  0
 27 42  1  0  0  0  0
 28 43  1  0  0  0  0
M  END
> <PUBCHEM_COMPOUND_CID>
25011729

> <PUBCHEM_CONFORMER_RMSD>
1

> <PUBCHEM_CONFORMER_DIVERSEORDER>
1
142
135
102
180
2
211
37
72
234
44
171
47
116
84
117
218
172
205
51
15
87
170
97
184
115
38
238
3
68
155
202
186
79
41
81
212
158
71
223
220
101
33
53
90
24
103
217
190
66
221
177
63
194
105
196
96
204
36
160
94
128
200
193
140
199
65
42
176
132
151
179
219
26
149
126
23
98
231
55
130
203
162
17
175
242
20
136
19
11
154
165
137
52
187
188
185
216
114
12
86
39
201
208
195
168
67
141
207
174
146
164
213
245
18
74
95
85
61
222
144
133
143
46
29
157
104
230
75
150
34
237
91
229
45
62
233
139
227
48
181
239
129
118
209
134
107
4
226
182
127
49
6
191
153
122
40
59
198
123
50
70
92
73
78
173
148
232
166
99
197
145
163
210
69
100
121
189
80
228
240
215
58
112
119
178
8
159
241
27
161
138
106
183
131
57
125
147
113
10
167
244
225
25
32
35
5
109
224
235
108
54
236
243
56
93
13
214
88
60
9
169
156
64
16
77
31
152
83
30
206
21
124
43
28
110
14
192
7
76
120
22
111
89
82

> <PUBCHEM_MMFF94_PARTIAL_CHARGES>
38
1 -0.18
10 -0.62
11 0.08
12 0.1
13 0.08
14 -0.01
15 0.1
16 -0.15
17 0.18
18 -0.15
19 0.56
2 1.2
20 -0.15
21 0.41
22 -0.15
23 -0.15
24 -0.15
25 0.11
26 0.72
27 -0.15
28 0.16
29 0.15
3 -0.36
30 0.4
31 0.15
34 0.15
35 0.15
36 0.15
37 0.4
38 0.15
4 -0.36
42 0.15
43 0.15
5 -0.65
6 -0.65
7 -0.6
8 -0.6
9 -0.62

> <PUBCHEM_EFFECTIVE_ROTOR_COUNT>
5.6

> <PUBCHEM_PHARMACOPHORE_FEATURES>
11
1 3 acceptor
1 4 acceptor
1 5 acceptor
1 6 acceptor
1 7 donor
1 8 donor
4 8 9 10 26 cation
5 3 4 11 13 19 rings
6 11 12 13 17 18 22 rings
6 14 15 16 20 23 24 rings
6 9 10 21 26 27 28 rings

> <PUBCHEM_HEAVY_ATOM_COUNT>
28

> <PUBCHEM_ATOM_DEF_STEREO_COUNT>
0

> <PUBCHEM_ATOM_UDEF_STEREO_COUNT>
0

> <PUBCHEM_BOND_DEF_STEREO_COUNT>
0

> <PUBCHEM_BOND_UDEF_STEREO_COUNT>
0

> <PUBCHEM_ISOTOPIC_ATOM_COUNT>
0

> <PUBCHEM_COMPONENT_COUNT>
1

> <PUBCHEM_CACTVS_TAUTO_COUNT>
9

> <PUBCHEM_CONFORMER_ID>
017DA61100000001

> <PUBCHEM_MMFF94_ENERGY>
89.2082

> <PUBCHEM_FEATURE_SELFOVERLAP>
55.995

> <PUBCHEM_SHAPE_FINGERPRINT>
10708813 3 18268423542908340604
11244481 83 16446769213511918748
11370993 70 18269821043614633538
11582403 64 16880448434363611919
11640471 11 17557709057994418625
11725454 13 16952234423270205551
12156800 1 16458182195921985820
12788726 201 18127137591614185279
13009979 54 18194114343000636674
13402501 40 15167997234481065888
13583140 156 17603864455858045947
13965767 371 17978212877965092074
15003188 8 18193259807295119784
19311894 1 18124908826222162764
19319366 153 17983832542430743087
19930381 70 17976814294832068549
20642791 105 18266152076403185155
20642791 239 17183352153506551159
20715895 44 18263910086863769629
20764821 26 17256802296564631454
22113638 7 18336537236140702108
22749437 52 18270957951617581842
3380486 145 16396343115034253826
3493558 16 18187911924546028383
35225 105 17835847240084171113
469060 322 16888091491432275058
474 4 18052535470092904187
9981440 41 18269256990050615107

> <PUBCHEM_SHAPE_MULTIPOLES>
538.54
7.01
5.26
2.14
3.53
4.3
-0.74
-3.79
0.96
-0.55
1.44
-1.28
-1.63
-1.69

> <PUBCHEM_SHAPE_SELFOVERLAP>
1162.025

> <PUBCHEM_SHAPE_VOLUME>
298

> <PUBCHEM_COORDINATE_TYPE>
2
5
10

$$$$
