49830286
  -OEChem-10062121533D

 37 39  0     0  0  0  0  0  0999 V2000
    0.4234    3.0363    2.0640 O   0  0  0  0  0  0  0  0  0  0  0  0
   -0.5099    3.0980   -2.0399 O   0  0  0  0  0  0  0  0  0  0  0  0
    0.5764    1.2921   -0.1523 N   0  0  0  0  0  0  0  0  0  0  0  0
    1.2258   -3.3060    0.0396 N   0  0  0  0  0  0  0  0  0  0  0  0
    2.7694    0.4197   -0.2055 N   0  0  0  0  0  0  0  0  0  0  0  0
    3.2273   -1.9696   -0.1113 N   0  0  0  0  0  0  0  0  0  0  0  0
    1.0280    2.6697   -0.2377 C   0  0  0  0  0  0  0  0  0  0  0  0
    0.9471   -1.0938   -0.0539 C   0  0  0  0  0  0  0  0  0  0  0  0
   -0.3271   -1.7110    0.0310 C   0  0  0  0  0  0  0  0  0  0  0  0
    1.4343    0.2098   -0.1373 C   0  0  0  0  0  0  0  0  0  0  0  0
    1.8920   -2.1124   -0.0465 C   0  0  0  0  0  0  0  0  0  0  0  0
    1.5013    3.1297    1.1394 C   0  0  0  0  0  0  0  0  0  0  0  0
   -0.1225    3.5370   -0.7427 C   0  0  0  0  0  0  0  0  0  0  0  0
   -0.1248   -3.0737    0.0873 C   0  0  0  0  0  0  0  0  0  0  0  0
   -1.6413   -1.1355    0.0616 C   0  0  0  0  0  0  0  0  0  0  0  0
   -2.2258   -0.7982    1.2824 C   0  0  0  0  0  0  0  0  0  0  0  0
   -2.3342   -0.9134   -1.1284 C   0  0  0  0  0  0  0  0  0  0  0  0
    3.5720   -0.6682   -0.1885 C   0  0  0  0  0  0  0  0  0  0  0  0
   -3.5035   -0.2391    1.3131 C   0  0  0  0  0  0  0  0  0  0  0  0
   -3.6116   -0.3543   -1.0977 C   0  0  0  0  0  0  0  0  0  0  0  0
   -4.1963   -0.0171    0.1231 C   0  0  0  0  0  0  0  0  0  0  0  0
    1.8496    2.7443   -0.9613 H   0  0  0  0  0  0  0  0  0  0  0  0
   -0.4162    1.1254   -0.0461 H   0  0  0  0  0  0  0  0  0  0  0  0
    1.8362    4.1717    1.1029 H   0  0  0  0  0  0  0  0  0  0  0  0
    2.3265    2.5153    1.5128 H   0  0  0  0  0  0  0  0  0  0  0  0
   -1.0010    3.4710   -0.0916 H   0  0  0  0  0  0  0  0  0  0  0  0
    0.1850    4.5856   -0.8126 H   0  0  0  0  0  0  0  0  0  0  0  0
   -0.8160   -3.9030    0.1571 H   0  0  0  0  0  0  0  0  0  0  0  0
    1.6627   -4.2169    0.0642 H   0  0  0  0  0  0  0  0  0  0  0  0
   -1.6989   -0.9632    2.2193 H   0  0  0  0  0  0  0  0  0  0  0  0
   -1.8924   -1.1691   -2.0886 H   0  0  0  0  0  0  0  0  0  0  0  0
    4.6362   -0.4657   -0.2444 H   0  0  0  0  0  0  0  0  0  0  0  0
   -3.9585    0.0241    2.2635 H   0  0  0  0  0  0  0  0  0  0  0  0
   -4.1510   -0.1808   -2.0243 H   0  0  0  0  0  0  0  0  0  0  0  0
    0.7580    3.3442    2.9235 H   0  0  0  0  0  0  0  0  0  0  0  0
   -1.2384    3.6733   -2.3297 H   0  0  0  0  0  0  0  0  0  0  0  0
   -5.1908    0.4186    0.1468 H   0  0  0  0  0  0  0  0  0  0  0  0
  1 12  1  0  0  0  0
  1 35  1  0  0  0  0
  2 13  1  0  0  0  0
  2 36  1  0  0  0  0
  3  7  1  0  0  0  0
  3 10  1  0  0  0  0
  3 23  1  0  0  0  0
  4 11  1  0  0  0  0
  4 14  1  0  0  0  0
  4 29  1  0  0  0  0
  5 10  2  0  0  0  0
  5 18  1  0  0  0  0
  6 11  1  0  0  0  0
  6 18  2  0  0  0  0
  7 12  1  0  0  0  0
  7 13  1  0  0  0  0
  7 22  1  0  0  0  0
  8  9  1  0  0  0  0
  8 10  1  0  0  0  0
  8 11  2  0  0  0  0
  9 14  2  0  0  0  0
  9 15  1  0  0  0  0
 12 24  1  0  0  0  0
 12 25  1  0  0  0  0
 13 26  1  0  0  0  0
 13 27  1  0  0  0  0
 14 28  1  0  0  0  0
 15 16  2  0  0  0  0
 15 17  1  0  0  0  0
 16 19  1  0  0  0  0
 16 30  1  0  0  0  0
 17 20  2  0  0  0  0
 17 31  1  0  0  0  0
 18 32  1  0  0  0  0
 19 21  2  0  0  0  0
 19 33  1  0  0  0  0
 20 21  1  0  0  0  0
 20 34  1  0  0  0  0
 21 37  1  0  0  0  0
M  END
> <PUBCHEM_COMPOUND_CID>
49830286

> <PUBCHEM_CONFORMER_RMSD>
0.8

> <PUBCHEM_CONFORMER_DIVERSEORDER>
1
10
7
3
12
4
11
13
2
8
5
9
6

> <PUBCHEM_MMFF94_PARTIAL_CHARGES>
31
1 -0.68
10 0.41
11 0.11
12 0.28
13 0.28
14 -0.3
15 0.05
16 -0.15
17 -0.15
18 0.47
19 -0.15
2 -0.68
20 -0.15
21 -0.15
23 0.4
28 0.15
29 0.27
3 -0.87
30 0.15
31 0.15
32 0.15
33 0.15
34 0.15
35 0.4
36 0.4
37 0.15
4 0.03
5 -0.62
6 -0.57
7 0.37
9 -0.05

> <PUBCHEM_EFFECTIVE_ROTOR_COUNT>
5

> <PUBCHEM_PHARMACOPHORE_FEATURES>
12
1 1 acceptor
1 1 donor
1 2 acceptor
1 2 donor
1 3 donor
1 4 cation
1 4 donor
3 3 5 10 cation
3 5 6 18 cation
5 4 8 9 11 14 rings
6 15 16 17 19 20 21 rings
6 5 6 8 10 11 18 rings

> <PUBCHEM_HEAVY_ATOM_COUNT>
21

> <PUBCHEM_ATOM_DEF_STEREO_COUNT>
0

> <PUBCHEM_ATOM_UDEF_STEREO_COUNT>
0

> <PUBCHEM_BOND_DEF_STEREO_COUNT>
0

> <PUBCHEM_BOND_UDEF_STEREO_COUNT>
0

> <PUBCHEM_ISOTOPIC_ATOM_COUNT>
0

> <PUBCHEM_COMPONENT_COUNT>
1

> <PUBCHEM_CACTVS_TAUTO_COUNT>
9

> <PUBCHEM_CONFORMER_ID>
02F8598E00000001

> <PUBCHEM_MMFF94_ENERGY>
50.3208

> <PUBCHEM_FEATURE_SELFOVERLAP>
61.137

> <PUBCHEM_SHAPE_FINGERPRINT>
10165383 225 17470764411661242833
104564 63 18194127304536312790
10688039 33 17823993238191197325
10967382 1 18410013243043653422
11578080 2 17269151057426563915
11725454 13 16665939376630798367
12156800 1 17251415878930753145
12403259 327 16083311502267035641
13032168 30 16325377353159097280
13132413 78 18342466893527144321
13140716 1 18194400228175264442
14178342 30 17617652597979291592
14790565 3 18337409222055801364
16945 1 18339927111945801434
17138139 8 17042841770374798821
17357779 13 18337665304768353789
18219364 16 18262802998539364019
18785283 64 18117298040893364601
18981168 100 17834400398788313393
20600515 1 18269570484408923772
21041028 32 18050292466145706131
21160774 45 17689441481488425828
21197605 99 17333107325881493969
21236236 1 18050008784305021478
21524375 3 17623020400644842647
21639500 275 18339353158544663207
21641784 216 17898877680997882590
22182313 1 17552354376655209342
2334 1 17690280834156743494
23419403 2 15515239803970336778
238 59 17901909163183302607
2748010 2 17976260458419479934
283562 15 18194125118862617930
350125 39 17761223501855644514
352729 6 16968287700598750358
3886686 26 17764554979960910834
474 4 18270111456624177995
6438718 38 17626659402344961141
81228 2 17903932053866477810
84936 182 17986668388475463265

> <PUBCHEM_SHAPE_MULTIPOLES>
400.51
5.43
4.53
1.31
3.76
2.32
-0.13
-0.84
-0.16
-3.26
0.12
0.61
1.19
0.46

> <PUBCHEM_SHAPE_SELFOVERLAP>
874.221

> <PUBCHEM_SHAPE_VOLUME>
215.5

> <PUBCHEM_COORDINATE_TYPE>
2
5
10

$$$$
