49830410
  -OEChem-10052115183D

 80 86  0     0  0  0  0  0  0999 V2000
    4.4532   -1.6464   -4.0677 S   0  0  0  0  0  0  0  0  0  0  0  0
   -2.1713   -3.8704   -1.9246 O   0  0  0  0  0  0  0  0  0  0  0  0
   -1.9029    0.5574   -2.2325 O   0  0  0  0  0  0  0  0  0  0  0  0
   -1.6717   -2.4745    0.4631 N   0  0  0  0  0  0  0  0  0  0  0  0
    4.1638   -1.0156   -1.5988 N   0  0  0  0  0  0  0  0  0  0  0  0
    2.8687    0.3236   -2.8316 N   0  0  0  0  0  0  0  0  0  0  0  0
    1.6866   -0.8429    3.5570 N   0  0  0  0  0  0  0  0  0  0  0  0
   -0.5852    4.7185    0.4725 N   0  0  0  0  0  0  0  0  0  0  0  0
   -1.6786    2.5475   -0.9990 N   0  0  0  0  0  0  0  0  0  0  0  0
    2.6393   -0.5176    1.4409 N   0  0  0  0  0  0  0  0  0  0  0  0
    3.9865   -0.4095    3.4362 N   0  0  0  0  0  0  0  0  0  0  0  0
   -0.8080   -2.2759   -0.7060 C   0  0  0  0  0  0  0  0  0  0  0  0
   -2.4119   -3.7435    0.4856 C   0  0  0  0  0  0  0  0  0  0  0  0
   -1.5915   -2.5675   -1.9809 C   0  0  0  0  0  0  0  0  0  0  0  0
   -3.1103   -3.9562   -0.8528 C   0  0  0  0  0  0  0  0  0  0  0  0
   -1.3374   -1.8834    1.6858 C   0  0  0  0  0  0  0  0  0  0  0  0
    0.0008   -1.6599    2.0100 C   0  0  0  0  0  0  0  0  0  0  0  0
    3.5470   -0.1986   -0.7018 C   0  0  0  0  0  0  0  0  0  0  0  0
    2.7514    0.6209   -1.4862 C   0  0  0  0  0  0  0  0  0  0  0  0
   -2.3424   -1.5170    2.5809 C   0  0  0  0  0  0  0  0  0  0  0  0
    1.8983    1.6606   -0.9918 C   0  0  0  0  0  0  0  0  0  0  0  0
    0.3337   -1.0699    3.2295 C   0  0  0  0  0  0  0  0  0  0  0  0
    3.7245   -0.6603   -2.8375 C   0  0  0  0  0  0  0  0  0  0  0  0
   -0.3055    2.6201   -0.7474 C   0  0  0  0  0  0  0  0  0  0  0  0
    3.7512   -0.2612    0.7210 C   0  0  0  0  0  0  0  0  0  0  0  0
    0.2372    3.6826   -0.0246 C   0  0  0  0  0  0  0  0  0  0  0  0
    0.5251    1.6093   -1.2310 C   0  0  0  0  0  0  0  0  0  0  0  0
   -2.0095   -0.9272    3.8004 C   0  0  0  0  0  0  0  0  0  0  0  0
   -0.6714   -0.7036    4.1246 C   0  0  0  0  0  0  0  0  0  0  0  0
    2.4411    2.7229   -0.2689 C   0  0  0  0  0  0  0  0  0  0  0  0
    1.6105    3.7340    0.2146 C   0  0  0  0  0  0  0  0  0  0  0  0
    5.0681   -2.0503   -1.5630 C   0  0  0  0  0  0  0  0  0  0  0  0
    2.8262   -0.5771    2.7733 C   0  0  0  0  0  0  0  0  0  0  0  0
    4.9987   -0.0698    1.2791 C   0  0  0  0  0  0  0  0  0  0  0  0
    5.3380   -2.5096   -2.7968 C   0  0  0  0  0  0  0  0  0  0  0  0
   -0.8497    5.8924   -0.3328 C   0  0  0  0  0  0  0  0  0  0  0  0
   -1.1783    4.6132    1.7894 C   0  0  0  0  0  0  0  0  0  0  0  0
   -2.3795    1.5558   -1.7019 C   0  0  0  0  0  0  0  0  0  0  0  0
    5.0570   -0.1562    2.6551 C   0  0  0  0  0  0  0  0  0  0  0  0
   -3.8678    1.8646   -1.7415 C   0  0  0  0  0  0  0  0  0  0  0  0
   -4.7184    0.7962   -1.1057 C   0  0  0  0  0  0  0  0  0  0  0  0
   -5.2007   -0.2618   -1.8762 C   0  0  0  0  0  0  0  0  0  0  0  0
   -5.0235    0.8649    0.2537 C   0  0  0  0  0  0  0  0  0  0  0  0
   -5.9881   -1.2513   -1.2871 C   0  0  0  0  0  0  0  0  0  0  0  0
   -5.8107   -0.1246    0.8428 C   0  0  0  0  0  0  0  0  0  0  0  0
   -6.2929   -1.1827    0.0724 C   0  0  0  0  0  0  0  0  0  0  0  0
   -0.4261   -1.2520   -0.7466 H   0  0  0  0  0  0  0  0  0  0  0  0
    0.0446   -2.9637   -0.6448 H   0  0  0  0  0  0  0  0  0  0  0  0
   -1.6999   -4.5583    0.6665 H   0  0  0  0  0  0  0  0  0  0  0  0
   -3.1633   -3.7715    1.2821 H   0  0  0  0  0  0  0  0  0  0  0  0
   -0.9251   -2.5293   -2.8483 H   0  0  0  0  0  0  0  0  0  0  0  0
   -2.3926   -1.8403   -2.1412 H   0  0  0  0  0  0  0  0  0  0  0  0
   -3.9080   -3.2238   -1.0084 H   0  0  0  0  0  0  0  0  0  0  0  0
   -3.5640   -4.9518   -0.8827 H   0  0  0  0  0  0  0  0  0  0  0  0
    0.7774   -2.0050    1.3364 H   0  0  0  0  0  0  0  0  0  0  0  0
   -3.3909   -1.6724    2.3419 H   0  0  0  0  0  0  0  0  0  0  0  0
    0.1726    0.7659   -1.8063 H   0  0  0  0  0  0  0  0  0  0  0  0
   -2.7924   -0.6390    4.4959 H   0  0  0  0  0  0  0  0  0  0  0  0
    3.5096    2.7874   -0.0776 H   0  0  0  0  0  0  0  0  0  0  0  0
   -0.4252   -0.2415    5.0772 H   0  0  0  0  0  0  0  0  0  0  0  0
    2.0455    4.5577    0.7750 H   0  0  0  0  0  0  0  0  0  0  0  0
    1.8649   -0.7412    4.5517 H   0  0  0  0  0  0  0  0  0  0  0  0
    5.4796   -2.4161   -0.6347 H   0  0  0  0  0  0  0  0  0  0  0  0
   -2.2203    3.3167   -0.6124 H   0  0  0  0  0  0  0  0  0  0  0  0
    5.8840    0.1413    0.6922 H   0  0  0  0  0  0  0  0  0  0  0  0
    6.0163   -3.3192   -3.0266 H   0  0  0  0  0  0  0  0  0  0  0  0
   -1.3233    6.6889    0.2508 H   0  0  0  0  0  0  0  0  0  0  0  0
   -1.5157    5.6444   -1.1658 H   0  0  0  0  0  0  0  0  0  0  0  0
    0.0802    6.3003   -0.7439 H   0  0  0  0  0  0  0  0  0  0  0  0
   -1.9674    5.3571    1.9418 H   0  0  0  0  0  0  0  0  0  0  0  0
   -0.4168    4.7654    2.5614 H   0  0  0  0  0  0  0  0  0  0  0  0
   -1.6293    3.6261    1.9396 H   0  0  0  0  0  0  0  0  0  0  0  0
    5.9942   -0.0186    3.1836 H   0  0  0  0  0  0  0  0  0  0  0  0
   -4.0937    2.8310   -1.2749 H   0  0  0  0  0  0  0  0  0  0  0  0
   -4.1453    1.9850   -2.7967 H   0  0  0  0  0  0  0  0  0  0  0  0
   -4.9673   -0.3286   -2.9354 H   0  0  0  0  0  0  0  0  0  0  0  0
   -4.6503    1.6825    0.8647 H   0  0  0  0  0  0  0  0  0  0  0  0
   -6.3620   -2.0762   -1.8865 H   0  0  0  0  0  0  0  0  0  0  0  0
   -6.0459   -0.0726    1.9018 H   0  0  0  0  0  0  0  0  0  0  0  0
   -6.9040   -1.9543    0.5314 H   0  0  0  0  0  0  0  0  0  0  0  0
  1 23  1  0  0  0  0
  1 35  1  0  0  0  0
  2 14  1  0  0  0  0
  2 15  1  0  0  0  0
  3 38  2  0  0  0  0
  4 12  1  0  0  0  0
  4 13  1  0  0  0  0
  4 16  1  0  0  0  0
  5 18  1  0  0  0  0
  5 23  1  0  0  0  0
  5 32  1  0  0  0  0
  6 19  1  0  0  0  0
  6 23  2  0  0  0  0
  7 22  1  0  0  0  0
  7 33  1  0  0  0  0
  7 62  1  0  0  0  0
  8 26  1  0  0  0  0
  8 36  1  0  0  0  0
  8 37  1  0  0  0  0
  9 24  1  0  0  0  0
  9 38  1  0  0  0  0
  9 64  1  0  0  0  0
 10 25  2  0  0  0  0
 10 33  1  0  0  0  0
 11 33  2  0  0  0  0
 11 39  1  0  0  0  0
 12 14  1  0  0  0  0
 12 47  1  0  0  0  0
 12 48  1  0  0  0  0
 13 15  1  0  0  0  0
 13 49  1  0  0  0  0
 13 50  1  0  0  0  0
 14 51  1  0  0  0  0
 14 52  1  0  0  0  0
 15 53  1  0  0  0  0
 15 54  1  0  0  0  0
 16 17  1  0  0  0  0
 16 20  2  0  0  0  0
 17 22  2  0  0  0  0
 17 55  1  0  0  0  0
 18 19  2  0  0  0  0
 18 25  1  0  0  0  0
 19 21  1  0  0  0  0
 20 28  1  0  0  0  0
 20 56  1  0  0  0  0
 21 27  2  0  0  0  0
 21 30  1  0  0  0  0
 22 29  1  0  0  0  0
 24 26  2  0  0  0  0
 24 27  1  0  0  0  0
 25 34  1  0  0  0  0
 26 31  1  0  0  0  0
 27 57  1  0  0  0  0
 28 29  2  0  0  0  0
 28 58  1  0  0  0  0
 29 60  1  0  0  0  0
 30 31  2  0  0  0  0
 30 59  1  0  0  0  0
 31 61  1  0  0  0  0
 32 35  2  0  0  0  0
 32 63  1  0  0  0  0
 34 39  2  0  0  0  0
 34 65  1  0  0  0  0
 35 66  1  0  0  0  0
 36 67  1  0  0  0  0
 36 68  1  0  0  0  0
 36 69  1  0  0  0  0
 37 70  1  0  0  0  0
 37 71  1  0  0  0  0
 37 72  1  0  0  0  0
 38 40  1  0  0  0  0
 39 73  1  0  0  0  0
 40 41  1  0  0  0  0
 40 74  1  0  0  0  0
 40 75  1  0  0  0  0
 41 42  2  0  0  0  0
 41 43  1  0  0  0  0
 42 44  1  0  0  0  0
 42 76  1  0  0  0  0
 43 45  2  0  0  0  0
 43 77  1  0  0  0  0
 44 46  2  0  0  0  0
 44 78  1  0  0  0  0
 45 46  1  0  0  0  0
 45 79  1  0  0  0  0
 46 80  1  0  0  0  0
M  END
> <PUBCHEM_COMPOUND_CID>
49830410

> <PUBCHEM_CONFORMER_RMSD>
1.4

> <PUBCHEM_CONFORMER_DIVERSEORDER>
1
156
54
238
188
198
200
222
98
73
145
216
25
29
183
77
186
47
114
106
221
135
95
118
104
229
231
230
201
169
133
132
236
37
180
141
232
119
34
194
203
21
224
154
57
182
190
170
122
142
131
83
81
60
151
46
215
210
72
86
149
94
153
103
75
59
125
79
177
107
61
208
32
39
65
158
97
202
172
4
179
160
45
209
109
218
128
68
7
101
192
71
184
161
130
176
206
13
144
171
117
140
214
174
24
207
159
111
30
205
92
137
213
19
138
113
227
26
228
143
129
17
219
87
2
11
58
220
233
23
146
127
124
64
16
100
234
115
178
225
175
226
166
147
56
187
235
136
167
204
44
85
102
212
35
41
148
173
84
50
199
80
181
18
116
62
76
70
55
69
195
157
66
5
27
139
105
20
165
82
31
217
120
22
126
99
121
51
223
191
10
211
150
48
108
96
164
14
43
185
78
52
67
15
3
196
152
9
90
63
40
38
134
53
197
8
33
163
36
49
12
89
6
237
123
88
189
112
155
74
28
93
110
162
168
42
91
193

> <PUBCHEM_MMFF94_PARTIAL_CHARGES>
64
1 -0.16
10 -0.62
11 -0.62
12 0.37
13 0.37
14 0.28
15 0.28
16 0.1
17 -0.15
18 -0.2
19 0.17
2 -0.56
20 -0.15
21 0.05
22 0.1
23 0.24
24 0.12
25 0.36
26 0.1
27 -0.15
28 -0.15
29 -0.15
3 -0.57
30 -0.15
31 -0.15
32 -0.18
33 0.72
34 -0.15
35 -0.05
36 0.37
37 0.37
38 0.57
39 0.16
4 -0.84
40 0.2
41 -0.14
42 -0.15
43 -0.15
44 -0.15
45 -0.15
46 -0.15
5 0.33
55 0.15
56 0.15
57 0.15
58 0.15
59 0.15
6 -0.57
60 0.15
61 0.15
62 0.4
63 0.15
64 0.37
65 0.15
66 0.15
7 -0.6
73 0.15
76 0.15
77 0.15
78 0.15
79 0.15
8 -0.84
80 0.15
9 -0.55

> <PUBCHEM_EFFECTIVE_ROTOR_COUNT>
11.2

> <PUBCHEM_PHARMACOPHORE_FEATURES>
16
1 10 acceptor
1 2 acceptor
1 3 acceptor
1 4 cation
1 7 donor
1 8 cation
1 9 donor
3 5 6 23 cation
4 7 10 11 33 cation
5 1 5 23 32 35 rings
5 5 6 18 19 23 rings
6 10 11 25 33 34 39 rings
6 16 17 20 22 28 29 rings
6 2 4 12 13 14 15 rings
6 21 24 26 27 30 31 rings
6 41 42 43 44 45 46 rings

> <PUBCHEM_HEAVY_ATOM_COUNT>
46

> <PUBCHEM_ATOM_DEF_STEREO_COUNT>
0

> <PUBCHEM_ATOM_UDEF_STEREO_COUNT>
0

> <PUBCHEM_BOND_DEF_STEREO_COUNT>
0

> <PUBCHEM_BOND_UDEF_STEREO_COUNT>
0

> <PUBCHEM_ISOTOPIC_ATOM_COUNT>
0

> <PUBCHEM_COMPONENT_COUNT>
1

> <PUBCHEM_CACTVS_TAUTO_COUNT>
6

> <PUBCHEM_CONFORMER_ID>
02F85A0A00000001

> <PUBCHEM_MMFF94_ENERGY>
178.5284

> <PUBCHEM_FEATURE_SELFOVERLAP>
81.454

> <PUBCHEM_SHAPE_FINGERPRINT>
10032420 55 17097180936937131233
11578080 2 17631445838021249314
12355185 1 18186521025209054859
12758862 65 18197756955681483353
12788726 201 18187649067935696112
13636023 51 17846779641866575782
14932702 115 17385735728352364121
15001296 14 18119799473271299935
15264996 19 17315386724371659801
15968369 153 18041279988644638411
17138139 8 18040998410198633932
17809404 112 17631731702623620918
20764821 26 17241599688231099737
21792938 131 17905045855182991215
50150288 127 17533249446734540174
563151 74 16199570490138548190
9896288 288 17834083396090583280

> <PUBCHEM_SHAPE_MULTIPOLES>
898.92
11.67
5.64
4.56
3.52
6.91
-3.05
-6.67
5.5
2.88
1.3
-4
-2.77
1.81

> <PUBCHEM_SHAPE_SELFOVERLAP>
1969.98

> <PUBCHEM_SHAPE_VOLUME>
489.4

> <PUBCHEM_COORDINATE_TYPE>
2
5
10

$$$$
