49830748
  -OEChem-10062121533D

 33 34  0     0  0  0  0  0  0999 V2000
   -3.3887    0.8727    0.1346 O   0  0  0  0  0  0  0  0  0  0  0  0
   -2.2168   -2.5492   -0.3125 N   0  0  0  0  0  0  0  0  0  0  0  0
   -6.9908    1.6553    0.1202 N   0  0  0  0  0  0  0  0  0  0  0  0
    6.0363    0.7028    0.1297 N   0  0  0  0  0  0  0  0  0  0  0  0
   -0.3115   -1.0875   -0.0325 C   0  0  0  0  0  0  0  0  0  0  0  0
   -2.5367   -0.1754    0.0154 C   0  0  0  0  0  0  0  0  0  0  0  0
   -4.7871    0.5926    0.0424 C   0  0  0  0  0  0  0  0  0  0  0  0
   -1.1603    0.0069    0.0926 C   0  0  0  0  0  0  0  0  0  0  0  0
   -5.5584    1.8902    0.2240 C   0  0  0  0  0  0  0  0  0  0  0  0
    1.1513   -0.9284    0.0455 C   0  0  0  0  0  0  0  0  0  0  0  0
    3.2641    0.3934   -0.0511 C   0  0  0  0  0  0  0  0  0  0  0  0
   -0.8846   -2.3331   -0.2320 C   0  0  0  0  0  0  0  0  0  0  0  0
    1.8217    0.2327   -0.1451 C   0  0  0  0  0  0  0  0  0  0  0  0
   -3.0101   -1.4619   -0.1863 C   0  0  0  0  0  0  0  0  0  0  0  0
    4.0270   -0.5408    0.6407 C   0  0  0  0  0  0  0  0  0  0  0  0
    3.8857    1.4820   -0.6528 C   0  0  0  0  0  0  0  0  0  0  0  0
    5.3970   -0.3423    0.7014 C   0  0  0  0  0  0  0  0  0  0  0  0
    5.2619    1.5900   -0.5343 C   0  0  0  0  0  0  0  0  0  0  0  0
   -5.0220    0.1747   -0.9451 H   0  0  0  0  0  0  0  0  0  0  0  0
   -5.0847   -0.1063    0.8350 H   0  0  0  0  0  0  0  0  0  0  0  0
   -0.7862    1.0114    0.2687 H   0  0  0  0  0  0  0  0  0  0  0  0
   -5.3192    2.3350    1.1968 H   0  0  0  0  0  0  0  0  0  0  0  0
   -5.2466    2.6174   -0.5341 H   0  0  0  0  0  0  0  0  0  0  0  0
    1.6852   -1.8511    0.2565 H   0  0  0  0  0  0  0  0  0  0  0  0
    1.2820    1.1395   -0.4048 H   0  0  0  0  0  0  0  0  0  0  0  0
   -0.2790   -3.2284   -0.3387 H   0  0  0  0  0  0  0  0  0  0  0  0
   -4.0601   -1.7181   -0.2637 H   0  0  0  0  0  0  0  0  0  0  0  0
    3.6061   -1.4004    1.1497 H   0  0  0  0  0  0  0  0  0  0  0  0
    3.3270    2.2325   -1.2028 H   0  0  0  0  0  0  0  0  0  0  0  0
   -7.2870    1.0058    0.8476 H   0  0  0  0  0  0  0  0  0  0  0  0
   -7.4903    2.5264    0.2945 H   0  0  0  0  0  0  0  0  0  0  0  0
    6.0366   -1.0391    1.2332 H   0  0  0  0  0  0  0  0  0  0  0  0
    5.7948    2.4204   -0.9857 H   0  0  0  0  0  0  0  0  0  0  0  0
  1  6  1  0  0  0  0
  1  7  1  0  0  0  0
  2 12  2  0  0  0  0
  2 14  1  0  0  0  0
  3  9  1  0  0  0  0
  3 30  1  0  0  0  0
  3 31  1  0  0  0  0
  4 17  2  0  0  0  0
  4 18  1  0  0  0  0
  5  8  2  0  0  0  0
  5 10  1  0  0  0  0
  5 12  1  0  0  0  0
  6  8  1  0  0  0  0
  6 14  2  0  0  0  0
  7  9  1  0  0  0  0
  7 19  1  0  0  0  0
  7 20  1  0  0  0  0
  8 21  1  0  0  0  0
  9 22  1  0  0  0  0
  9 23  1  0  0  0  0
 10 13  2  3  0  0  0
 10 24  1  0  0  0  0
 11 13  1  0  0  0  0
 11 15  2  0  0  0  0
 11 16  1  0  0  0  0
 12 26  1  0  0  0  0
 13 25  1  0  0  0  0
 14 27  1  0  0  0  0
 15 17  1  0  0  0  0
 15 28  1  0  0  0  0
 16 18  2  0  0  0  0
 16 29  1  0  0  0  0
 17 32  1  0  0  0  0
 18 33  1  0  0  0  0
M  END
> <PUBCHEM_COMPOUND_CID>
49830748

> <PUBCHEM_CONFORMER_RMSD>
0.6

> <PUBCHEM_CONFORMER_DIVERSEORDER>
6
3
32
15
12
4
21
30
8
16
27
5
23
19
20
24
13
26
17
11
31
18
1
28
29
7
25
9
2
22
10
14

> <PUBCHEM_MMFF94_PARTIAL_CHARGES>
29
1 -0.36
10 -0.18
11 0.03
12 0.16
13 -0.18
14 0.16
15 -0.15
16 -0.15
17 0.16
18 0.16
2 -0.62
21 0.15
24 0.15
25 0.15
26 0.15
27 0.15
28 0.15
29 0.15
3 -0.99
30 0.36
31 0.36
32 0.15
33 0.15
4 -0.62
5 0.03
6 0.08
7 0.28
8 -0.15
9 0.27

> <PUBCHEM_EFFECTIVE_ROTOR_COUNT>
5

> <PUBCHEM_PHARMACOPHORE_FEATURES>
7
1 1 acceptor
1 2 acceptor
1 3 cation
1 3 donor
1 4 acceptor
6 2 5 6 8 12 14 rings
6 4 11 15 16 17 18 rings

> <PUBCHEM_HEAVY_ATOM_COUNT>
18

> <PUBCHEM_ATOM_DEF_STEREO_COUNT>
0

> <PUBCHEM_ATOM_UDEF_STEREO_COUNT>
0

> <PUBCHEM_BOND_DEF_STEREO_COUNT>
0

> <PUBCHEM_BOND_UDEF_STEREO_COUNT>
1

> <PUBCHEM_ISOTOPIC_ATOM_COUNT>
0

> <PUBCHEM_COMPONENT_COUNT>
1

> <PUBCHEM_CACTVS_TAUTO_COUNT>
1

> <PUBCHEM_CONFORMER_ID>
02F85B5C00000006

> <PUBCHEM_MMFF94_ENERGY>
53.1069

> <PUBCHEM_FEATURE_SELFOVERLAP>
35.522

> <PUBCHEM_SHAPE_FINGERPRINT>
10 15 18187093849682764481
10014705 185 18412546534866017515
100836 57 18410577275307597865
10354089 29 17676209065654614016
10411042 1 17763462116985634935
10912923 1 17968649540738493538
117890 112 18342174475321780152
12107183 9 18263636274088129194
12236239 1 18260265269888890306
12390115 104 18272104790033395987
12596602 18 17603309266952824049
13073987 5 18263078980553681050
13167372 99 18335983064894867824
13167823 11 18263077872600032362
13533116 47 17702944717386744766
13685833 64 9511451235159842357
13785724 45 17687740541707207098
15196674 1 18337109068260148942
15501527 16 18412266138321587785
15778101 99 18410296934033370382
17539 30 17771613822915453903
17834072 32 18410577318104368093
20281389 69 18260545615089190109
20526848 3 18412268303091223609
20621476 66 18410578400710504584
20645477 56 18412545414137951159
20645477 70 15913060768253708892
21065198 48 18261387905926796282
21236236 1 18412543250012887519
212847 35 18411698790411644544
21421861 104 17895742999359924930
21426921 1 18269835492275611623
23198884 109 15769780130983484593
23402539 116 18201431501892165372
23402655 69 18335983168669804518
23559900 14 18130516262646298798
25147074 1 18339342099167815415
268830 7 17896026793381318716
2767999 5 18343580716313154265
2838139 119 18336819823761979397
293599 30 18413108342769568809
300161 21 18343016714271638696
312425 54 15936414412249739489
335352 9 18411138013679727862
3472631 163 18411986887700444228
4214541 1 18337952393705163326
465052 167 10665236933729704033
5104073 3 18042116704324745688
5283384 27 17968369049742187621
573450 72 18337381747228675346
59682541 35 18335994147059855545
59682541 52 16629690526292276956
59755656 215 18200038339741359382
59755656 520 18410004430103266647
6327066 14 18410290286094221357
633830 44 18113898299517237530
77188 2 17258216801326887895
77779 3 18335983185813023158
8272917 22 18334857191480515490

> <PUBCHEM_SHAPE_MULTIPOLES>
349.62
15.39
2.18
0.71
3.44
0.63
0.01
-11.06
1.28
2.17
-0.26
-0.4
-0.02
-1.04

> <PUBCHEM_SHAPE_SELFOVERLAP>
737.239

> <PUBCHEM_SHAPE_VOLUME>
194.4

> <PUBCHEM_COORDINATE_TYPE>
2
5
10

$$$$
