49830799
  -OEChem-10062121553D

 49 53  0     0  0  0  0  0  0999 V2000
   -5.4123    1.4695   -1.1452 S   0  0  0  0  0  0  0  0  0  0  0  0
    1.0052    3.5082    2.5056 F   0  0  0  0  0  0  0  0  0  0  0  0
    0.4021   -5.2317    1.3855 F   0  0  0  0  0  0  0  0  0  0  0  0
    3.0214    0.9701   -0.7144 N   0  0  0  0  0  0  0  0  0  0  0  0
   -2.9406    1.4032   -0.4645 N   0  0  0  0  0  0  0  0  0  0  0  0
    3.2959    2.4795    0.8938 N   0  0  0  0  0  0  0  0  0  0  0  0
   -3.7547   -0.6759   -0.3903 N   0  0  0  0  0  0  0  0  0  0  0  0
    5.2162    1.7244   -0.3386 N   0  0  0  0  0  0  0  0  0  0  0  0
    3.3411    0.0559   -1.7891 C   0  0  0  0  0  0  0  0  0  0  0  0
    2.8853   -1.3936   -1.5305 C   0  0  0  0  0  0  0  0  0  0  0  0
    1.7680    1.1949   -0.2056 C   0  0  0  0  0  0  0  0  0  0  0  0
    1.9658    2.1405    0.7966 C   0  0  0  0  0  0  0  0  0  0  0  0
   -0.5725    1.1360    0.2166 C   0  0  0  0  0  0  0  0  0  0  0  0
    0.5164    0.6681   -0.5263 C   0  0  0  0  0  0  0  0  0  0  0  0
   -1.8933    0.6283   -0.0700 C   0  0  0  0  0  0  0  0  0  0  0  0
    3.8993    1.7600   -0.0256 C   0  0  0  0  0  0  0  0  0  0  0  0
    3.2215   -2.2665   -2.7421 C   0  0  0  0  0  0  0  0  0  0  0  0
    3.5325   -1.9836   -0.2750 C   0  0  0  0  0  0  0  0  0  0  0  0
    0.8606    2.5995    1.5329 C   0  0  0  0  0  0  0  0  0  0  0  0
   -0.4058    2.0845    1.2283 C   0  0  0  0  0  0  0  0  0  0  0  0
   -2.4197   -0.6526   -0.0310 C   0  0  0  0  0  0  0  0  0  0  0  0
   -4.0102    0.5787   -0.6378 C   0  0  0  0  0  0  0  0  0  0  0  0
   -1.6927   -1.8324    0.3339 C   0  0  0  0  0  0  0  0  0  0  0  0
   -3.1698    2.7350   -0.7160 C   0  0  0  0  0  0  0  0  0  0  0  0
   -4.4415    2.9520   -1.0922 C   0  0  0  0  0  0  0  0  0  0  0  0
   -1.1141   -1.9316    1.5993 C   0  0  0  0  0  0  0  0  0  0  0  0
   -1.5638   -2.8816   -0.5762 C   0  0  0  0  0  0  0  0  0  0  0  0
   -0.4065   -3.0798    1.9545 C   0  0  0  0  0  0  0  0  0  0  0  0
   -0.8561   -4.0299   -0.2209 C   0  0  0  0  0  0  0  0  0  0  0  0
   -0.2774   -4.1290    1.0443 C   0  0  0  0  0  0  0  0  0  0  0  0
    4.4086    0.0676   -2.0123 H   0  0  0  0  0  0  0  0  0  0  0  0
    2.8352    0.4503   -2.6800 H   0  0  0  0  0  0  0  0  0  0  0  0
    1.8051   -1.4610   -1.3978 H   0  0  0  0  0  0  0  0  0  0  0  0
    0.3717   -0.0233   -1.3471 H   0  0  0  0  0  0  0  0  0  0  0  0
    2.7332   -1.8826   -3.6440 H   0  0  0  0  0  0  0  0  0  0  0  0
    2.8775   -3.2950   -2.5890 H   0  0  0  0  0  0  0  0  0  0  0  0
    4.3010   -2.2951   -2.9256 H   0  0  0  0  0  0  0  0  0  0  0  0
    3.2379   -3.0304   -0.1424 H   0  0  0  0  0  0  0  0  0  0  0  0
    3.2249   -1.4432    0.6257 H   0  0  0  0  0  0  0  0  0  0  0  0
    4.6254   -1.9467   -0.3381 H   0  0  0  0  0  0  0  0  0  0  0  0
   -1.2574    2.4374    1.8068 H   0  0  0  0  0  0  0  0  0  0  0  0
   -2.3926    3.4769   -0.6143 H   0  0  0  0  0  0  0  0  0  0  0  0
    5.6329    1.1452   -1.0569 H   0  0  0  0  0  0  0  0  0  0  0  0
    5.8777    2.3070    0.1657 H   0  0  0  0  0  0  0  0  0  0  0  0
   -4.8616    3.9152   -1.3450 H   0  0  0  0  0  0  0  0  0  0  0  0
   -1.2094   -1.1297    2.3277 H   0  0  0  0  0  0  0  0  0  0  0  0
   -2.0066   -2.8199   -1.5675 H   0  0  0  0  0  0  0  0  0  0  0  0
    0.0431   -3.1580    2.9399 H   0  0  0  0  0  0  0  0  0  0  0  0
   -0.7544   -4.8466   -0.9295 H   0  0  0  0  0  0  0  0  0  0  0  0
  1 22  1  0  0  0  0
  1 25  1  0  0  0  0
  2 19  1  0  0  0  0
  3 30  1  0  0  0  0
  4  9  1  0  0  0  0
  4 11  1  0  0  0  0
  4 16  1  0  0  0  0
  5 15  1  0  0  0  0
  5 22  1  0  0  0  0
  5 24  1  0  0  0  0
  6 12  1  0  0  0  0
  6 16  2  0  0  0  0
  7 21  1  0  0  0  0
  7 22  2  0  0  0  0
  8 16  1  0  0  0  0
  8 43  1  0  0  0  0
  8 44  1  0  0  0  0
  9 10  1  0  0  0  0
  9 31  1  0  0  0  0
  9 32  1  0  0  0  0
 10 17  1  0  0  0  0
 10 18  1  0  0  0  0
 10 33  1  0  0  0  0
 11 12  2  0  0  0  0
 11 14  1  0  0  0  0
 12 19  1  0  0  0  0
 13 14  2  0  0  0  0
 13 15  1  0  0  0  0
 13 20  1  0  0  0  0
 14 34  1  0  0  0  0
 15 21  2  0  0  0  0
 17 35  1  0  0  0  0
 17 36  1  0  0  0  0
 17 37  1  0  0  0  0
 18 38  1  0  0  0  0
 18 39  1  0  0  0  0
 18 40  1  0  0  0  0
 19 20  2  0  0  0  0
 20 41  1  0  0  0  0
 21 23  1  0  0  0  0
 23 26  2  0  0  0  0
 23 27  1  0  0  0  0
 24 25  2  0  0  0  0
 24 42  1  0  0  0  0
 25 45  1  0  0  0  0
 26 28  1  0  0  0  0
 26 46  1  0  0  0  0
 27 29  2  0  0  0  0
 27 47  1  0  0  0  0
 28 30  2  0  0  0  0
 28 48  1  0  0  0  0
 29 30  1  0  0  0  0
 29 49  1  0  0  0  0
M  END
> <PUBCHEM_COMPOUND_CID>
49830799

> <PUBCHEM_CONFORMER_RMSD>
0.8

> <PUBCHEM_CONFORMER_DIVERSEORDER>
1
7
10
13
19
17
15
2
5
14
18
6
4
16
3
11
8
9
12

> <PUBCHEM_MMFF94_PARTIAL_CHARGES>
37
1 -0.16
11 -0.15
12 0.23
13 0.05
14 -0.15
15 -0.2
16 0.27
19 0.19
2 -0.19
20 -0.15
21 0.17
22 0.24
23 0.05
24 -0.18
25 -0.05
26 -0.15
27 -0.15
28 -0.15
29 -0.15
3 -0.19
30 0.19
34 0.15
4 0.05
41 0.15
42 0.15
43 0.4
44 0.4
45 0.15
46 0.15
47 0.15
48 0.15
49 0.15
5 0.33
6 -0.57
7 -0.57
8 -0.88
9 0.26

> <PUBCHEM_EFFECTIVE_ROTOR_COUNT>
4

> <PUBCHEM_PHARMACOPHORE_FEATURES>
9
1 8 donor
3 10 17 18 hydrophobe
3 5 7 22 cation
4 4 6 8 16 cation
5 1 5 22 24 25 rings
5 4 6 11 12 16 rings
5 5 7 15 21 22 rings
6 11 12 13 14 19 20 rings
6 23 26 27 28 29 30 rings

> <PUBCHEM_HEAVY_ATOM_COUNT>
30

> <PUBCHEM_ATOM_DEF_STEREO_COUNT>
0

> <PUBCHEM_ATOM_UDEF_STEREO_COUNT>
0

> <PUBCHEM_BOND_DEF_STEREO_COUNT>
0

> <PUBCHEM_BOND_UDEF_STEREO_COUNT>
0

> <PUBCHEM_ISOTOPIC_ATOM_COUNT>
0

> <PUBCHEM_COMPONENT_COUNT>
1

> <PUBCHEM_CACTVS_TAUTO_COUNT>
2

> <PUBCHEM_CONFORMER_ID>
02F85B8F00000001

> <PUBCHEM_MMFF94_ENERGY>
72.0322

> <PUBCHEM_FEATURE_SELFOVERLAP>
46.032

> <PUBCHEM_SHAPE_FINGERPRINT>
10675989 125 18195808470811646280
1100329 8 18337946771303368322
11370993 70 18334856116947037252
11582403 64 16549960712410649425
12035759 4 17837496245859890557
12156800 1 14061764472697720550
12553582 1 17915484738872856940
12788726 201 17390243855070163815
13140716 1 18267598921961614897
133893 2 16816331362387016695
13402501 40 18125728039124242494
13617811 41 18041562555060273605
140371 6 18272096040764014960
14114211 68 17683559189059034887
14251757 17 18342741805983477485
14289585 56 13721439905921516247
14931854 50 18123200008515296302
14955137 171 17042611912921225025
21033648 29 18339348777916002505
23419403 2 16959333914074066369
23559900 14 18343582941280449292
3298306 158 18263642858077555031
508706 21 18194970870821580646
513532 50 17485334847762942917
5265222 85 18261401065622085124
57527295 17 18059849554564023941
6669772 16 18410567370933814831
81228 2 17760365887755848683
9709674 26 18341335612099847348

> <PUBCHEM_SHAPE_MULTIPOLES>
581.78
8.3
5.75
1.88
2.94
5.89
0.02
-6.04
-5.29
-1.25
2.88
-1.19
0.33
1.99

> <PUBCHEM_SHAPE_SELFOVERLAP>
1293.98

> <PUBCHEM_SHAPE_VOLUME>
318.4

> <PUBCHEM_COORDINATE_TYPE>
2
5
10

$$$$
