868869
  -OEChem-10052115193D

 44 47  0     0  0  0  0  0  0999 V2000
    4.8870   -1.2749    0.2446 O   0  0  0  0  0  0  0  0  0  0  0  0
   -1.2994    0.1164   -1.9457 O   0  0  0  0  0  0  0  0  0  0  0  0
   -1.7175   -0.1105    0.3306 N   0  0  0  0  0  0  0  0  0  0  0  0
    3.2110    0.6817    0.1307 N   0  0  0  0  0  0  0  0  0  0  0  0
    0.5108    0.3633   -0.4602 C   0  0  0  0  0  0  0  0  0  0  0  0
    1.0259    1.6412   -0.2041 C   0  0  0  0  0  0  0  0  0  0  0  0
    2.4005    1.7562    0.0911 C   0  0  0  0  0  0  0  0  0  0  0  0
   -3.1045   -0.4037    0.3468 C   0  0  0  0  0  0  0  0  0  0  0  0
    1.3435   -0.7457   -0.4201 C   0  0  0  0  0  0  0  0  0  0  0  0
    2.6743   -0.5340   -0.1224 C   0  0  0  0  0  0  0  0  0  0  0  0
   -0.8950    0.1303   -0.7778 C   0  0  0  0  0  0  0  0  0  0  0  0
   -3.7561   -0.6139    1.5501 C   0  0  0  0  0  0  0  0  0  0  0  0
    0.2091    2.7841   -0.2369 C   0  0  0  0  0  0  0  0  0  0  0  0
   -3.7779   -0.4719   -0.8616 C   0  0  0  0  0  0  0  0  0  0  0  0
   -5.1430   -0.7586   -0.8661 C   0  0  0  0  0  0  0  0  0  0  0  0
    2.9117    3.0259    0.3454 C   0  0  0  0  0  0  0  0  0  0  0  0
   -5.1212   -0.9008    1.5456 C   0  0  0  0  0  0  0  0  0  0  0  0
    3.6109   -1.6249   -0.0566 C   0  0  0  0  0  0  0  0  0  0  0  0
   -5.8145   -0.9731    0.3375 C   0  0  0  0  0  0  0  0  0  0  0  0
    0.7468    4.0417    0.0214 C   0  0  0  0  0  0  0  0  0  0  0  0
   -3.0388   -0.5429    2.8591 C   0  0  0  0  0  0  0  0  0  0  0  0
    2.0998    4.1623    0.3130 C   0  0  0  0  0  0  0  0  0  0  0  0
   -5.8849   -0.8361   -2.1575 C   0  0  0  0  0  0  0  0  0  0  0  0
    3.5063   -2.9821   -0.2353 C   0  0  0  0  0  0  0  0  0  0  0  0
    4.8058   -3.5041   -0.0305 C   0  0  0  0  0  0  0  0  0  0  0  0
    5.6093   -2.4260    0.2588 C   0  0  0  0  0  0  0  0  0  0  0  0
    0.9491   -1.7376   -0.6180 H   0  0  0  0  0  0  0  0  0  0  0  0
   -1.2619   -0.0756    1.2389 H   0  0  0  0  0  0  0  0  0  0  0  0
   -3.3360   -0.3185   -1.8332 H   0  0  0  0  0  0  0  0  0  0  0  0
   -0.8524    2.7214   -0.4631 H   0  0  0  0  0  0  0  0  0  0  0  0
    3.9685    3.1470    0.5763 H   0  0  0  0  0  0  0  0  0  0  0  0
   -5.6602   -1.0704    2.4740 H   0  0  0  0  0  0  0  0  0  0  0  0
   -6.8781   -1.1965    0.3498 H   0  0  0  0  0  0  0  0  0  0  0  0
    0.1129    4.9228   -0.0050 H   0  0  0  0  0  0  0  0  0  0  0  0
   -2.6093    0.4532    3.0094 H   0  0  0  0  0  0  0  0  0  0  0  0
   -3.7124   -0.7337    3.7019 H   0  0  0  0  0  0  0  0  0  0  0  0
   -2.2447   -1.2956    2.9046 H   0  0  0  0  0  0  0  0  0  0  0  0
    2.5278    5.1397    0.5158 H   0  0  0  0  0  0  0  0  0  0  0  0
   -5.9434    0.1550   -2.6190 H   0  0  0  0  0  0  0  0  0  0  0  0
   -5.3816   -1.5222   -2.8471 H   0  0  0  0  0  0  0  0  0  0  0  0
   -6.9070   -1.2044   -2.0187 H   0  0  0  0  0  0  0  0  0  0  0  0
    2.6148   -3.5411   -0.4824 H   0  0  0  0  0  0  0  0  0  0  0  0
    5.1177   -4.5370   -0.0866 H   0  0  0  0  0  0  0  0  0  0  0  0
    6.6594   -2.3158    0.4862 H   0  0  0  0  0  0  0  0  0  0  0  0
  1 18  1  0  0  0  0
  1 26  1  0  0  0  0
  2 11  2  0  0  0  0
  3  8  1  0  0  0  0
  3 11  1  0  0  0  0
  3 28  1  0  0  0  0
  4  7  1  0  0  0  0
  4 10  2  0  0  0  0
  5  6  1  0  0  0  0
  5  9  2  0  0  0  0
  5 11  1  0  0  0  0
  6  7  1  0  0  0  0
  6 13  2  0  0  0  0
  7 16  2  0  0  0  0
  8 12  2  0  0  0  0
  8 14  1  0  0  0  0
  9 10  1  0  0  0  0
  9 27  1  0  0  0  0
 10 18  1  0  0  0  0
 12 17  1  0  0  0  0
 12 21  1  0  0  0  0
 13 20  1  0  0  0  0
 13 30  1  0  0  0  0
 14 15  2  0  0  0  0
 14 29  1  0  0  0  0
 15 19  1  0  0  0  0
 15 23  1  0  0  0  0
 16 22  1  0  0  0  0
 16 31  1  0  0  0  0
 17 19  2  0  0  0  0
 17 32  1  0  0  0  0
 18 24  2  0  0  0  0
 19 33  1  0  0  0  0
 20 22  2  0  0  0  0
 20 34  1  0  0  0  0
 21 35  1  0  0  0  0
 21 36  1  0  0  0  0
 21 37  1  0  0  0  0
 22 38  1  0  0  0  0
 23 39  1  0  0  0  0
 23 40  1  0  0  0  0
 23 41  1  0  0  0  0
 24 25  1  0  0  0  0
 24 42  1  0  0  0  0
 25 26  2  0  0  0  0
 25 43  1  0  0  0  0
 26 44  1  0  0  0  0
M  END
> <PUBCHEM_COMPOUND_CID>
868869

> <PUBCHEM_CONFORMER_RMSD>
0.8

> <PUBCHEM_CONFORMER_DIVERSEORDER>
1
10
17
15
12
5
14
13
2
16
8
3
11
9
4
6
7

> <PUBCHEM_MMFF94_PARTIAL_CHARGES>
37
1 -0.28
10 0.36
11 0.54
12 -0.14
13 -0.15
14 -0.15
15 -0.14
16 -0.15
17 -0.15
18 0.09
19 -0.15
2 -0.57
20 -0.15
21 0.14
22 -0.15
23 0.14
24 -0.15
25 -0.15
26 -0.01
27 0.15
28 0.37
29 0.15
3 -0.55
30 0.15
31 0.15
32 0.15
33 0.15
34 0.15
38 0.15
4 -0.62
42 0.15
43 0.15
44 0.15
5 0.09
7 0.31
8 0.12
9 -0.15

> <PUBCHEM_EFFECTIVE_ROTOR_COUNT>
4

> <PUBCHEM_PHARMACOPHORE_FEATURES>
8
1 1 acceptor
1 2 acceptor
1 3 donor
1 4 acceptor
5 1 18 24 25 26 rings
6 4 5 6 7 9 10 rings
6 6 7 13 16 20 22 rings
6 8 12 14 15 17 19 rings

> <PUBCHEM_HEAVY_ATOM_COUNT>
26

> <PUBCHEM_ATOM_DEF_STEREO_COUNT>
0

> <PUBCHEM_ATOM_UDEF_STEREO_COUNT>
0

> <PUBCHEM_BOND_DEF_STEREO_COUNT>
0

> <PUBCHEM_BOND_UDEF_STEREO_COUNT>
0

> <PUBCHEM_ISOTOPIC_ATOM_COUNT>
0

> <PUBCHEM_COMPONENT_COUNT>
1

> <PUBCHEM_CACTVS_TAUTO_COUNT>
2

> <PUBCHEM_CONFORMER_ID>
000D420500000001

> <PUBCHEM_MMFF94_ENERGY>
80.2766

> <PUBCHEM_FEATURE_SELFOVERLAP>
40.642

> <PUBCHEM_SHAPE_FINGERPRINT>
10411042 1 18339638928688922102
10622 236 17700949262796791095
11370993 144 18334298704034693553
11796584 16 17240480308100625018
11991303 11 17467645788446946748
12107183 9 18198915721231878473
12166972 35 18131344220275970939
12236239 1 17561086959578493669
12293681 160 12324253736860953462
12342043 65 17532679986265054259
12422481 6 17416692328013842462
12516196 113 18410293575601462738
12553582 1 18341891862511279750
12596602 18 17132106931708806362
12616971 3 17988651813500604467
12760667 363 18189618241837713962
12788726 201 17685769129825956544
13009979 54 17774735181147724536
13134695 92 18409738377847538133
13140716 1 17981318212588010912
13533116 47 18337677511619309771
13544653 18 18334864870195985222
13583140 156 18193843875808515783
13782708 43 17895481440247091435
13911852 28 18339640014952092822
13955234 65 18268709583541132960
14739800 52 16629670902945397912
14790565 3 17832712648983983748
14866123 147 17832426393132750417
14950920 106 18124628433634947739
15042514 8 17979359655718613196
15475509 84 17988088789673618137
15629462 23 17909249309568786397
15927050 60 17908989047952027846
17349148 13 17775571961637573007
1813 80 18201450125318857910
18222031 100 18340761564167652338
18681886 176 15481559782858508512
19319366 153 17840869899394938225
20645477 70 18334570287000030095
20739085 24 18273503364228168948
20832881 197 18334016056009580987
21033648 29 17677321849142921421
21049683 271 18261966223468427564
21065201 7 16660641912480635691
2132832 1 18131635565082415825
21344244 78 18131062749161770016
23559900 14 18335134332512899539
23845131 108 17762332926415496552
314194 84 18410015424976937982
3421961 26 18411138052207962632
345986 75 17989213628891908168
4015057 19 18337388340140365043
437815 12 18335417920281314455
474 4 18054227914709270313
513202 73 17910962340195549590
5309563 4 18339358540086210398
6004065 56 18410845590462737930
621550 5 17967817115377352932
6823239 73 16588030151117118919
77188 2 18410855422122952372
7970288 3 18339077065109967406
8863177 126 18042136495334371419

> <PUBCHEM_SHAPE_MULTIPOLES>
513.37
12.9
4.32
1.55
9.63
3.95
-0.49
-12.29
0.03
-8.68
-0.23
3.32
-0.47
0.25

> <PUBCHEM_SHAPE_SELFOVERLAP>
1148.087

> <PUBCHEM_SHAPE_VOLUME>
273.5

> <PUBCHEM_COORDINATE_TYPE>
2
5
10

$$$$
