24794418
  -OEChem-10062122013D

 55 58  0     0  0  0  0  0  0999 V2000
    6.5180    3.1934    0.4524 Cl  0  0  0  0  0  0  0  0  0  0  0  0
    3.7027   -1.1967    2.7380 F   0  0  0  0  0  0  0  0  0  0  0  0
   -8.0802    4.1109   -0.3434 F   0  0  0  0  0  0  0  0  0  0  0  0
   -2.1990   -3.6853   -0.2794 O   0  0  0  0  0  0  0  0  0  0  0  0
   -2.9504    0.8152    0.9830 O   0  0  0  0  0  0  0  0  0  0  0  0
    5.0181    0.7346    1.2839 O   0  0  0  0  0  0  0  0  0  0  0  0
   -0.8240   -2.1275    1.7956 O   0  0  0  0  0  0  0  0  0  0  0  0
   -4.6566   -0.2926   -0.2145 N   0  0  0  0  0  0  0  0  0  0  0  0
   -0.3250   -0.4294    0.2421 N   0  0  0  0  0  0  0  0  0  0  0  0
    7.7427    0.1391   -1.8294 N   0  0  0  0  0  0  0  0  0  0  0  0
    8.3619    2.4184   -1.7749 N   0  0  0  0  0  0  0  0  0  0  0  0
   -2.4901   -1.3914    0.3317 C   0  0  0  0  0  0  0  0  0  0  0  0
   -3.3771   -0.1746    0.3863 C   0  0  0  0  0  0  0  0  0  0  0  0
   -2.9500   -2.5306   -0.2075 C   0  0  0  0  0  0  0  0  0  0  0  0
   -5.5464    0.8521   -0.2481 C   0  0  0  0  0  0  0  0  0  0  0  0
   -5.0612   -1.5148   -0.7470 C   0  0  0  0  0  0  0  0  0  0  0  0
   -4.2773   -2.5970   -0.7549 C   0  0  0  0  0  0  0  0  0  0  0  0
   -1.1246   -1.3668    0.8790 C   0  0  0  0  0  0  0  0  0  0  0  0
    1.0343   -0.1335    0.5075 C   0  0  0  0  0  0  0  0  0  0  0  0
   -6.9277    0.6630   -0.2047 C   0  0  0  0  0  0  0  0  0  0  0  0
   -5.0211    2.1421   -0.3238 C   0  0  0  0  0  0  0  0  0  0  0  0
    1.7151   -0.8232    1.5109 C   0  0  0  0  0  0  0  0  0  0  0  0
    1.6922    0.8475   -0.2344 C   0  0  0  0  0  0  0  0  0  0  0  0
   -1.4584   -3.7288   -1.4836 C   0  0  0  0  0  0  0  0  0  0  0  0
   -7.7837    1.7639   -0.2370 C   0  0  0  0  0  0  0  0  0  0  0  0
   -5.8771    3.2428   -0.3562 C   0  0  0  0  0  0  0  0  0  0  0  0
    3.7117    0.4495    1.0307 C   0  0  0  0  0  0  0  0  0  0  0  0
    3.0539   -0.5316    1.7724 C   0  0  0  0  0  0  0  0  0  0  0  0
    3.0309    1.1390    0.0273 C   0  0  0  0  0  0  0  0  0  0  0  0
   -7.2584    3.0538   -0.3127 C   0  0  0  0  0  0  0  0  0  0  0  0
   -0.6400   -5.0020   -1.5135 C   0  0  0  0  0  0  0  0  0  0  0  0
    5.9268    0.5593    0.2538 C   0  0  0  0  0  0  0  0  0  0  0  0
    6.6891    1.6161   -0.2316 C   0  0  0  0  0  0  0  0  0  0  0  0
    6.0715   -0.7073   -0.3014 C   0  0  0  0  0  0  0  0  0  0  0  0
    7.5748    1.3560   -1.2649 C   0  0  0  0  0  0  0  0  0  0  0  0
    6.9848   -0.8636   -1.3315 C   0  0  0  0  0  0  0  0  0  0  0  0
   -6.0403   -1.5751   -1.2073 H   0  0  0  0  0  0  0  0  0  0  0  0
   -4.6226   -3.5275   -1.1919 H   0  0  0  0  0  0  0  0  0  0  0  0
   -0.7425    0.1180   -0.5081 H   0  0  0  0  0  0  0  0  0  0  0  0
   -7.3789   -0.3201   -0.1094 H   0  0  0  0  0  0  0  0  0  0  0  0
   -3.9586    2.3386   -0.4220 H   0  0  0  0  0  0  0  0  0  0  0  0
    1.2730   -1.5946    2.1254 H   0  0  0  0  0  0  0  0  0  0  0  0
    1.1726    1.3936   -1.0176 H   0  0  0  0  0  0  0  0  0  0  0  0
   -2.1321   -3.7200   -2.3495 H   0  0  0  0  0  0  0  0  0  0  0  0
   -0.7807   -2.8701   -1.5603 H   0  0  0  0  0  0  0  0  0  0  0  0
   -8.8591    1.6182   -0.1953 H   0  0  0  0  0  0  0  0  0  0  0  0
   -5.4695    4.2469   -0.4287 H   0  0  0  0  0  0  0  0  0  0  0  0
    3.5241    1.9129   -0.5544 H   0  0  0  0  0  0  0  0  0  0  0  0
   -0.0561   -5.0704   -2.4356 H   0  0  0  0  0  0  0  0  0  0  0  0
   -1.2898   -5.8805   -1.4410 H   0  0  0  0  0  0  0  0  0  0  0  0
    0.0440   -5.0401   -0.6591 H   0  0  0  0  0  0  0  0  0  0  0  0
    5.5040   -1.5601    0.0550 H   0  0  0  0  0  0  0  0  0  0  0  0
    7.1371   -1.8319   -1.7967 H   0  0  0  0  0  0  0  0  0  0  0  0
    8.9935    2.2008   -2.5356 H   0  0  0  0  0  0  0  0  0  0  0  0
    7.9984    3.3608   -1.7041 H   0  0  0  0  0  0  0  0  0  0  0  0
  1 33  1  0  0  0  0
  2 28  1  0  0  0  0
  3 30  1  0  0  0  0
  4 14  1  0  0  0  0
  4 24  1  0  0  0  0
  5 13  2  0  0  0  0
  6 27  1  0  0  0  0
  6 32  1  0  0  0  0
  7 18  2  0  0  0  0
  8 13  1  0  0  0  0
  8 15  1  0  0  0  0
  8 16  1  0  0  0  0
  9 18  1  0  0  0  0
  9 19  1  0  0  0  0
  9 39  1  0  0  0  0
 10 35  2  0  0  0  0
 10 36  1  0  0  0  0
 11 35  1  0  0  0  0
 11 54  1  0  0  0  0
 11 55  1  0  0  0  0
 12 13  1  0  0  0  0
 12 14  2  0  0  0  0
 12 18  1  0  0  0  0
 14 17  1  0  0  0  0
 15 20  2  0  0  0  0
 15 21  1  0  0  0  0
 16 17  2  0  0  0  0
 16 37  1  0  0  0  0
 17 38  1  0  0  0  0
 19 22  2  0  0  0  0
 19 23  1  0  0  0  0
 20 25  1  0  0  0  0
 20 40  1  0  0  0  0
 21 26  2  0  0  0  0
 21 41  1  0  0  0  0
 22 28  1  0  0  0  0
 22 42  1  0  0  0  0
 23 29  2  0  0  0  0
 23 43  1  0  0  0  0
 24 31  1  0  0  0  0
 24 44  1  0  0  0  0
 24 45  1  0  0  0  0
 25 30  2  0  0  0  0
 25 46  1  0  0  0  0
 26 30  1  0  0  0  0
 26 47  1  0  0  0  0
 27 28  2  0  0  0  0
 27 29  1  0  0  0  0
 29 48  1  0  0  0  0
 31 49  1  0  0  0  0
 31 50  1  0  0  0  0
 31 51  1  0  0  0  0
 32 33  2  0  0  0  0
 32 34  1  0  0  0  0
 33 35  1  0  0  0  0
 34 36  2  0  0  0  0
 34 52  1  0  0  0  0
 36 53  1  0  0  0  0
M  END
> <PUBCHEM_COMPOUND_CID>
24794418

> <PUBCHEM_CONFORMER_RMSD>
1

> <PUBCHEM_CONFORMER_DIVERSEORDER>
2
92
102
19
77
75
86
60
106
13
41
30
45
89
20
85
52
94
49
70
100
65
83
64
7
68
73
111
82
26
22
93
67
76
103
96
91
80
40
5
78
59
33
88
84
95
9
101
81
74
99
36
63
51
37
90
38
87
55
44
71
12
23
46
24
104
42
39
108
31
97
8
18
61
79
72
27
47
54
10
107
35
62
16
58
4
110
11
50
53
25
17
69
32
105
34
48
57
43
29
6
28
66
3
109
21
56
98
14
15
1

> <PUBCHEM_MMFF94_PARTIAL_CHARGES>
49
1 -0.18
10 -0.62
11 -0.9
12 0.03
13 0.62
14 0.08
15 0.12
16 -0.04
17 -0.15
18 0.62
19 0.12
2 -0.19
20 -0.15
21 -0.15
22 -0.15
23 -0.15
24 0.28
25 -0.15
26 -0.15
27 0.08
28 0.19
29 -0.15
3 -0.19
30 0.19
32 0.08
33 0.18
34 -0.15
35 0.41
36 0.16
37 0.15
38 0.15
39 0.37
4 -0.36
40 0.15
41 0.15
42 0.15
43 0.15
46 0.15
47 0.15
48 0.15
5 -0.57
52 0.15
53 0.15
54 0.4
55 0.4
6 -0.17
7 -0.57
8 -0.29
9 -0.55

> <PUBCHEM_EFFECTIVE_ROTOR_COUNT>
8

> <PUBCHEM_PHARMACOPHORE_FEATURES>
11
1 11 donor
1 4 acceptor
1 5 acceptor
1 6 acceptor
1 7 acceptor
1 9 donor
3 10 11 35 cation
6 10 32 33 34 35 36 rings
6 15 20 21 25 26 30 rings
6 19 22 23 27 28 29 rings
6 8 12 13 14 16 17 rings

> <PUBCHEM_HEAVY_ATOM_COUNT>
36

> <PUBCHEM_ATOM_DEF_STEREO_COUNT>
0

> <PUBCHEM_ATOM_UDEF_STEREO_COUNT>
0

> <PUBCHEM_BOND_DEF_STEREO_COUNT>
0

> <PUBCHEM_BOND_UDEF_STEREO_COUNT>
0

> <PUBCHEM_ISOTOPIC_ATOM_COUNT>
0

> <PUBCHEM_COMPONENT_COUNT>
1

> <PUBCHEM_CACTVS_TAUTO_COUNT>
4

> <PUBCHEM_CONFORMER_ID>
017A553200000002

> <PUBCHEM_MMFF94_ENERGY>
136.9112

> <PUBCHEM_FEATURE_SELFOVERLAP>
55.824

> <PUBCHEM_SHAPE_FINGERPRINT>
10 15 12468356864705155416
10190206 1 17845941727996536841
10369192 42 18410571769971771821
10454371 7 18413390942796265009
10906281 52 17822010917426234402
10939801 23 18113617854947958997
11991303 11 17774996929345108399
12013929 112 18335995168850725926
13757389 114 18341046428242929119
13782708 43 15913326927076432298
14400156 260 18186516571529260968
14664723 55 18343304722073818817
15064981 113 17131552747936363589
15064981 194 17896606279001391423
15183329 4 18273502264901306922
15188451 53 11024107642442814618
15198563 99 17984402295928989639
15276724 80 17749664104564260684
15297060 5 18273216374925102097
15419008 91 17702370923031240104
15439362 3 18268430131984849839
1577012 14 18187639202632772169
16728433 281 18271535195091406688
16990366 60 9222644719183906141
19304144 158 17483096530216292752
20505436 4 18187079551156920427
21133410 127 17973160630995408325
21781055 127 17916587518675444299
22149856 69 12108063306457511269
23522609 53 17894633673388771316
23559900 14 17702381939194774410
23576562 1 18264204884824433189
24771293 8 17970341732500798924
24771750 20 18200030621696483687
406291 66 11815896747582805284
4073 2 17749112192518684371
44802255 64 18200880672695883831
44880568 143 18339926042958075480
4516262 110 17895464853030113527
50009960 94 8141496009539467441
508180 173 18341050804134102936
5265222 85 18342173422949537955
5718773 13 11312052149513155913
5758199 1 17530966877701527536
5911458 16 18040439879756361749
5937810 71 18187931720118834644
6328613 192 18114465638737259932
6697151 62 15841547488206183626

> <PUBCHEM_SHAPE_MULTIPOLES>
684.78
25.49
4.73
1.55
14.03
2.55
-0.4
-27.05
10.18
-7.65
2.1
2.76
0.69
-0.55

> <PUBCHEM_SHAPE_SELFOVERLAP>
1492.36

> <PUBCHEM_SHAPE_VOLUME>
373.4

> <PUBCHEM_COORDINATE_TYPE>
2
5
10

$$$$
