449240
  -OEChem-10052115143D

 37 39  0     1  0  0  0  0  0999 V2000
   -0.5747   -1.1316   -0.2015 S   0  0  0  0  0  0  0  0  0  0  0  0
   -0.6483   -1.7465   -1.5070 O   0  0  0  0  0  0  0  0  0  0  0  0
   -0.3536   -1.9199    0.9892 O   0  0  0  0  0  0  0  0  0  0  0  0
   -1.9651   -0.1673    0.0314 N   0  0  1  0  0  0  0  0  0  0  0  0
   -4.5308    0.9832    0.6680 N   0  0  0  0  0  0  0  0  0  0  0  0
    4.7551   -0.6043    0.4128 N   0  0  0  0  0  0  0  0  0  0  0  0
   -3.1341   -0.4056   -0.8764 C   0  0  2  0  0  0  0  0  0  0  0  0
   -2.3447    0.1143    1.4440 C   0  0  0  0  0  0  0  0  0  0  0  0
   -4.1285    0.7549   -0.7221 C   0  0  0  0  0  0  0  0  0  0  0  0
   -3.3530    1.2577    1.4930 C   0  0  0  0  0  0  0  0  0  0  0  0
   -3.7762   -1.7706   -0.6303 C   0  0  0  0  0  0  0  0  0  0  0  0
    0.6586    0.1282   -0.2619 C   0  0  0  0  0  0  0  0  0  0  0  0
    2.0148   -0.1370   -0.0342 C   0  0  0  0  0  0  0  0  0  0  0  0
    0.2164    1.4169   -0.5508 C   0  0  0  0  0  0  0  0  0  0  0  0
    2.9374    0.9274   -0.1015 C   0  0  0  0  0  0  0  0  0  0  0  0
    1.1307    2.4656   -0.6163 C   0  0  0  0  0  0  0  0  0  0  0  0
    2.4844   -1.4229    0.2574 C   0  0  0  0  0  0  0  0  0  0  0  0
    2.4863    2.2254   -0.3931 C   0  0  0  0  0  0  0  0  0  0  0  0
    4.2820    0.6304    0.1300 C   0  0  0  0  0  0  0  0  0  0  0  0
    3.8434   -1.5982    0.4691 C   0  0  0  0  0  0  0  0  0  0  0  0
   -2.7743   -0.3717   -1.9124 H   0  0  0  0  0  0  0  0  0  0  0  0
   -1.4567    0.4111    2.0131 H   0  0  0  0  0  0  0  0  0  0  0  0
   -2.7595   -0.7867    1.9092 H   0  0  0  0  0  0  0  0  0  0  0  0
   -3.6848    1.6772   -1.1189 H   0  0  0  0  0  0  0  0  0  0  0  0
   -5.0247    0.5629   -1.3232 H   0  0  0  0  0  0  0  0  0  0  0  0
   -3.6738    1.4180    2.5281 H   0  0  0  0  0  0  0  0  0  0  0  0
   -2.8842    2.1926    1.1615 H   0  0  0  0  0  0  0  0  0  0  0  0
   -5.0010    0.1513    1.0234 H   0  0  0  0  0  0  0  0  0  0  0  0
   -3.0702   -2.5873   -0.8070 H   0  0  0  0  0  0  0  0  0  0  0  0
   -4.1456   -1.8802    0.3938 H   0  0  0  0  0  0  0  0  0  0  0  0
   -4.6245   -1.9197   -1.3069 H   0  0  0  0  0  0  0  0  0  0  0  0
   -0.8141    1.6672   -0.7746 H   0  0  0  0  0  0  0  0  0  0  0  0
    0.7902    3.4702   -0.8504 H   0  0  0  0  0  0  0  0  0  0  0  0
    1.8609   -2.3063    0.2917 H   0  0  0  0  0  0  0  0  0  0  0  0
    3.1869    3.0553   -0.4501 H   0  0  0  0  0  0  0  0  0  0  0  0
    5.0442    1.4040    0.0932 H   0  0  0  0  0  0  0  0  0  0  0  0
    4.2474   -2.5814    0.6881 H   0  0  0  0  0  0  0  0  0  0  0  0
  1  2  2  0  0  0  0
  1  3  2  0  0  0  0
  1  4  1  0  0  0  0
  1 12  1  0  0  0  0
  4  7  1  0  0  0  0
  4  8  1  0  0  0  0
  5  9  1  0  0  0  0
  5 10  1  0  0  0  0
  5 28  1  0  0  0  0
  6 19  2  0  0  0  0
  6 20  1  0  0  0  0
  7  9  1  0  0  0  0
  7 11  1  0  0  0  0
  7 21  1  0  0  0  0
  8 10  1  0  0  0  0
  8 22  1  0  0  0  0
  8 23  1  0  0  0  0
  9 24  1  0  0  0  0
  9 25  1  0  0  0  0
 10 26  1  0  0  0  0
 10 27  1  0  0  0  0
 11 29  1  0  0  0  0
 11 30  1  0  0  0  0
 11 31  1  0  0  0  0
 12 13  1  0  0  0  0
 12 14  2  0  0  0  0
 13 15  2  0  0  0  0
 13 17  1  0  0  0  0
 14 16  1  0  0  0  0
 14 32  1  0  0  0  0
 15 18  1  0  0  0  0
 15 19  1  0  0  0  0
 16 18  2  0  0  0  0
 16 33  1  0  0  0  0
 17 20  2  0  0  0  0
 17 34  1  0  0  0  0
 18 35  1  0  0  0  0
 19 36  1  0  0  0  0
 20 37  1  0  0  0  0
M  END
> <PUBCHEM_COMPOUND_CID>
449240

> <PUBCHEM_CONFORMER_RMSD>
0.6

> <PUBCHEM_CONFORMER_DIVERSEORDER>
1
20
25
10
19
15
5
24
13
14
23
8
16
17
11
6
9
3
22
26
29
28
27
21
12
2
4
7
18

> <PUBCHEM_MMFF94_PARTIAL_CHARGES>
24
1 1.45
10 0.27
12 -0.01
14 -0.15
16 -0.15
17 -0.15
18 -0.15
19 0.16
2 -0.65
20 0.16
28 0.36
3 -0.65
32 0.15
33 0.15
34 0.15
35 0.15
36 0.15
37 0.15
4 -0.85
5 -0.9
6 -0.62
7 0.36
8 0.36
9 0.27

> <PUBCHEM_EFFECTIVE_ROTOR_COUNT>
3.2

> <PUBCHEM_PHARMACOPHORE_FEATURES>
8
1 2 acceptor
1 3 acceptor
1 5 cation
1 5 donor
1 6 acceptor
6 12 13 14 15 16 18 rings
6 4 5 7 8 9 10 rings
6 6 13 15 17 19 20 rings

> <PUBCHEM_HEAVY_ATOM_COUNT>
20

> <PUBCHEM_ATOM_DEF_STEREO_COUNT>
1

> <PUBCHEM_ATOM_UDEF_STEREO_COUNT>
0

> <PUBCHEM_BOND_DEF_STEREO_COUNT>
0

> <PUBCHEM_BOND_UDEF_STEREO_COUNT>
0

> <PUBCHEM_ISOTOPIC_ATOM_COUNT>
0

> <PUBCHEM_COMPONENT_COUNT>
1

> <PUBCHEM_CACTVS_TAUTO_COUNT>
1

> <PUBCHEM_CONFORMER_ID>
0006DAD800000001

> <PUBCHEM_MMFF94_ENERGY>
51.2545

> <PUBCHEM_FEATURE_SELFOVERLAP>
40.641

> <PUBCHEM_SHAPE_FINGERPRINT>
10062212 137 18201716275852308047
10366900 7 16732974340985217435
10646746 165 17346880044025320208
10906281 52 18334870420068860162
11471102 20 18333445461235814820
11578080 2 17985796376712536865
11640471 11 17845671260857241321
12236239 1 18201435866069496265
12507557 5 18409728469705918433
12553582 1 18333733490485560864
12596599 1 18272380753955279183
12633257 1 18113613491429354986
12760667 363 17897719873943151386
128620 24 8574709092044720312
13134695 92 18333452032204014108
13140716 1 18263081188251215264
13583140 156 18041002834674202187
13675066 3 17894634746603041945
14004511 7 18342177760760700029
14178342 30 17975965785524908824
14739800 52 17416672734980115928
14790565 3 17901676183126371156
15196674 1 18409163342040554268
15442244 35 18410854377938821652
15653759 3 16515408473433939865
15848702 151 18271808956300805702
15852999 172 16558480759083344582
16945 1 18334304188259518228
17349148 13 18131630105920259535
17492 89 18342459283046257815
18186145 218 18410578379024359911
192875 21 18202277009592373337
200 152 18271801376136981463
20645477 70 18186794807772692278
21033648 29 17240751896405544085
21267235 1 18410861000736674838
23175994 123 17531251612595046636
23184049 59 18409735032120508532
23402539 116 18271799116598964398
23557571 272 14979961376192342281
23559900 14 16845584093225524164
23598288 3 17988080127409955215
2838139 119 18117267070380955677
34934 24 18336541707633874924
350125 39 18117851116384942259
474 4 18410859841348407179
5104073 3 18410007779887146400
6992083 37 18413109471908065989
7064713 232 17916584228566951688
74978 22 18263647423326967118
7832392 63 18339921631841487580
84936 182 17911798291033757176
9709674 26 18263364844449177070
9971528 1 18342457011445348884
9981440 41 17475501154692745064

> <PUBCHEM_SHAPE_MULTIPOLES>
388.76
8.76
2.28
1.13
0.72
0.33
-0.17
-0.04
-1.02
-0.69
0.26
1.02
-0.02
-1.14

> <PUBCHEM_SHAPE_SELFOVERLAP>
822.683

> <PUBCHEM_SHAPE_VOLUME>
217.7

> <PUBCHEM_COORDINATE_TYPE>
2
5
10

$$$$
