2404
  -OEChem-10062122013D

 56 61  0     1  0  0  0  0  0999 V2000
   -1.2291   -2.5600   -2.9244 O   0  0  0  0  0  0  0  0  0  0  0  0
    2.9396   -0.6926   -3.2240 O   0  0  0  0  0  0  0  0  0  0  0  0
   -2.7861   -0.0521    0.6234 N   0  0  0  0  0  0  0  0  0  0  0  0
   -3.1894    4.3508    0.4364 N   0  0  0  0  0  0  0  0  0  0  0  0
    0.9176   -1.8197   -3.4118 N   0  0  0  0  0  0  0  0  0  0  0  0
    2.5074    2.3696    0.1809 N   0  0  0  0  0  0  0  0  0  0  0  0
   -3.1836    2.3246   -0.9288 C   0  0  1  0  0  0  0  0  0  0  0  0
   -2.3096    1.1976   -1.5027 C   0  0  0  0  0  0  0  0  0  0  0  0
   -2.0207    0.1248   -0.5043 C   0  0  0  0  0  0  0  0  0  0  0  0
   -4.3551    1.7239   -0.1372 C   0  0  0  0  0  0  0  0  0  0  0  0
   -3.8872    0.8182    1.0019 C   0  0  0  0  0  0  0  0  0  0  0  0
   -1.0459   -0.8503   -0.4980 C   0  0  0  0  0  0  0  0  0  0  0  0
   -2.3160   -1.1144    1.3658 C   0  0  0  0  0  0  0  0  0  0  0  0
   -1.2188   -1.6369    0.6740 C   0  0  0  0  0  0  0  0  0  0  0  0
   -2.3625    3.3062   -0.0872 C   0  0  0  0  0  0  0  0  0  0  0  0
   -0.0448   -1.0148   -1.5060 C   0  0  0  0  0  0  0  0  0  0  0  0
   -2.7543   -1.6570    2.5834 C   0  0  0  0  0  0  0  0  0  0  0  0
    1.1851   -0.4749   -1.5881 C   0  0  0  0  0  0  0  0  0  0  0  0
   -0.5375   -2.7473    1.2123 C   0  0  0  0  0  0  0  0  0  0  0  0
   -0.2335   -1.8976   -2.6855 C   0  0  0  0  0  0  0  0  0  0  0  0
    1.8347    0.4473   -0.7093 C   0  0  0  0  0  0  0  0  0  0  0  0
   -2.0621   -2.7569    3.0981 C   0  0  0  0  0  0  0  0  0  0  0  0
   -0.9704   -3.2962    2.4237 C   0  0  0  0  0  0  0  0  0  0  0  0
    1.8248   -0.9867   -2.8270 C   0  0  0  0  0  0  0  0  0  0  0  0
    2.6497    0.1564    0.4228 C   0  0  0  0  0  0  0  0  0  0  0  0
    1.7674    1.8181   -0.8302 C   0  0  0  0  0  0  0  0  0  0  0  0
    3.0578    1.3784    0.9617 C   0  0  0  0  0  0  0  0  0  0  0  0
    3.0793   -1.0348    1.0407 C   0  0  0  0  0  0  0  0  0  0  0  0
    3.8774    1.4691    2.0924 C   0  0  0  0  0  0  0  0  0  0  0  0
    2.6750    3.7922    0.3859 C   0  0  0  0  0  0  0  0  0  0  0  0
    3.8995   -0.9595    2.1724 C   0  0  0  0  0  0  0  0  0  0  0  0
    4.2912    0.2743    2.6885 C   0  0  0  0  0  0  0  0  0  0  0  0
   -3.5993    2.8826   -1.7797 H   0  0  0  0  0  0  0  0  0  0  0  0
   -1.3784    1.6131   -1.9046 H   0  0  0  0  0  0  0  0  0  0  0  0
   -2.8377    0.7349   -2.3468 H   0  0  0  0  0  0  0  0  0  0  0  0
   -4.9605    1.1231   -0.8301 H   0  0  0  0  0  0  0  0  0  0  0  0
   -5.0284    2.4953    0.2524 H   0  0  0  0  0  0  0  0  0  0  0  0
   -3.5376    1.4124    1.8535 H   0  0  0  0  0  0  0  0  0  0  0  0
   -4.7165    0.1858    1.3366 H   0  0  0  0  0  0  0  0  0  0  0  0
   -1.5738    3.7464   -0.7089 H   0  0  0  0  0  0  0  0  0  0  0  0
   -1.8565    2.7954    0.7389 H   0  0  0  0  0  0  0  0  0  0  0  0
   -3.6039   -1.2422    3.1159 H   0  0  0  0  0  0  0  0  0  0  0  0
    0.3172   -3.1797    0.6997 H   0  0  0  0  0  0  0  0  0  0  0  0
   -3.6345    4.8649   -0.3226 H   0  0  0  0  0  0  0  0  0  0  0  0
   -2.6191    5.0265    0.9427 H   0  0  0  0  0  0  0  0  0  0  0  0
   -2.3823   -3.1965    4.0392 H   0  0  0  0  0  0  0  0  0  0  0  0
   -0.4468   -4.1517    2.8420 H   0  0  0  0  0  0  0  0  0  0  0  0
    1.0794   -2.3197   -4.2786 H   0  0  0  0  0  0  0  0  0  0  0  0
    1.2538    2.4421   -1.5504 H   0  0  0  0  0  0  0  0  0  0  0  0
    2.7849   -2.0047    0.6504 H   0  0  0  0  0  0  0  0  0  0  0  0
    4.1859    2.4263    2.4991 H   0  0  0  0  0  0  0  0  0  0  0  0
    2.1220    4.3416   -0.3803 H   0  0  0  0  0  0  0  0  0  0  0  0
    2.2864    4.0461    1.3753 H   0  0  0  0  0  0  0  0  0  0  0  0
    3.7398    4.0278    0.3145 H   0  0  0  0  0  0  0  0  0  0  0  0
    4.2340   -1.8750    2.6531 H   0  0  0  0  0  0  0  0  0  0  0  0
    4.9285    0.3095    3.5684 H   0  0  0  0  0  0  0  0  0  0  0  0
  1 20  2  0  0  0  0
  2 24  2  0  0  0  0
  3  9  1  0  0  0  0
  3 11  1  0  0  0  0
  3 13  1  0  0  0  0
  4 15  1  0  0  0  0
  4 44  1  0  0  0  0
  4 45  1  0  0  0  0
  5 20  1  0  0  0  0
  5 24  1  0  0  0  0
  5 48  1  0  0  0  0
  6 26  1  0  0  0  0
  6 27  1  0  0  0  0
  6 30  1  0  0  0  0
  7  8  1  0  0  0  0
  7 10  1  0  0  0  0
  7 15  1  0  0  0  0
  7 33  1  0  0  0  0
  8  9  1  0  0  0  0
  8 34  1  0  0  0  0
  8 35  1  0  0  0  0
  9 12  2  0  0  0  0
 10 11  1  0  0  0  0
 10 36  1  0  0  0  0
 10 37  1  0  0  0  0
 11 38  1  0  0  0  0
 11 39  1  0  0  0  0
 12 14  1  0  0  0  0
 12 16  1  0  0  0  0
 13 14  1  0  0  0  0
 13 17  2  0  0  0  0
 14 19  2  0  0  0  0
 15 40  1  0  0  0  0
 15 41  1  0  0  0  0
 16 18  2  0  0  0  0
 16 20  1  0  0  0  0
 17 22  1  0  0  0  0
 17 42  1  0  0  0  0
 18 21  1  0  0  0  0
 18 24  1  0  0  0  0
 19 23  1  0  0  0  0
 19 43  1  0  0  0  0
 21 25  1  0  0  0  0
 21 26  2  0  0  0  0
 22 23  2  0  0  0  0
 22 46  1  0  0  0  0
 23 47  1  0  0  0  0
 25 27  1  0  0  0  0
 25 28  2  0  0  0  0
 26 49  1  0  0  0  0
 27 29  2  0  0  0  0
 28 31  1  0  0  0  0
 28 50  1  0  0  0  0
 29 32  1  0  0  0  0
 29 51  1  0  0  0  0
 30 52  1  0  0  0  0
 30 53  1  0  0  0  0
 30 54  1  0  0  0  0
 31 32  2  0  0  0  0
 31 55  1  0  0  0  0
 32 56  1  0  0  0  0
M  END
> <PUBCHEM_COMPOUND_CID>
2404

> <PUBCHEM_CONFORMER_RMSD>
0.8

> <PUBCHEM_CONFORMER_DIVERSEORDER>
1
6
9
3
5
10
7
12
4
8
11
2

> <PUBCHEM_MMFF94_PARTIAL_CHARGES>
40
1 -0.57
11 0.26
12 -0.05
13 -0.15
15 0.27
16 0.06
17 -0.15
18 0.06
19 -0.15
2 -0.57
20 0.62
21 -0.05
22 -0.15
23 -0.15
24 0.62
26 -0.3
27 -0.15
28 -0.15
29 -0.15
3 0.05
30 0.26
31 -0.15
32 -0.15
4 -0.99
42 0.15
43 0.15
44 0.36
45 0.36
46 0.15
47 0.15
48 0.37
49 0.15
5 -0.49
50 0.15
51 0.15
55 0.15
56 0.15
6 0.05
8 0.18
9 -0.33

> <PUBCHEM_EFFECTIVE_ROTOR_COUNT>
4

> <PUBCHEM_PHARMACOPHORE_FEATURES>
13
1 1 acceptor
1 2 acceptor
1 3 cation
1 4 cation
1 4 donor
1 5 donor
1 6 cation
5 3 9 12 13 14 rings
5 5 16 18 20 24 rings
5 6 21 25 26 27 rings
6 13 14 17 19 22 23 rings
6 25 27 28 29 31 32 rings
6 3 7 8 9 10 11 rings

> <PUBCHEM_HEAVY_ATOM_COUNT>
32

> <PUBCHEM_ATOM_DEF_STEREO_COUNT>
0

> <PUBCHEM_ATOM_UDEF_STEREO_COUNT>
1

> <PUBCHEM_BOND_DEF_STEREO_COUNT>
0

> <PUBCHEM_BOND_UDEF_STEREO_COUNT>
0

> <PUBCHEM_ISOTOPIC_ATOM_COUNT>
0

> <PUBCHEM_COMPONENT_COUNT>
1

> <PUBCHEM_CACTVS_TAUTO_COUNT>
3

> <PUBCHEM_CONFORMER_ID>
0000096400000001

> <PUBCHEM_MMFF94_ENERGY>
63.2972

> <PUBCHEM_FEATURE_SELFOVERLAP>
66.239

> <PUBCHEM_SHAPE_FINGERPRINT>
10764073 3 17111545811055533310
1100329 8 15595226822617689128
11582403 64 18127669596375666323
11725454 13 18201145573256096763
12156800 1 15820159400890207778
12160290 23 18041576814204015559
12403259 327 18187362138250039624
12633257 1 18041266725675001504
12741549 16 17265032359883377710
12788726 201 17171556412776084179
133893 2 17131570348685715502
13583140 156 18117828031052011000
14856354 85 17968649523853926200
15219462 58 17970624310608026750
16114785 44 17172883364560777684
17974551 9 18188195581196885112
1813 80 15068619336514504050
21756936 100 17617097353836158632
22149856 69 17317063343046935673
3493558 16 15692068628521539370
35225 105 18187945979188171787
469060 322 17556291010222948327
508180 173 16767908904686152905
513532 50 17478882788977803493
5252454 2 16841666679060934356
57527573 199 17977665308221134760
7097593 13 17676765491273358768

> <PUBCHEM_SHAPE_MULTIPOLES>
626.88
7.15
4.28
3.61
2.09
1.1
-3.64
3.41
5.26
-3.28
3.21
1.92
-2.02
0.67

> <PUBCHEM_SHAPE_SELFOVERLAP>
1422.721

> <PUBCHEM_SHAPE_VOLUME>
330

> <PUBCHEM_COORDINATE_TYPE>
2
5
10

$$$$
