49830691
  -OEChem-10052115193D

 35 37  0     0  0  0  0  0  0999 V2000
   -5.1550    2.8680    0.0008 F   0  0  0  0  0  0  0  0  0  0  0  0
   -7.1653    1.0162    0.0020 F   0  0  0  0  0  0  0  0  0  0  0  0
    6.9974   -0.6598    0.0013 F   0  0  0  0  0  0  0  0  0  0  0  0
    5.4556   -1.7449    1.0846 F   0  0  0  0  0  0  0  0  0  0  0  0
    5.4573   -1.7450   -1.0841 F   0  0  0  0  0  0  0  0  0  0  0  0
    1.0294   -1.2429   -0.0003 O   0  0  0  0  0  0  0  0  0  0  0  0
   -0.8195    0.1946    0.0004 N   0  0  0  0  0  0  0  0  0  0  0  0
   -4.0026   -2.5173   -0.0004 N   0  0  0  0  0  0  0  0  0  0  0  0
    1.3096    1.0788   -0.0002 N   0  0  0  0  0  0  0  0  0  0  0  0
    3.4783    0.1036   -0.0008 N   0  0  0  0  0  0  0  0  0  0  0  0
   -3.2311   -0.2344    0.0001 C   0  0  0  0  0  0  0  0  0  0  0  0
   -1.9054   -0.6888    0.0006 C   0  0  0  0  0  0  0  0  0  0  0  0
   -4.2628   -1.1963   -0.0003 C   0  0  0  0  0  0  0  0  0  0  0  0
   -3.5390    1.1367   -0.0003 C   0  0  0  0  0  0  0  0  0  0  0  0
   -1.6341   -2.0494    0.0004 C   0  0  0  0  0  0  0  0  0  0  0  0
   -5.5797   -0.7443   -0.0006 C   0  0  0  0  0  0  0  0  0  0  0  0
   -4.8648    1.5607   -0.0010 C   0  0  0  0  0  0  0  0  0  0  0  0
   -5.8861    0.6187   -0.0009 C   0  0  0  0  0  0  0  0  0  0  0  0
   -2.7095   -2.9145   -0.0002 C   0  0  0  0  0  0  0  0  0  0  0  0
    0.5609   -0.1090   -0.0001 C   0  0  0  0  0  0  0  0  0  0  0  0
    2.7173    1.2209   -0.0005 C   0  0  0  0  0  0  0  0  0  0  0  0
    4.8174    0.2892   -0.0006 C   0  0  0  0  0  0  0  0  0  0  0  0
    3.2296    2.5084    0.0000 C   0  0  0  0  0  0  0  0  0  0  0  0
    5.4281    1.5330   -0.0004 C   0  0  0  0  0  0  0  0  0  0  0  0
    4.6118    2.6587    0.0001 C   0  0  0  0  0  0  0  0  0  0  0  0
    5.6622   -0.9410    0.0003 C   0  0  0  0  0  0  0  0  0  0  0  0
   -2.7834    1.9151    0.0003 H   0  0  0  0  0  0  0  0  0  0  0  0
   -0.6610   -2.5113    0.0006 H   0  0  0  0  0  0  0  0  0  0  0  0
   -1.0285    1.1856    0.0005 H   0  0  0  0  0  0  0  0  0  0  0  0
   -6.3981   -1.4618   -0.0002 H   0  0  0  0  0  0  0  0  0  0  0  0
   -2.5602   -3.9894   -0.0004 H   0  0  0  0  0  0  0  0  0  0  0  0
    0.7825    1.9484    0.0001 H   0  0  0  0  0  0  0  0  0  0  0  0
    2.5881    3.3837    0.0004 H   0  0  0  0  0  0  0  0  0  0  0  0
    6.5062    1.6496   -0.0002 H   0  0  0  0  0  0  0  0  0  0  0  0
    5.0521    3.6513    0.0004 H   0  0  0  0  0  0  0  0  0  0  0  0
  1 17  1  0  0  0  0
  2 18  1  0  0  0  0
  3 26  1  0  0  0  0
  4 26  1  0  0  0  0
  5 26  1  0  0  0  0
  6 20  2  0  0  0  0
  7 12  1  0  0  0  0
  7 20  1  0  0  0  0
  7 29  1  0  0  0  0
  8 13  2  0  0  0  0
  8 19  1  0  0  0  0
  9 20  1  0  0  0  0
  9 21  1  0  0  0  0
  9 32  1  0  0  0  0
 10 21  1  0  0  0  0
 10 22  2  0  0  0  0
 11 12  2  0  0  0  0
 11 13  1  0  0  0  0
 11 14  1  0  0  0  0
 12 15  1  0  0  0  0
 13 16  1  0  0  0  0
 14 17  2  0  0  0  0
 14 27  1  0  0  0  0
 15 19  2  0  0  0  0
 15 28  1  0  0  0  0
 16 18  2  0  0  0  0
 16 30  1  0  0  0  0
 17 18  1  0  0  0  0
 19 31  1  0  0  0  0
 21 23  2  0  0  0  0
 22 24  1  0  0  0  0
 22 26  1  0  0  0  0
 23 25  1  0  0  0  0
 23 33  1  0  0  0  0
 24 25  2  0  0  0  0
 24 34  1  0  0  0  0
 25 35  1  0  0  0  0
M  END
> <PUBCHEM_COMPOUND_CID>
49830691

> <PUBCHEM_CONFORMER_RMSD>
0.8

> <PUBCHEM_CONFORMER_DIVERSEORDER>
1
23
18
6
25
19
10
14
8
9
7
4
26
20
13
12
17
2
11
15
21
3
24
22
16
5

> <PUBCHEM_MMFF94_PARTIAL_CHARGES>
34
1 -0.19
10 -0.62
12 0.12
13 0.31
14 -0.15
15 -0.15
16 -0.15
17 0.19
18 0.19
19 0.16
2 -0.19
20 0.69
21 0.43
22 0.17
23 -0.15
24 -0.15
25 -0.15
26 1.16
27 0.15
28 0.15
29 0.37
3 -0.34
30 0.15
31 0.15
32 0.37
33 0.15
34 0.15
35 0.15
4 -0.34
5 -0.34
6 -0.57
7 -0.55
8 -0.62
9 -0.55

> <PUBCHEM_EFFECTIVE_ROTOR_COUNT>
5

> <PUBCHEM_PHARMACOPHORE_FEATURES>
8
1 10 acceptor
1 6 acceptor
1 7 donor
1 8 acceptor
1 9 donor
6 10 21 22 23 24 25 rings
6 11 13 14 16 17 18 rings
6 8 11 12 13 15 19 rings

> <PUBCHEM_HEAVY_ATOM_COUNT>
26

> <PUBCHEM_ATOM_DEF_STEREO_COUNT>
0

> <PUBCHEM_ATOM_UDEF_STEREO_COUNT>
0

> <PUBCHEM_BOND_DEF_STEREO_COUNT>
0

> <PUBCHEM_BOND_UDEF_STEREO_COUNT>
0

> <PUBCHEM_ISOTOPIC_ATOM_COUNT>
0

> <PUBCHEM_COMPONENT_COUNT>
1

> <PUBCHEM_CACTVS_TAUTO_COUNT>
11

> <PUBCHEM_CONFORMER_ID>
02F85B2300000001

> <PUBCHEM_MMFF94_ENERGY>
69.3493

> <PUBCHEM_FEATURE_SELFOVERLAP>
40.681

> <PUBCHEM_SHAPE_FINGERPRINT>
10411042 1 17762056945678656711
10595046 47 18193275415074443548
10835480 77 18271239534164323000
11405975 8 18409447020425035194
11719270 70 17846499214493179110
11796584 16 18342740736938014986
12107183 9 18264482893403157856
12166972 35 18408326609292107781
12236239 1 18259983807770590723
13073987 5 18337107985759630906
13167372 99 18412545401005551816
13167823 11 18337669832007002114
13785724 45 17979354162624786074
14341114 176 18336831982355250197
14904525 67 15357692002770756462
14933364 13 18408888455459493916
15183329 4 18411984650185720584
15196674 1 18338797917656228160
15250474 111 18268134530586720742
15419008 42 17986110708140784236
17844677 252 18337961189518643152
1813 80 16805599308914331580
19611394 137 17969799643286917459
20281389 69 18407477760772118017
21065198 57 18267021837429188040
21236236 1 18340768251922095887
21279426 13 18412265012760730900
21315763 129 18412545439591218063
21315763 28 18410854378134357639
21315764 268 18337386140743173693
21859007 373 17896028850597093621
23536379 177 18410292527491941840
23559900 14 18343015609958680642
23569943 247 17096630029523714058
2838139 119 18411976945552741301
3004659 81 18408887343806392480
335352 9 18410573985151516533
3545911 37 18410856555951542185
4073 2 18042126625709813626
4197921 191 18335143128258385549
4214541 1 18410574015253268901
5104073 3 18410856607000507698
5283173 99 18412263943261366993
531348 171 18201999962885337255
559249 180 18411416206832380315
59755656 215 18339645542521885158
59755656 520 18334571348506058775
6299153 45 18338237050867512473
633830 44 17677328441442603338
9965369 4 18410291398089486369
9995097 60 18413671309655069526
9996256 80 18411699924235518223

> <PUBCHEM_SHAPE_MULTIPOLES>
472.91
18.55
2.93
0.64
6.23
0.08
0
2.57
0
-0.45
0
0.33
-0.12
0

> <PUBCHEM_SHAPE_SELFOVERLAP>
1045.1

> <PUBCHEM_SHAPE_VOLUME>
252.5

> <PUBCHEM_COORDINATE_TYPE>
2
5
10

$$$$
