16211077
  -OEChem-10062122023D

 54 56  0     1  0  0  0  0  0999 V2000
   -3.5096    1.1564   -1.3897 O   0  0  0  0  0  0  0  0  0  0  0  0
   -5.2263   -0.8072    0.0472 O   0  0  0  0  0  0  0  0  0  0  0  0
   -4.1368    0.6538    2.1108 O   0  0  0  0  0  0  0  0  0  0  0  0
   -3.8578   -0.9934   -2.3466 O   0  0  0  0  0  0  0  0  0  0  0  0
   -1.8212   -1.9127    0.5803 O   0  0  0  0  0  0  0  0  0  0  0  0
   -1.4593    2.4937   -0.0513 O   0  0  0  0  0  0  0  0  0  0  0  0
   -1.6827   -4.1846    0.2364 O   0  0  0  0  0  0  0  0  0  0  0  0
   -0.7339    4.6379    0.3678 O   0  0  0  0  0  0  0  0  0  0  0  0
    3.2711   -4.3452   -1.1219 O   0  0  0  0  0  0  0  0  0  0  0  0
    2.7496   -0.6352    1.8620 O   0  0  0  0  0  0  0  0  0  0  0  0
    4.2485    3.5392    0.9845 O   0  0  0  0  0  0  0  0  0  0  0  0
    2.4571    0.2948   -2.0494 O   0  0  0  0  0  0  0  0  0  0  0  0
    4.3882   -2.2924    0.3645 O   0  0  0  0  0  0  0  0  0  0  0  0
    4.6307    1.4053   -0.7393 O   0  0  0  0  0  0  0  0  0  0  0  0
   -3.8035   -0.6735    0.0900 C   0  0  2  0  0  0  0  0  0  0  0  0
   -3.4073    0.5473    0.9053 C   0  0  1  0  0  0  0  0  0  0  0  0
   -3.7087    1.6878   -0.0637 C   0  0  1  0  0  0  0  0  0  0  0  0
   -3.2740   -0.2613   -1.2821 C   0  0  2  0  0  0  0  0  0  0  0  0
   -3.2370   -1.9848    0.6060 C   0  0  0  0  0  0  0  0  0  0  0  0
   -2.8068    2.8940    0.1358 C   0  0  0  0  0  0  0  0  0  0  0  0
   -1.1621   -3.0902    0.3869 C   0  0  0  0  0  0  0  0  0  0  0  0
   -0.5167    3.4678    0.0941 C   0  0  0  0  0  0  0  0  0  0  0  0
    0.3077   -2.8801    0.3820 C   0  0  0  0  0  0  0  0  0  0  0  0
    0.8466    2.9227   -0.1275 C   0  0  0  0  0  0  0  0  0  0  0  0
    0.8360   -1.8494    1.1320 C   0  0  0  0  0  0  0  0  0  0  0  0
    1.0993   -3.7204   -0.3738 C   0  0  0  0  0  0  0  0  0  0  0  0
    1.0067    1.8592   -0.9920 C   0  0  0  0  0  0  0  0  0  0  0  0
    1.9105    3.4950    0.5390 C   0  0  0  0  0  0  0  0  0  0  0  0
    2.4799   -3.5212   -0.3796 C   0  0  0  0  0  0  0  0  0  0  0  0
    2.2166   -1.6503    1.1261 C   0  0  0  0  0  0  0  0  0  0  0  0
    3.1907    2.9814    0.3319 C   0  0  0  0  0  0  0  0  0  0  0  0
    2.2869    1.3455   -1.1989 C   0  0  0  0  0  0  0  0  0  0  0  0
    3.0386   -2.4862    0.3703 C   0  0  0  0  0  0  0  0  0  0  0  0
    3.3789    1.9066   -0.5370 C   0  0  0  0  0  0  0  0  0  0  0  0
   -2.3405    0.5197    1.1558 H   0  0  0  0  0  0  0  0  0  0  0  0
   -4.7550    2.0062    0.0174 H   0  0  0  0  0  0  0  0  0  0  0  0
   -2.1884   -0.3881   -1.3574 H   0  0  0  0  0  0  0  0  0  0  0  0
   -3.5665   -2.1732    1.6343 H   0  0  0  0  0  0  0  0  0  0  0  0
   -3.6120   -2.8124   -0.0096 H   0  0  0  0  0  0  0  0  0  0  0  0
   -3.0512    3.6597   -0.6098 H   0  0  0  0  0  0  0  0  0  0  0  0
   -2.9402    3.3073    1.1421 H   0  0  0  0  0  0  0  0  0  0  0  0
   -5.4470   -1.6518   -0.3801 H   0  0  0  0  0  0  0  0  0  0  0  0
   -3.9257   -0.1239    2.6543 H   0  0  0  0  0  0  0  0  0  0  0  0
   -4.8045   -1.0981   -2.1585 H   0  0  0  0  0  0  0  0  0  0  0  0
    0.2070   -1.1991    1.7336 H   0  0  0  0  0  0  0  0  0  0  0  0
    0.6621   -4.5237   -0.9606 H   0  0  0  0  0  0  0  0  0  0  0  0
    0.1701    1.4157   -1.5248 H   0  0  0  0  0  0  0  0  0  0  0  0
    1.7617    4.3297    1.2186 H   0  0  0  0  0  0  0  0  0  0  0  0
    2.7119   -5.0009   -1.5727 H   0  0  0  0  0  0  0  0  0  0  0  0
    2.0311   -0.1521    2.3049 H   0  0  0  0  0  0  0  0  0  0  0  0
    3.9286    4.2695    1.5415 H   0  0  0  0  0  0  0  0  0  0  0  0
    3.4020    0.0632   -2.0641 H   0  0  0  0  0  0  0  0  0  0  0  0
    4.5909   -1.5294    0.9333 H   0  0  0  0  0  0  0  0  0  0  0  0
    5.2573    1.9162   -0.1981 H   0  0  0  0  0  0  0  0  0  0  0  0
  1 17  1  0  0  0  0
  1 18  1  0  0  0  0
  2 15  1  0  0  0  0
  2 42  1  0  0  0  0
  3 16  1  0  0  0  0
  3 43  1  0  0  0  0
  4 18  1  0  0  0  0
  4 44  1  0  0  0  0
  5 19  1  0  0  0  0
  5 21  1  0  0  0  0
  6 20  1  0  0  0  0
  6 22  1  0  0  0  0
  7 21  2  0  0  0  0
  8 22  2  0  0  0  0
  9 29  1  0  0  0  0
  9 49  1  0  0  0  0
 10 30  1  0  0  0  0
 10 50  1  0  0  0  0
 11 31  1  0  0  0  0
 11 51  1  0  0  0  0
 12 32  1  0  0  0  0
 12 52  1  0  0  0  0
 13 33  1  0  0  0  0
 13 53  1  0  0  0  0
 14 34  1  0  0  0  0
 14 54  1  0  0  0  0
 15 16  1  0  0  0  0
 15 18  1  0  0  0  0
 15 19  1  0  0  0  0
 16 17  1  0  0  0  0
 16 35  1  0  0  0  0
 17 20  1  0  0  0  0
 17 36  1  0  0  0  0
 18 37  1  0  0  0  0
 19 38  1  0  0  0  0
 19 39  1  0  0  0  0
 20 40  1  0  0  0  0
 20 41  1  0  0  0  0
 21 23  1  0  0  0  0
 22 24  1  0  0  0  0
 23 25  2  0  0  0  0
 23 26  1  0  0  0  0
 24 27  2  0  0  0  0
 24 28  1  0  0  0  0
 25 30  1  0  0  0  0
 25 45  1  0  0  0  0
 26 29  2  0  0  0  0
 26 46  1  0  0  0  0
 27 32  1  0  0  0  0
 27 47  1  0  0  0  0
 28 31  2  0  0  0  0
 28 48  1  0  0  0  0
 29 33  1  0  0  0  0
 30 33  2  0  0  0  0
 31 34  1  0  0  0  0
 32 34  2  0  0  0  0
M  END
> <PUBCHEM_COMPOUND_CID>
16211077

> <PUBCHEM_CONFORMER_RMSD>
1.2

> <PUBCHEM_CONFORMER_DIVERSEORDER>
1
69
214
167
148
174
189
111
231
121
57
40
225
190
218
56
124
132
4
107
18
266
77
215
202
276
152
173
30
146
230
59
75
298
260
8
115
185
118
95
55
255
98
37
194
166
50
294
172
7
33
46
181
285
70
130
147
271
81
293
149
112
122
86
93
89
178
153
283
133
208
82
23
36
16
241
249
234
60
101
248
250
45
2
196
94
96
134
123
137
240
200
258
232
87
187
295
210
72
213
84
197
267
168
19
280
151
245
229
177
108
272
145
183
199
38
22
233
29
62
139
286
58
219
204
198
48
43
193
14
203
76
68
106
292
140
53
242
110
175
212
227
13
252
73
71
205
182
17
235
195
34
246
131
9
247
165
179
188
291
119
170
113
42
158
211
128
207
217
281
136
79
3
223
47
109
27
169
31
15
20
268
135
206
226
288
164
253
83
201
186
117
116
254
261
296
192
239
52
120
64
259
5
105
28
85
66
236
237
156
97
209
256
238
74
220
26
41
99
39
243
297
277
263
221
88
100
278
270
67
127
61
279
251
90
176
275
126
44
159
150
129
262
289
284
21
24
269
141
143
184
12
35
51
160
224
222
282
264
104
138
102
144
80
216
274
114
65
63
161
103
273
163
155
244
257
125
92
54
25
11
180
228
265
171
6
290
191
10
78
32
287
157
154
91
49
142
162

> <PUBCHEM_MMFF94_PARTIAL_CHARGES>
47
1 -0.56
10 -0.53
11 -0.53
12 -0.53
13 -0.53
14 -0.53
15 0.28
16 0.28
17 0.28
18 0.56
19 0.28
2 -0.68
20 0.28
21 0.63
22 0.63
23 0.09
24 0.09
25 -0.15
26 -0.15
27 -0.15
28 -0.15
29 0.08
3 -0.68
30 0.08
31 0.08
32 0.08
33 0.08
34 0.08
4 -0.68
42 0.4
43 0.4
44 0.4
45 0.15
46 0.15
47 0.15
48 0.15
49 0.45
5 -0.43
50 0.45
51 0.45
52 0.45
53 0.45
54 0.45
6 -0.43
7 -0.57
8 -0.57
9 -0.53

> <PUBCHEM_EFFECTIVE_ROTOR_COUNT>
9

> <PUBCHEM_PHARMACOPHORE_FEATURES>
18
1 1 acceptor
1 10 donor
1 11 donor
1 12 donor
1 13 donor
1 14 donor
1 2 acceptor
1 2 donor
1 3 acceptor
1 3 donor
1 4 acceptor
1 4 donor
1 7 acceptor
1 8 acceptor
1 9 donor
5 1 15 16 17 18 rings
6 23 25 26 29 30 33 rings
6 24 27 28 31 32 34 rings

> <PUBCHEM_HEAVY_ATOM_COUNT>
34

> <PUBCHEM_ATOM_DEF_STEREO_COUNT>
3

> <PUBCHEM_ATOM_UDEF_STEREO_COUNT>
1

> <PUBCHEM_BOND_DEF_STEREO_COUNT>
0

> <PUBCHEM_BOND_UDEF_STEREO_COUNT>
0

> <PUBCHEM_ISOTOPIC_ATOM_COUNT>
0

> <PUBCHEM_COMPONENT_COUNT>
1

> <PUBCHEM_CACTVS_TAUTO_COUNT>
196

> <PUBCHEM_CONFORMER_ID>
00F75C8500000001

> <PUBCHEM_MMFF94_ENERGY>
99.4798

> <PUBCHEM_FEATURE_SELFOVERLAP>
91.433

> <PUBCHEM_SHAPE_FINGERPRINT>
1100329 8 17977951181028104573
11513181 2 18200589203208774454
12038231 1 16752120914248625761
12156800 1 16903599608989272159
12422481 6 17970882618979581680
12539773 59 17846789520301977321
13122387 1 18409167731439056465
13642711 20 17403715136085507519
14466204 15 17976533133535799960
15320467 1 18410576158452421296
15721738 15 15376815418235804636
19930381 70 18337392742397427747
20567600 299 18412543197966702346
20764821 26 17904773523806550893
21796203 349 17616853974870425320
35225 105 17472101426100169133
463206 1 18335987566088867225
57091435 65 18410017615145988568
6287921 2 18342166722515531482
6433294 58 18410296869915069344

> <PUBCHEM_SHAPE_MULTIPOLES>
617.53
8.64
6.85
1.43
3.11
0.46
-0.26
-0.45
-0.27
-4.65
0.41
0.34
0.12
0.16

> <PUBCHEM_SHAPE_SELFOVERLAP>
1343.224

> <PUBCHEM_SHAPE_VOLUME>
335.4

> <PUBCHEM_COORDINATE_TYPE>
2
5
10

$$$$
