5005498
  -OEChem-10062122023D

 33 36  0     0  0  0  0  0  0999 V2000
   -1.1628    3.4875    0.6623 O   0  0  0  0  0  0  0  0  0  0  0  0
    5.9419   -0.3452    0.1499 O   0  5  0  0  0  0  0  0  0  0  0  0
    5.0286    1.5458   -0.4898 O   0  0  0  0  0  0  0  0  0  0  0  0
   -0.1953   -1.6977    0.2797 N   0  0  0  0  0  0  0  0  0  0  0  0
   -2.6900    1.8154    0.4395 N   0  0  0  0  0  0  0  0  0  0  0  0
    4.9335    0.3515   -0.1177 N   0  3  0  0  0  0  0  0  0  0  0  0
   -0.1044    0.4167   -0.3775 C   0  0  0  0  0  0  0  0  0  0  0  0
   -0.9685   -0.6229   -0.0938 C   0  0  0  0  0  0  0  0  0  0  0  0
    1.2305   -0.0461   -0.1690 C   0  0  0  0  0  0  0  0  0  0  0  0
    1.1408   -1.3749    0.2433 C   0  0  0  0  0  0  0  0  0  0  0  0
   -0.5545    1.7465   -0.8358 C   0  0  0  0  0  0  0  0  0  0  0  0
   -2.4316   -0.6288   -0.1302 C   0  0  0  0  0  0  0  0  0  0  0  0
   -3.1981    0.5226    0.1482 C   0  0  0  0  0  0  0  0  0  0  0  0
    2.5100    0.5354   -0.2915 C   0  0  0  0  0  0  0  0  0  0  0  0
   -1.4707    2.3970    0.1701 C   0  0  0  0  0  0  0  0  0  0  0  0
    2.2640   -2.1541    0.5433 C   0  0  0  0  0  0  0  0  0  0  0  0
   -3.1015   -1.8414   -0.3914 C   0  0  0  0  0  0  0  0  0  0  0  0
    3.6435   -0.2305    0.0040 C   0  0  0  0  0  0  0  0  0  0  0  0
    3.5199   -1.5553    0.4154 C   0  0  0  0  0  0  0  0  0  0  0  0
   -4.5996    0.4073    0.2222 C   0  0  0  0  0  0  0  0  0  0  0  0
   -4.4930   -1.9261   -0.3491 C   0  0  0  0  0  0  0  0  0  0  0  0
   -5.2426   -0.8028   -0.0322 C   0  0  0  0  0  0  0  0  0  0  0  0
    0.2994    2.4122   -1.0039 H   0  0  0  0  0  0  0  0  0  0  0  0
   -1.0848    1.6651   -1.7922 H   0  0  0  0  0  0  0  0  0  0  0  0
   -0.5534   -2.6000    0.5607 H   0  0  0  0  0  0  0  0  0  0  0  0
    2.5850    1.5702   -0.6132 H   0  0  0  0  0  0  0  0  0  0  0  0
    2.1672   -3.1862    0.8632 H   0  0  0  0  0  0  0  0  0  0  0  0
   -3.3448    2.4270    0.9225 H   0  0  0  0  0  0  0  0  0  0  0  0
   -2.5454   -2.7466   -0.6273 H   0  0  0  0  0  0  0  0  0  0  0  0
    4.3897   -2.1655    0.6495 H   0  0  0  0  0  0  0  0  0  0  0  0
   -5.2117    1.2747    0.4639 H   0  0  0  0  0  0  0  0  0  0  0  0
   -4.9864   -2.8720   -0.5515 H   0  0  0  0  0  0  0  0  0  0  0  0
   -6.3256   -0.8643    0.0156 H   0  0  0  0  0  0  0  0  0  0  0  0
  1 15  2  0  0  0  0
  2  6  1  0  0  0  0
  3  6  2  0  0  0  0
  4  8  1  0  0  0  0
  4 10  1  0  0  0  0
  4 25  1  0  0  0  0
  5 13  1  0  0  0  0
  5 15  1  0  0  0  0
  5 28  1  0  0  0  0
  6 18  1  0  0  0  0
  7  8  2  0  0  0  0
  7  9  1  0  0  0  0
  7 11  1  0  0  0  0
  8 12  1  0  0  0  0
  9 10  2  0  0  0  0
  9 14  1  0  0  0  0
 10 16  1  0  0  0  0
 11 15  1  0  0  0  0
 11 23  1  0  0  0  0
 11 24  1  0  0  0  0
 12 13  1  0  0  0  0
 12 17  2  0  0  0  0
 13 20  2  0  0  0  0
 14 18  2  0  0  0  0
 14 26  1  0  0  0  0
 16 19  2  0  0  0  0
 16 27  1  0  0  0  0
 17 21  1  0  0  0  0
 17 29  1  0  0  0  0
 18 19  1  0  0  0  0
 19 30  1  0  0  0  0
 20 22  1  0  0  0  0
 20 31  1  0  0  0  0
 21 22  2  0  0  0  0
 21 32  1  0  0  0  0
 22 33  1  0  0  0  0
M  CHG  2   2  -1   6   1
M  END
> <PUBCHEM_COMPOUND_CID>
5005498

> <PUBCHEM_CONFORMER_RMSD>
0.6

> <PUBCHEM_CONFORMER_DIVERSEORDER>
2
1

> <PUBCHEM_MMFF94_PARTIAL_CHARGES>
30
1 -0.57
10 -0.15
11 0.24
12 0.05
13 0.12
14 -0.15
15 0.57
16 -0.15
17 -0.15
18 0.13
19 -0.15
2 -0.52
20 -0.15
21 -0.15
22 -0.15
25 0.27
26 0.15
27 0.15
28 0.37
29 0.15
3 -0.52
30 0.15
31 0.15
32 0.15
33 0.15
4 0.03
5 -0.55
6 0.91
7 -0.18
8 -0.2

> <PUBCHEM_EFFECTIVE_ROTOR_COUNT>
1.4

> <PUBCHEM_PHARMACOPHORE_FEATURES>
11
1 1 acceptor
1 2 acceptor
1 2 anion
1 3 acceptor
1 4 cation
1 4 donor
1 5 donor
5 4 7 8 9 10 rings
6 12 13 17 20 21 22 rings
6 9 10 14 16 18 19 rings
7 5 7 8 11 12 13 15 rings

> <PUBCHEM_HEAVY_ATOM_COUNT>
22

> <PUBCHEM_ATOM_DEF_STEREO_COUNT>
0

> <PUBCHEM_ATOM_UDEF_STEREO_COUNT>
0

> <PUBCHEM_BOND_DEF_STEREO_COUNT>
0

> <PUBCHEM_BOND_UDEF_STEREO_COUNT>
0

> <PUBCHEM_ISOTOPIC_ATOM_COUNT>
0

> <PUBCHEM_COMPONENT_COUNT>
1

> <PUBCHEM_CACTVS_TAUTO_COUNT>
2

> <PUBCHEM_CONFORMER_ID>
004C60BA00000002

> <PUBCHEM_MMFF94_ENERGY>
69.4243

> <PUBCHEM_FEATURE_SELFOVERLAP>
56.037

> <PUBCHEM_SHAPE_FINGERPRINT>
10090160 65 17894629275052350034
10670039 82 18262533524387211220
10906281 52 18129106628694421525
1100329 8 18193277622624485951
11045515 52 18186796989732688757
11578080 2 17895735345253794253
12107183 9 17688869731347196458
12166972 35 17821730571904408420
12236239 1 18259704505741545679
12553582 1 18340755040212602103
12788726 201 18336540534501103393
13140716 1 18191585474477096370
13533116 47 16950832632049859130
138480 1 15024995843410872977
13862211 1 18336542806412623982
14178342 30 17976520729475180970
14787075 74 18261673765463430706
14790565 3 18337397148554195788
15196674 1 18336546019090060567
15442244 35 18048594824540076410
15927050 60 17332809851264621708
17349148 13 17894349982055844490
17492 89 18266177236205774955
1813 80 17531256023632169583
200 152 18334290981187642767
20510252 161 18270681952729578425
21029758 11 18410853304608428171
21267235 1 18410018771051776143
2297311 6 18272662241974991372
23352939 185 18131073774348158329
23402539 116 18341326773120793447
23557571 272 18201444661677234974
23559900 14 18340477954397042953
25147074 1 18042690507787416186
26918003 58 17749111101633790267
335352 9 18411980287422023301
34797466 226 17274552043299723756
34934 24 18409163273827447103
350125 39 18409445852531586112
4214541 1 18338516327026604406
4409770 3 16022527862326439270
474 4 17676778655822524100
474229 33 18410011048236263366
5104073 3 18337389331718635306
5283173 99 17969488339166814989
5312544 6 18189059861972153916
5486654 2 18409169947658297878
7097593 13 17394721779088179514
9709674 26 18336835195059794682
9996256 80 18338235969306250370

> <PUBCHEM_SHAPE_MULTIPOLES>
420.2
10.66
2.67
0.72
5.96
1.46
-0.02
-2.06
-0.13
-1.13
0.35
-0.05
0.07
-0.9

> <PUBCHEM_SHAPE_SELFOVERLAP>
952.085

> <PUBCHEM_SHAPE_VOLUME>
218.2

> <PUBCHEM_COORDINATE_TYPE>
2
5
10

$$$$
