44346053
  -OEChem-10052115153D

 61 65  0     0  0  0  0  0  0999 V2000
   -1.9685    5.0615   -0.2765 F   0  0  0  0  0  0  0  0  0  0  0  0
    4.8255   -1.7224   -1.6036 O   0  0  0  0  0  0  0  0  0  0  0  0
    2.3121   -1.3261   -0.4354 O   0  0  0  0  0  0  0  0  0  0  0  0
   -3.4904   -1.0488    0.7152 N   0  0  0  0  0  0  0  0  0  0  0  0
    6.3393   -0.0926    1.9441 N   0  0  0  0  0  0  0  0  0  0  0  0
    2.8939    0.8585   -0.3696 N   0  0  0  0  0  0  0  0  0  0  0  0
   -2.4566   -2.7740   -0.5050 N   0  0  0  0  0  0  0  0  0  0  0  0
   -4.7750   -1.7228    0.7390 C   0  0  0  0  0  0  0  0  0  0  0  0
    4.7327   -0.9277   -0.4104 C   0  0  0  0  0  0  0  0  0  0  0  0
   -5.6247   -1.1941    1.8990 C   0  0  0  0  0  0  0  0  0  0  0  0
   -5.4869   -1.5465   -0.6061 C   0  0  0  0  0  0  0  0  0  0  0  0
   -6.1225    0.2326    1.6662 C   0  0  0  0  0  0  0  0  0  0  0  0
   -5.9843   -0.1182   -0.8298 C   0  0  0  0  0  0  0  0  0  0  0  0
   -6.8478    0.3658    0.3307 C   0  0  0  0  0  0  0  0  0  0  0  0
    5.0312   -1.8408    0.8042 C   0  0  0  0  0  0  0  0  0  0  0  0
    5.8650    0.1253   -0.4781 C   0  0  0  0  0  0  0  0  0  0  0  0
    5.2377   -1.0424    2.0906 C   0  0  0  0  0  0  0  0  0  0  0  0
    6.0967    0.8487    0.8520 C   0  0  0  0  0  0  0  0  0  0  0  0
    3.3002   -0.3905   -0.4031 C   0  0  0  0  0  0  0  0  0  0  0  0
   -2.3648   -1.5709    0.1045 C   0  0  0  0  0  0  0  0  0  0  0  0
    1.1700   -0.5839   -0.4205 C   0  0  0  0  0  0  0  0  0  0  0  0
    1.5275    0.7409   -0.3806 C   0  0  0  0  0  0  0  0  0  0  0  0
   -0.0646   -1.3289   -0.4488 C   0  0  0  0  0  0  0  0  0  0  0  0
   -1.2043   -0.8160    0.1604 C   0  0  0  0  0  0  0  0  0  0  0  0
    0.6284    1.8521   -0.3539 C   0  0  0  0  0  0  0  0  0  0  0  0
   -0.1194   -2.5636   -1.0862 C   0  0  0  0  0  0  0  0  0  0  0  0
   -1.3284   -3.2403   -1.0861 C   0  0  0  0  0  0  0  0  0  0  0  0
   -0.2741    2.0446   -1.4000 C   0  0  0  0  0  0  0  0  0  0  0  0
    0.6533    2.7439    0.7185 C   0  0  0  0  0  0  0  0  0  0  0  0
   -1.1512    3.1286   -1.3740 C   0  0  0  0  0  0  0  0  0  0  0  0
   -0.2239    3.8280    0.7446 C   0  0  0  0  0  0  0  0  0  0  0  0
   -1.1261    4.0204   -0.3015 C   0  0  0  0  0  0  0  0  0  0  0  0
   -4.6163   -2.7936    0.9212 H   0  0  0  0  0  0  0  0  0  0  0  0
   -5.0556   -1.2305    2.8359 H   0  0  0  0  0  0  0  0  0  0  0  0
   -6.4939   -1.8513    2.0306 H   0  0  0  0  0  0  0  0  0  0  0  0
   -6.3511   -2.2230   -0.6352 H   0  0  0  0  0  0  0  0  0  0  0  0
   -4.8405   -1.8358   -1.4423 H   0  0  0  0  0  0  0  0  0  0  0  0
   -6.8008    0.5174    2.4788 H   0  0  0  0  0  0  0  0  0  0  0  0
   -5.2829    0.9366    1.7006 H   0  0  0  0  0  0  0  0  0  0  0  0
   -5.1294    0.5568   -0.9575 H   0  0  0  0  0  0  0  0  0  0  0  0
   -6.5628   -0.0741   -1.7596 H   0  0  0  0  0  0  0  0  0  0  0  0
   -7.7771   -0.2164    0.3611 H   0  0  0  0  0  0  0  0  0  0  0  0
   -7.1321    1.4115    0.1681 H   0  0  0  0  0  0  0  0  0  0  0  0
    5.9274   -2.4440    0.6021 H   0  0  0  0  0  0  0  0  0  0  0  0
    4.2211   -2.5672    0.9468 H   0  0  0  0  0  0  0  0  0  0  0  0
    5.6452    0.8607   -1.2625 H   0  0  0  0  0  0  0  0  0  0  0  0
    6.8014   -0.3605   -0.7865 H   0  0  0  0  0  0  0  0  0  0  0  0
    4.3172   -0.5199    2.3769 H   0  0  0  0  0  0  0  0  0  0  0  0
    5.4778   -1.7349    2.9048 H   0  0  0  0  0  0  0  0  0  0  0  0
    6.9668    1.5070    0.7531 H   0  0  0  0  0  0  0  0  0  0  0  0
    5.2402    1.4893    1.0928 H   0  0  0  0  0  0  0  0  0  0  0  0
   -3.4834   -0.0508    0.8983 H   0  0  0  0  0  0  0  0  0  0  0  0
    6.4578    0.4245    2.8148 H   0  0  0  0  0  0  0  0  0  0  0  0
    5.7051   -2.1361   -1.6276 H   0  0  0  0  0  0  0  0  0  0  0  0
   -1.1966    0.1261    0.6980 H   0  0  0  0  0  0  0  0  0  0  0  0
    0.7408   -3.0024   -1.5813 H   0  0  0  0  0  0  0  0  0  0  0  0
   -1.4247   -4.2062   -1.5709 H   0  0  0  0  0  0  0  0  0  0  0  0
   -0.3054    1.3663   -2.2496 H   0  0  0  0  0  0  0  0  0  0  0  0
    1.3492    2.6078    1.5430 H   0  0  0  0  0  0  0  0  0  0  0  0
   -1.8530    3.2796   -2.1888 H   0  0  0  0  0  0  0  0  0  0  0  0
   -0.2051    4.5223    1.5795 H   0  0  0  0  0  0  0  0  0  0  0  0
  1 32  1  0  0  0  0
  2  9  1  0  0  0  0
  2 54  1  0  0  0  0
  3 19  1  0  0  0  0
  3 21  1  0  0  0  0
  4  8  1  0  0  0  0
  4 20  1  0  0  0  0
  4 52  1  0  0  0  0
  5 17  1  0  0  0  0
  5 18  1  0  0  0  0
  5 53  1  0  0  0  0
  6 19  2  0  0  0  0
  6 22  1  0  0  0  0
  7 20  2  0  0  0  0
  7 27  1  0  0  0  0
  8 10  1  0  0  0  0
  8 11  1  0  0  0  0
  8 33  1  0  0  0  0
  9 15  1  0  0  0  0
  9 16  1  0  0  0  0
  9 19  1  0  0  0  0
 10 12  1  0  0  0  0
 10 34  1  0  0  0  0
 10 35  1  0  0  0  0
 11 13  1  0  0  0  0
 11 36  1  0  0  0  0
 11 37  1  0  0  0  0
 12 14  1  0  0  0  0
 12 38  1  0  0  0  0
 12 39  1  0  0  0  0
 13 14  1  0  0  0  0
 13 40  1  0  0  0  0
 13 41  1  0  0  0  0
 14 42  1  0  0  0  0
 14 43  1  0  0  0  0
 15 17  1  0  0  0  0
 15 44  1  0  0  0  0
 15 45  1  0  0  0  0
 16 18  1  0  0  0  0
 16 46  1  0  0  0  0
 16 47  1  0  0  0  0
 17 48  1  0  0  0  0
 17 49  1  0  0  0  0
 18 50  1  0  0  0  0
 18 51  1  0  0  0  0
 20 24  1  0  0  0  0
 21 22  2  0  0  0  0
 21 23  1  0  0  0  0
 22 25  1  0  0  0  0
 23 24  2  0  0  0  0
 23 26  1  0  0  0  0
 24 55  1  0  0  0  0
 25 28  2  0  0  0  0
 25 29  1  0  0  0  0
 26 27  2  0  0  0  0
 26 56  1  0  0  0  0
 27 57  1  0  0  0  0
 28 30  1  0  0  0  0
 28 58  1  0  0  0  0
 29 31  2  0  0  0  0
 29 59  1  0  0  0  0
 30 32  2  0  0  0  0
 30 60  1  0  0  0  0
 31 32  1  0  0  0  0
 31 61  1  0  0  0  0
M  END
> <PUBCHEM_COMPOUND_CID>
44346053

> <PUBCHEM_CONFORMER_RMSD>
1

> <PUBCHEM_CONFORMER_DIVERSEORDER>
1
66
52
49
80
79
65
35
7
68
32
89
24
61
50
58
37
107
101
13
33
29
75
74
81
11
78
116
46
92
97
20
30
9
109
36
69
86
10
2
117
56
63
73
59
67
45
23
96
19
17
94
64
106
90
12
104
71
48
98
87
34
27
72
55
84
102
77
51
16
91
21
70
3
25
4
118
38
42
40
99
5
47
26
82
93
108
60
85
110
43
15
44
95
22
111
8
76
112
41
57
103
14
28
100
62
31
119
39
105
113
18
88
83
115
54
6
114
53

> <PUBCHEM_MMFF94_PARTIAL_CHARGES>
35
1 -0.19
17 0.27
18 0.27
19 0.3
2 -0.68
20 0.41
21 0.09
22 0.17
23 0.05
24 -0.15
25 0.05
26 -0.15
27 0.16
28 -0.15
29 -0.15
3 -0.28
30 -0.15
31 -0.15
32 0.19
4 -0.87
5 -0.9
52 0.4
53 0.36
54 0.4
55 0.15
56 0.15
57 0.15
58 0.15
59 0.15
6 -0.57
60 0.15
61 0.15
7 -0.62
8 0.37
9 0.46

> <PUBCHEM_EFFECTIVE_ROTOR_COUNT>
7.4

> <PUBCHEM_PHARMACOPHORE_FEATURES>
11
1 2 acceptor
1 2 donor
1 4 donor
1 5 cation
1 5 donor
3 4 7 20 cation
5 3 6 19 21 22 rings
6 25 28 29 30 31 32 rings
6 5 9 15 16 17 18 rings
6 7 20 23 24 26 27 rings
6 8 10 11 12 13 14 rings

> <PUBCHEM_HEAVY_ATOM_COUNT>
32

> <PUBCHEM_ATOM_DEF_STEREO_COUNT>
0

> <PUBCHEM_ATOM_UDEF_STEREO_COUNT>
0

> <PUBCHEM_BOND_DEF_STEREO_COUNT>
0

> <PUBCHEM_BOND_UDEF_STEREO_COUNT>
0

> <PUBCHEM_ISOTOPIC_ATOM_COUNT>
0

> <PUBCHEM_COMPONENT_COUNT>
1

> <PUBCHEM_CACTVS_TAUTO_COUNT>
2

> <PUBCHEM_CONFORMER_ID>
02A4AAC500000001

> <PUBCHEM_MMFF94_ENERGY>
65.0302

> <PUBCHEM_FEATURE_SELFOVERLAP>
55.823

> <PUBCHEM_SHAPE_FINGERPRINT>
10006869 2 18266449919584585423
10439779 11 18056197123186914593
10939801 23 18336831995741467884
10940486 97 17984983953541211279
11456790 92 18114476608922238497
11646440 116 18410301315327183099
12166972 35 18200598128767714147
12422481 6 18270972249553362091
12516196 113 18410574019527397063
12788726 201 18334298665216353874
13004483 165 18408601483045983116
13383665 225 18265917842768575244
13402501 40 18334011667233642701
13560911 23 18334863866107588267
13560911 43 18338523066463405627
13583140 156 18041282188270079603
13692114 37 17835790907456900533
14028597 1 17604139355397666600
14394314 77 18336541715749082178
14466204 15 18411139139003759899
15021287 119 18269555099941831079
15131766 46 15481238704984426552
15183329 4 18408605868302654967
15276724 80 18411700993761594116
15775530 1 17482290218361520022
16087824 20 18410860924144896157
16993438 75 18190459360249773909
17980427 23 17560240357242348207
20775438 99 11315462937925612994
21033648 29 17274817017218493890
21133410 38 17626112937357737377
21298829 104 18130516224181419313
2132832 1 17627495366037020359
21814621 53 16081907305500714310
23845131 108 17690561883927203201
24771293 8 18130502058830351744
25223398 141 17968649428526584269
3178227 256 18335432291917341131
4409770 3 18263910090546995604
469060 322 17240771631569194668
6004065 56 18200303437865501487
6009941 240 17240481420692190411
6086070 43 18116692180259922647
653340 110 18197783197762804480
79837 15 17978226054903896976

> <PUBCHEM_SHAPE_MULTIPOLES>
619.61
15.61
4.55
1.53
1.7
5.94
-0.53
-6.96
-6.95
2.41
1.02
-0.32
-0.27
0.23

> <PUBCHEM_SHAPE_SELFOVERLAP>
1348.841

> <PUBCHEM_SHAPE_VOLUME>
337.5

> <PUBCHEM_COORDINATE_TYPE>
2
5
10

$$$$
