10345125
  -OEChem-10062122043D

 60 65  0     0  0  0  0  0  0999 V2000
    2.2006    5.0627   -0.6973 O   0  0  0  0  0  0  0  0  0  0  0  0
   -2.2019    5.0609    0.6987 O   0  0  0  0  0  0  0  0  0  0  0  0
    1.3547   -0.2741   -0.4291 N   0  0  0  0  0  0  0  0  0  0  0  0
   -1.3542   -0.2746    0.4274 N   0  0  0  0  0  0  0  0  0  0  0  0
   -0.0007    5.4670    0.0010 N   0  0  0  0  0  0  0  0  0  0  0  0
    0.6725    0.9475   -0.2135 C   0  0  0  0  0  0  0  0  0  0  0  0
   -0.6721    0.9471    0.2116 C   0  0  0  0  0  0  0  0  0  0  0  0
    0.6616    3.3163   -0.2096 C   0  0  0  0  0  0  0  0  0  0  0  0
   -0.6622    3.3159    0.2090 C   0  0  0  0  0  0  0  0  0  0  0  0
    1.3581    2.1463   -0.4301 C   0  0  0  0  0  0  0  0  0  0  0  0
   -1.3582    2.1455    0.4289 C   0  0  0  0  0  0  0  0  0  0  0  0
    1.0921    4.7075   -0.3451 C   0  0  0  0  0  0  0  0  0  0  0  0
   -1.0932    4.7068    0.3461 C   0  0  0  0  0  0  0  0  0  0  0  0
    2.7062   -0.6394   -0.3121 C   0  0  0  0  0  0  0  0  0  0  0  0
   -2.7057   -0.6398    0.3109 C   0  0  0  0  0  0  0  0  0  0  0  0
    3.2362   -1.6448   -1.1255 C   0  0  0  0  0  0  0  0  0  0  0  0
   -3.2355   -1.6455    1.1246 C   0  0  0  0  0  0  0  0  0  0  0  0
    3.5292    0.0009    0.6188 C   0  0  0  0  0  0  0  0  0  0  0  0
   -3.5292    0.0006   -0.6196 C   0  0  0  0  0  0  0  0  0  0  0  0
    5.3955   -1.3657   -0.0788 C   0  0  0  0  0  0  0  0  0  0  0  0
   -5.3952   -1.3661    0.0787 C   0  0  0  0  0  0  0  0  0  0  0  0
    4.5781   -2.0074   -1.0090 C   0  0  0  0  0  0  0  0  0  0  0  0
   -4.5774   -2.0078    1.0085 C   0  0  0  0  0  0  0  0  0  0  0  0
    4.8711   -0.3616    0.7352 C   0  0  0  0  0  0  0  0  0  0  0  0
   -4.8711   -0.3618   -0.7354 C   0  0  0  0  0  0  0  0  0  0  0  0
    6.7874   -1.7408    0.0412 C   0  0  0  0  0  0  0  0  0  0  0  0
   -6.7872   -1.7410   -0.0408 C   0  0  0  0  0  0  0  0  0  0  0  0
    7.1642   -2.7495    0.9282 C   0  0  0  0  0  0  0  0  0  0  0  0
   -7.1645   -2.7496   -0.9278 C   0  0  0  0  0  0  0  0  0  0  0  0
    7.7536   -1.0943   -0.7302 C   0  0  0  0  0  0  0  0  0  0  0  0
   -7.7530   -1.0946    0.7311 C   0  0  0  0  0  0  0  0  0  0  0  0
    8.5063   -3.1116    1.0439 C   0  0  0  0  0  0  0  0  0  0  0  0
   -8.5066   -3.1116   -1.0430 C   0  0  0  0  0  0  0  0  0  0  0  0
    9.0956   -1.4566   -0.6145 C   0  0  0  0  0  0  0  0  0  0  0  0
   -9.0952   -1.4567    0.6160 C   0  0  0  0  0  0  0  0  0  0  0  0
    9.4719   -2.4652    0.2726 C   0  0  0  0  0  0  0  0  0  0  0  0
   -9.4719   -2.4651   -0.2712 C   0  0  0  0  0  0  0  0  0  0  0  0
    2.3840    2.1788   -0.7785 H   0  0  0  0  0  0  0  0  0  0  0  0
   -2.3841    2.1774    0.7777 H   0  0  0  0  0  0  0  0  0  0  0  0
    0.7508   -1.0232   -0.7551 H   0  0  0  0  0  0  0  0  0  0  0  0
   -0.7501   -1.0237    0.7531 H   0  0  0  0  0  0  0  0  0  0  0  0
   -0.0008    6.4810    0.0016 H   0  0  0  0  0  0  0  0  0  0  0  0
    2.6101   -2.1521   -1.8554 H   0  0  0  0  0  0  0  0  0  0  0  0
   -2.6091   -2.1529    1.8541 H   0  0  0  0  0  0  0  0  0  0  0  0
    3.1437    0.7699    1.2827 H   0  0  0  0  0  0  0  0  0  0  0  0
   -3.1439    0.7696   -1.2837 H   0  0  0  0  0  0  0  0  0  0  0  0
    4.9709   -2.7919   -1.6515 H   0  0  0  0  0  0  0  0  0  0  0  0
   -4.9701   -2.7924    1.6511 H   0  0  0  0  0  0  0  0  0  0  0  0
    5.4936    0.1453    1.4689 H   0  0  0  0  0  0  0  0  0  0  0  0
   -5.4939    0.1451   -1.4688 H   0  0  0  0  0  0  0  0  0  0  0  0
    6.4243   -3.2638    1.5371 H   0  0  0  0  0  0  0  0  0  0  0  0
   -6.4248   -3.2638   -1.5370 H   0  0  0  0  0  0  0  0  0  0  0  0
    7.4776   -0.3060   -1.4266 H   0  0  0  0  0  0  0  0  0  0  0  0
   -7.4766   -0.3064    1.4275 H   0  0  0  0  0  0  0  0  0  0  0  0
    8.7995   -3.8969    1.7345 H   0  0  0  0  0  0  0  0  0  0  0  0
   -8.8001   -3.8967   -1.7336 H   0  0  0  0  0  0  0  0  0  0  0  0
    9.8478   -0.9534   -1.2150 H   0  0  0  0  0  0  0  0  0  0  0  0
   -9.8470   -0.9535    1.2169 H   0  0  0  0  0  0  0  0  0  0  0  0
   10.5169   -2.7470    0.3626 H   0  0  0  0  0  0  0  0  0  0  0  0
  -10.5170   -2.7470   -0.3608 H   0  0  0  0  0  0  0  0  0  0  0  0
  1 12  2  0  0  0  0
  2 13  2  0  0  0  0
  3  6  1  0  0  0  0
  3 14  1  0  0  0  0
  3 40  1  0  0  0  0
  4  7  1  0  0  0  0
  4 15  1  0  0  0  0
  4 41  1  0  0  0  0
  5 12  1  0  0  0  0
  5 13  1  0  0  0  0
  5 42  1  0  0  0  0
  6  7  2  0  0  0  0
  6 10  1  0  0  0  0
  7 11  1  0  0  0  0
  8  9  1  0  0  0  0
  8 10  2  0  0  0  0
  8 12  1  0  0  0  0
  9 11  2  0  0  0  0
  9 13  1  0  0  0  0
 10 38  1  0  0  0  0
 11 39  1  0  0  0  0
 14 16  2  0  0  0  0
 14 18  1  0  0  0  0
 15 17  2  0  0  0  0
 15 19  1  0  0  0  0
 16 22  1  0  0  0  0
 16 43  1  0  0  0  0
 17 23  1  0  0  0  0
 17 44  1  0  0  0  0
 18 24  2  0  0  0  0
 18 45  1  0  0  0  0
 19 25  2  0  0  0  0
 19 46  1  0  0  0  0
 20 22  2  0  0  0  0
 20 24  1  0  0  0  0
 20 26  1  0  0  0  0
 21 23  2  0  0  0  0
 21 25  1  0  0  0  0
 21 27  1  0  0  0  0
 22 47  1  0  0  0  0
 23 48  1  0  0  0  0
 24 49  1  0  0  0  0
 25 50  1  0  0  0  0
 26 28  2  0  0  0  0
 26 30  1  0  0  0  0
 27 29  2  0  0  0  0
 27 31  1  0  0  0  0
 28 32  1  0  0  0  0
 28 51  1  0  0  0  0
 29 33  1  0  0  0  0
 29 52  1  0  0  0  0
 30 34  2  0  0  0  0
 30 53  1  0  0  0  0
 31 35  2  0  0  0  0
 31 54  1  0  0  0  0
 32 36  2  0  0  0  0
 32 55  1  0  0  0  0
 33 37  2  0  0  0  0
 33 56  1  0  0  0  0
 34 36  1  0  0  0  0
 34 57  1  0  0  0  0
 35 37  1  0  0  0  0
 35 58  1  0  0  0  0
 36 59  1  0  0  0  0
 37 60  1  0  0  0  0
M  END
> <PUBCHEM_COMPOUND_CID>
10345125

> <PUBCHEM_CONFORMER_RMSD>
1

> <PUBCHEM_CONFORMER_DIVERSEORDER>
2
9
4
15
14
10
6
7
16
13
1
8
12
11
3
5

> <PUBCHEM_MMFF94_PARTIAL_CHARGES>
56
1 -0.57
10 -0.15
11 -0.15
12 0.54
13 0.54
14 0.1
15 0.1
16 -0.15
17 -0.15
18 -0.15
19 -0.15
2 -0.57
22 -0.15
23 -0.15
24 -0.15
25 -0.15
28 -0.15
29 -0.15
3 -0.6
30 -0.15
31 -0.15
32 -0.15
33 -0.15
34 -0.15
35 -0.15
36 -0.15
37 -0.15
38 0.15
39 0.15
4 -0.6
40 0.4
41 0.4
42 0.37
43 0.15
44 0.15
45 0.15
46 0.15
47 0.15
48 0.15
49 0.15
5 -0.49
50 0.15
51 0.15
52 0.15
53 0.15
54 0.15
55 0.15
56 0.15
57 0.15
58 0.15
59 0.15
6 0.1
60 0.15
7 0.1
8 0.09
9 0.09

> <PUBCHEM_EFFECTIVE_ROTOR_COUNT>
6.2

> <PUBCHEM_PHARMACOPHORE_FEATURES>
13
1 1 acceptor
1 2 acceptor
1 3 cation
1 3 donor
1 4 cation
1 4 donor
1 5 donor
5 5 8 9 12 13 rings
6 14 16 18 20 22 24 rings
6 15 17 19 21 23 25 rings
6 26 28 30 32 34 36 rings
6 27 29 31 33 35 37 rings
6 6 7 8 9 10 11 rings

> <PUBCHEM_HEAVY_ATOM_COUNT>
37

> <PUBCHEM_ATOM_DEF_STEREO_COUNT>
0

> <PUBCHEM_ATOM_UDEF_STEREO_COUNT>
0

> <PUBCHEM_BOND_DEF_STEREO_COUNT>
0

> <PUBCHEM_BOND_UDEF_STEREO_COUNT>
0

> <PUBCHEM_ISOTOPIC_ATOM_COUNT>
0

> <PUBCHEM_COMPONENT_COUNT>
1

> <PUBCHEM_CACTVS_TAUTO_COUNT>
17

> <PUBCHEM_CONFORMER_ID>
009DDAA500000002

> <PUBCHEM_MMFF94_ENERGY>
154.6516

> <PUBCHEM_FEATURE_SELFOVERLAP>
66.072

> <PUBCHEM_SHAPE_FINGERPRINT>
10100884 174 18261108557096898858
10411042 1 18410572885640369029
11062273 19 18194129735382664869
11146851 88 18334015007748391222
11297750 10 18260539043921447501
11411753 3 17533779567023860619
11672396 167 18270676598045778935
12013929 94 18336828599245854434
12202916 173 18410860957687586882
12539745 222 17774726363632743730
12645989 146 18411136983283572815
12741549 16 17846779598817033985
12758862 11 17095245855779023266
12758862 56 18335134336951026379
13248334 5 18049722115848206296
13631057 29 18334858265116441826
13692115 27 18261101967856852236
13782708 43 18041275586915485579
14068700 675 18408606950460190916
14068700 686 18126848197298510606
14150022 121 17917434159840596240
15351339 4 17749942272163368571
15773216 30 18044943612965776636
15876981 60 18189345572145412268
16067689 302 18341614846048264876
16090146 7 16950863405691410762
16991971 28 18409165536611113258
16992752 21 18410582756302936004
16993427 108 18261944168199776986
17686467 74 18412819171776135408
19301679 30 18412824677206744768
20771845 171 18042971063609977692
20771845 65 18272652384920176009
21133410 58 18266171911105847383
21304303 172 18411423873454583369
21792938 131 18338240474901601856
21792938 169 18054212500118553047
21927370 108 18411422782527459489
23523787 8 15647048287509013379
23559900 14 18192992836945304811
23569943 247 18409167745274304123
23729398 52 18192156103701122636
25242607 90 18271516567775629866
255183 451 18411419539737642652
3103668 31 18261389980808016061
4408954 87 17124547618149865001
5219985 9 18410578387492942530
54039377 194 18408323285134821863
58083652 198 18335432295404881752
5969126 39 18340764849938641508
6057620 51 18260271820558262698
6698420 124 17194894328791722480
6700243 42 17842589304617508292
9962374 69 18270396217715600631

> <PUBCHEM_SHAPE_MULTIPOLES>
734.76
29.46
6.59
1
0
13.99
0
-49.27
0.01
0
0
0
-0.47
-1.75

> <PUBCHEM_SHAPE_SELFOVERLAP>
1659.207

> <PUBCHEM_SHAPE_VOLUME>
386.7

> <PUBCHEM_COORDINATE_TYPE>
2
5
10

$$$$
