9910164
  -OEChem-10052120443D

 60 61  0     1  0  0  0  0  0999 V2000
    2.8724   -4.6478    0.9380 Cl  0  0  0  0  0  0  0  0  0  0  0  0
    0.7046   -2.3456   -1.3762 O   0  0  0  0  0  0  0  0  0  0  0  0
   -0.4533    1.0047   -0.8338 O   0  0  0  0  0  0  0  0  0  0  0  0
   -1.4319   -1.0519   -0.4226 N   0  0  0  0  0  0  0  0  0  0  0  0
    1.9367   -1.7605    0.5102 N   0  0  0  0  0  0  0  0  0  0  0  0
   -2.0562    0.7713   -3.1734 N   0  0  0  0  0  0  0  0  0  0  0  0
    4.6040    2.0396    0.4549 N   0  0  0  0  0  0  0  0  0  0  0  0
    5.9858    3.8104   -0.3964 N   0  0  0  0  0  0  0  0  0  0  0  0
    5.5443    3.6477    1.8337 N   0  0  0  0  0  0  0  0  0  0  0  0
   -0.4452   -1.5155    0.5441 C   0  0  1  0  0  0  0  0  0  0  0  0
   -1.1016   -2.7114    1.2243 C   0  0  0  0  0  0  0  0  0  0  0  0
   -2.0302   -3.2667    0.1472 C   0  0  0  0  0  0  0  0  0  0  0  0
   -2.5172   -2.0180   -0.5722 C   0  0  0  0  0  0  0  0  0  0  0  0
    0.7759   -1.9154   -0.2279 C   0  0  0  0  0  0  0  0  0  0  0  0
   -1.3878    0.2156   -0.9822 C   0  0  0  0  0  0  0  0  0  0  0  0
   -2.5791    0.5955   -1.8248 C   0  0  1  0  0  0  0  0  0  0  0  0
    3.2472   -2.0969    0.0026 C   0  0  1  0  0  0  0  0  0  0  0  0
    4.1499   -0.8522   -0.0410 C   0  0  0  0  0  0  0  0  0  0  0  0
   -3.2318    1.8786   -1.3109 C   0  0  0  0  0  0  0  0  0  0  0  0
    3.8927   -3.1869    0.8619 C   0  0  0  0  0  0  0  0  0  0  0  0
    3.5496    0.2815   -0.8841 C   0  0  0  0  0  0  0  0  0  0  0  0
   -4.1340    1.6386   -0.1228 C   0  0  0  0  0  0  0  0  0  0  0  0
    4.4358    1.5230   -0.9044 C   0  0  0  0  0  0  0  0  0  0  0  0
   -5.4846    1.3507   -0.3197 C   0  0  0  0  0  0  0  0  0  0  0  0
   -3.6164    1.7047    1.1709 C   0  0  0  0  0  0  0  0  0  0  0  0
   -6.3176    1.1290    0.7769 C   0  0  0  0  0  0  0  0  0  0  0  0
   -4.4494    1.4827    2.2674 C   0  0  0  0  0  0  0  0  0  0  0  0
   -5.8000    1.1949    2.0704 C   0  0  0  0  0  0  0  0  0  0  0  0
    5.3375    3.1003    0.5895 C   0  0  0  0  0  0  0  0  0  0  0  0
   -0.2112   -0.7101    1.2489 H   0  0  0  0  0  0  0  0  0  0  0  0
   -0.3905   -3.4610    1.5840 H   0  0  0  0  0  0  0  0  0  0  0  0
   -1.7014   -2.3695    2.0767 H   0  0  0  0  0  0  0  0  0  0  0  0
   -2.8511   -3.8608    0.5585 H   0  0  0  0  0  0  0  0  0  0  0  0
   -1.4639   -3.9041   -0.5421 H   0  0  0  0  0  0  0  0  0  0  0  0
   -2.7243   -2.2142   -1.6280 H   0  0  0  0  0  0  0  0  0  0  0  0
   -3.4109   -1.6088   -0.0888 H   0  0  0  0  0  0  0  0  0  0  0  0
   -3.3428   -0.1807   -1.8804 H   0  0  0  0  0  0  0  0  0  0  0  0
    3.1428   -2.4779   -1.0211 H   0  0  0  0  0  0  0  0  0  0  0  0
    1.8780   -1.4023    1.4592 H   0  0  0  0  0  0  0  0  0  0  0  0
    5.1311   -1.1264   -0.4479 H   0  0  0  0  0  0  0  0  0  0  0  0
    4.3166   -0.4970    0.9838 H   0  0  0  0  0  0  0  0  0  0  0  0
   -3.8383    2.3372   -2.1047 H   0  0  0  0  0  0  0  0  0  0  0  0
   -2.4823    2.6379   -1.0501 H   0  0  0  0  0  0  0  0  0  0  0  0
    4.0381   -2.8466    1.8925 H   0  0  0  0  0  0  0  0  0  0  0  0
    4.8645   -3.4840    0.4557 H   0  0  0  0  0  0  0  0  0  0  0  0
    2.5674    0.5653   -0.4884 H   0  0  0  0  0  0  0  0  0  0  0  0
    3.3962   -0.0683   -1.9117 H   0  0  0  0  0  0  0  0  0  0  0  0
   -2.8061    1.0628   -3.7992 H   0  0  0  0  0  0  0  0  0  0  0  0
   -1.7203   -0.1221   -3.5323 H   0  0  0  0  0  0  0  0  0  0  0  0
    5.4080    1.2619   -1.3400 H   0  0  0  0  0  0  0  0  0  0  0  0
    3.9600    2.2779   -1.5420 H   0  0  0  0  0  0  0  0  0  0  0  0
   -5.8993    1.2937   -1.3226 H   0  0  0  0  0  0  0  0  0  0  0  0
   -2.5663    1.9285    1.3384 H   0  0  0  0  0  0  0  0  0  0  0  0
   -7.3690    0.9039    0.6236 H   0  0  0  0  0  0  0  0  0  0  0  0
   -4.0465    1.5337    3.2747 H   0  0  0  0  0  0  0  0  0  0  0  0
   -6.4485    1.0217    2.9243 H   0  0  0  0  0  0  0  0  0  0  0  0
    6.5374    4.6316   -0.1720 H   0  0  0  0  0  0  0  0  0  0  0  0
    5.9401    3.5448   -1.3736 H   0  0  0  0  0  0  0  0  0  0  0  0
    6.1151    4.4762    1.9605 H   0  0  0  0  0  0  0  0  0  0  0  0
    5.1307    3.2349    2.6627 H   0  0  0  0  0  0  0  0  0  0  0  0
  1 20  1  0  0  0  0
  2 14  2  0  0  0  0
  3 15  2  0  0  0  0
  4 10  1  0  0  0  0
  4 13  1  0  0  0  0
  4 15  1  0  0  0  0
  5 14  1  0  0  0  0
  5 17  1  0  0  0  0
  5 39  1  0  0  0  0
  6 16  1  0  0  0  0
  6 48  1  0  0  0  0
  6 49  1  0  0  0  0
  7 23  1  0  0  0  0
  7 29  2  0  0  0  0
  8 29  1  0  0  0  0
  8 57  1  0  0  0  0
  8 58  1  0  0  0  0
  9 29  1  0  0  0  0
  9 59  1  0  0  0  0
  9 60  1  0  0  0  0
 10 11  1  0  0  0  0
 10 14  1  0  0  0  0
 10 30  1  0  0  0  0
 11 12  1  0  0  0  0
 11 31  1  0  0  0  0
 11 32  1  0  0  0  0
 12 13  1  0  0  0  0
 12 33  1  0  0  0  0
 12 34  1  0  0  0  0
 13 35  1  0  0  0  0
 13 36  1  0  0  0  0
 15 16  1  0  0  0  0
 16 19  1  0  0  0  0
 16 37  1  0  0  0  0
 17 18  1  0  0  0  0
 17 20  1  0  0  0  0
 17 38  1  0  0  0  0
 18 21  1  0  0  0  0
 18 40  1  0  0  0  0
 18 41  1  0  0  0  0
 19 22  1  0  0  0  0
 19 42  1  0  0  0  0
 19 43  1  0  0  0  0
 20 44  1  0  0  0  0
 20 45  1  0  0  0  0
 21 23  1  0  0  0  0
 21 46  1  0  0  0  0
 21 47  1  0  0  0  0
 22 24  2  0  0  0  0
 22 25  1  0  0  0  0
 23 50  1  0  0  0  0
 23 51  1  0  0  0  0
 24 26  1  0  0  0  0
 24 52  1  0  0  0  0
 25 27  2  0  0  0  0
 25 53  1  0  0  0  0
 26 28  2  0  0  0  0
 26 54  1  0  0  0  0
 27 28  1  0  0  0  0
 27 55  1  0  0  0  0
 28 56  1  0  0  0  0
M  END
> <PUBCHEM_COMPOUND_CID>
9910164

> <PUBCHEM_CONFORMER_RMSD>
1.2

> <PUBCHEM_CONFORMER_DIVERSEORDER>
1
105
30
48
103
64
78
8
18
79
88
65
39
89
83
29
23
33
75
82
91
47
59
73
25
44
61
20
97
42
101
98
104
35
22
58
27
77
95
16
70
41
85
46
34
50
100
54
4
108
76
45
67
80
99
62
43
92
87
26
37
74
90
69
21
110
55
38
81
66
17
102
31
68
3
93
51
56
86
9
72
109
107
32
84
28
96
11
10
106
15
2
5
71
6
52
13
19
49
7
94
36
14
12
63
60
57
24
53
40

> <PUBCHEM_MMFF94_PARTIAL_CHARGES>
37
1 -0.29
10 0.36
13 0.3
14 0.57
15 0.57
16 0.33
17 0.3
19 0.14
2 -0.57
20 0.29
22 -0.14
23 0.25
24 -0.15
25 -0.15
26 -0.15
27 -0.15
28 -0.15
29 0.55
3 -0.57
39 0.37
4 -0.66
48 0.36
49 0.36
5 -0.73
52 0.15
53 0.15
54 0.15
55 0.15
56 0.15
57 0.4
58 0.4
59 0.4
6 -0.99
60 0.4
7 -0.7
8 -0.85
9 -0.85

> <PUBCHEM_EFFECTIVE_ROTOR_COUNT>
13

> <PUBCHEM_PHARMACOPHORE_FEATURES>
10
1 2 acceptor
1 3 acceptor
1 5 donor
1 6 cation
1 6 donor
1 8 donor
1 9 donor
4 7 8 9 29 cation
5 4 10 11 12 13 rings
6 22 24 25 26 27 28 rings

> <PUBCHEM_HEAVY_ATOM_COUNT>
29

> <PUBCHEM_ATOM_DEF_STEREO_COUNT>
3

> <PUBCHEM_ATOM_UDEF_STEREO_COUNT>
0

> <PUBCHEM_BOND_DEF_STEREO_COUNT>
0

> <PUBCHEM_BOND_UDEF_STEREO_COUNT>
0

> <PUBCHEM_ISOTOPIC_ATOM_COUNT>
0

> <PUBCHEM_COMPONENT_COUNT>
1

> <PUBCHEM_CACTVS_TAUTO_COUNT>
4

> <PUBCHEM_CONFORMER_ID>
0097379400000001

> <PUBCHEM_MMFF94_ENERGY>
63.977

> <PUBCHEM_FEATURE_SELFOVERLAP>
50.802

> <PUBCHEM_SHAPE_FINGERPRINT>
10074138 170 17604716714787472643
10838868 160 18056754562270170600
11045977 3 17387704799485948091
11135609 201 18198338653409407080
11578080 2 18341057409935916570
12390115 104 18266748059514121412
12422481 6 17821736056382401261
12788726 201 17418101962119142464
13583140 156 16807285792221637067
14251764 75 18341054124671452736
14429115 67 10665233648079637944
14787075 74 18271527494947111361
14955137 171 17539126155949800530
15021287 119 18053374401491255023
15119646 57 17917432089608303957
15297060 5 18043554848728703620
15324884 4 17242437331487090590
1768 85 18335141934188457395
19309040 13 18131354137297682420
19438510 23 17988357182902286712
20609170 109 15941751699120262984
21033648 29 17459178612493753772
21307412 95 8572787167626773624
21401589 2 18335698394472811088
21987483 16 18113905979240816123
22122407 14 18125164827669018169
23559900 14 18265035974044803490
283562 15 18049435139144554742
392239 28 18193849145886239131
469060 322 17313662775848606087
5104073 3 18261386793551340210
5252454 2 18261402148006338046
57307002 103 18338806606597510834
9981440 41 18116699906700165146

> <PUBCHEM_SHAPE_MULTIPOLES>
557.05
14.36
5.28
1.92
0.17
1.29
0.35
-14.93
-5.73
10.26
-1.96
-2.04
-0.95
-0.08

> <PUBCHEM_SHAPE_SELFOVERLAP>
1129.22

> <PUBCHEM_SHAPE_VOLUME>
323.9

> <PUBCHEM_COORDINATE_TYPE>
2
5
10

$$$$
