49840306
  -OEChem-10052115163D

 63 66  0     0  0  0  0  0  0999 V2000
   -5.1274    0.3422   -2.0816 F   0  0  0  0  0  0  0  0  0  0  0  0
   -4.6538   -1.4735   -3.1801 F   0  0  0  0  0  0  0  0  0  0  0  0
   -6.4597   -1.3734   -1.9833 F   0  0  0  0  0  0  0  0  0  0  0  0
    4.1509    0.4564   -0.1082 N   0  0  0  0  0  0  0  0  0  0  0  0
    8.0662   -1.1432   -0.1953 N   0  0  0  0  0  0  0  0  0  0  0  0
    0.5043    0.9371    0.1352 N   0  0  0  0  0  0  0  0  0  0  0  0
   -0.7909    2.9167    0.4191 N   0  0  0  0  0  0  0  0  0  0  0  0
   -3.5715   -2.9136    0.5390 N   0  0  0  0  0  0  0  0  0  0  0  0
   -4.3094   -2.8348   -0.5815 N   0  0  0  0  0  0  0  0  0  0  0  0
   -2.2489    1.0913    0.2951 N   0  0  0  0  0  0  0  0  0  0  0  0
   -3.0873    3.3321    0.5843 N   0  0  0  0  0  0  0  0  0  0  0  0
    6.6640   -0.9063   -0.5295 C   0  0  0  0  0  0  0  0  0  0  0  0
    6.4647    0.5507   -0.9522 C   0  0  0  0  0  0  0  0  0  0  0  0
    5.7771   -1.2194    0.6772 C   0  0  0  0  0  0  0  0  0  0  0  0
    4.9940    0.8436   -1.2481 C   0  0  0  0  0  0  0  0  0  0  0  0
    4.3073   -0.9179    0.3812 C   0  0  0  0  0  0  0  0  0  0  0  0
    2.9140    1.0984    0.0267 C   0  0  0  0  0  0  0  0  0  0  0  0
    8.9217   -0.8699   -1.3500 C   0  0  0  0  0  0  0  0  0  0  0  0
    8.2577   -2.5180    0.2673 C   0  0  0  0  0  0  0  0  0  0  0  0
    2.8359    2.4780    0.1813 C   0  0  0  0  0  0  0  0  0  0  0  0
    1.7296    0.3797    0.0103 C   0  0  0  0  0  0  0  0  0  0  0  0
    1.5934    3.0881    0.3130 C   0  0  0  0  0  0  0  0  0  0  0  0
    0.4679    2.2803    0.2838 C   0  0  0  0  0  0  0  0  0  0  0  0
   -2.3655   -1.5886    2.2507 C   0  0  0  0  0  0  0  0  0  0  0  0
   -3.1807   -1.7016    1.0279 C   0  0  0  0  0  0  0  0  0  0  0  0
   -3.6988   -0.7649    0.1671 C   0  0  0  0  0  0  0  0  0  0  0  0
   -4.3838   -1.5198   -0.8037 C   0  0  0  0  0  0  0  0  0  0  0  0
   -3.0774   -2.1431    3.5075 C   0  0  0  0  0  0  0  0  0  0  0  0
   -0.9772   -2.2586    2.1177 C   0  0  0  0  0  0  0  0  0  0  0  0
   -3.5242    0.6515    0.3136 C   0  0  0  0  0  0  0  0  0  0  0  0
   -2.1051    2.4232    0.4335 C   0  0  0  0  0  0  0  0  0  0  0  0
   -5.1317   -1.0252   -1.9737 C   0  0  0  0  0  0  0  0  0  0  0  0
   -4.6186    1.4791    0.4618 C   0  0  0  0  0  0  0  0  0  0  0  0
   -4.3369    2.8235    0.5942 C   0  0  0  0  0  0  0  0  0  0  0  0
    6.3573   -1.5567   -1.3619 H   0  0  0  0  0  0  0  0  0  0  0  0
    6.8147    1.2268   -0.1606 H   0  0  0  0  0  0  0  0  0  0  0  0
    7.0203    0.7969   -1.8629 H   0  0  0  0  0  0  0  0  0  0  0  0
    5.8223   -2.2754    0.9635 H   0  0  0  0  0  0  0  0  0  0  0  0
    6.0969   -0.6283    1.5460 H   0  0  0  0  0  0  0  0  0  0  0  0
    4.6709    0.2911   -2.1396 H   0  0  0  0  0  0  0  0  0  0  0  0
    4.8998    1.9107   -1.4808 H   0  0  0  0  0  0  0  0  0  0  0  0
    3.7399   -1.0681    1.3084 H   0  0  0  0  0  0  0  0  0  0  0  0
    3.9261   -1.6252   -0.3661 H   0  0  0  0  0  0  0  0  0  0  0  0
    8.5923   -1.3990   -2.2517 H   0  0  0  0  0  0  0  0  0  0  0  0
    8.9937    0.2007   -1.5638 H   0  0  0  0  0  0  0  0  0  0  0  0
    9.9539   -1.1793   -1.1442 H   0  0  0  0  0  0  0  0  0  0  0  0
    7.8500   -2.6735    1.2709 H   0  0  0  0  0  0  0  0  0  0  0  0
    7.8303   -3.2570   -0.4203 H   0  0  0  0  0  0  0  0  0  0  0  0
    9.3267   -2.7428    0.3689 H   0  0  0  0  0  0  0  0  0  0  0  0
    3.7323    3.0916    0.2144 H   0  0  0  0  0  0  0  0  0  0  0  0
    1.7046   -0.6974   -0.1202 H   0  0  0  0  0  0  0  0  0  0  0  0
    1.5276    4.1642    0.4367 H   0  0  0  0  0  0  0  0  0  0  0  0
   -2.1755   -0.5279    2.4570 H   0  0  0  0  0  0  0  0  0  0  0  0
   -0.7477    3.9254    0.5275 H   0  0  0  0  0  0  0  0  0  0  0  0
   -3.2552   -3.2209    3.4242 H   0  0  0  0  0  0  0  0  0  0  0  0
   -4.0469   -1.6529    3.6497 H   0  0  0  0  0  0  0  0  0  0  0  0
   -2.4731   -1.9666    4.4036 H   0  0  0  0  0  0  0  0  0  0  0  0
   -0.4376   -1.8604    1.2518 H   0  0  0  0  0  0  0  0  0  0  0  0
   -0.3710   -2.0727    3.0105 H   0  0  0  0  0  0  0  0  0  0  0  0
   -1.0670   -3.3426    1.9870 H   0  0  0  0  0  0  0  0  0  0  0  0
   -3.3727   -3.8321    0.9158 H   0  0  0  0  0  0  0  0  0  0  0  0
   -5.6388    1.1159    0.4811 H   0  0  0  0  0  0  0  0  0  0  0  0
   -5.1324    3.5508    0.7169 H   0  0  0  0  0  0  0  0  0  0  0  0
  1 32  1  0  0  0  0
  2 32  1  0  0  0  0
  3 32  1  0  0  0  0
  4 15  1  0  0  0  0
  4 16  1  0  0  0  0
  4 17  1  0  0  0  0
  5 12  1  0  0  0  0
  5 18  1  0  0  0  0
  5 19  1  0  0  0  0
  6 21  1  0  0  0  0
  6 23  2  0  0  0  0
  7 23  1  0  0  0  0
  7 31  1  0  0  0  0
  7 54  1  0  0  0  0
  8  9  1  0  0  0  0
  8 25  1  0  0  0  0
  8 61  1  0  0  0  0
  9 27  2  0  0  0  0
 10 30  2  0  0  0  0
 10 31  1  0  0  0  0
 11 31  2  0  0  0  0
 11 34  1  0  0  0  0
 12 13  1  0  0  0  0
 12 14  1  0  0  0  0
 12 35  1  0  0  0  0
 13 15  1  0  0  0  0
 13 36  1  0  0  0  0
 13 37  1  0  0  0  0
 14 16  1  0  0  0  0
 14 38  1  0  0  0  0
 14 39  1  0  0  0  0
 15 40  1  0  0  0  0
 15 41  1  0  0  0  0
 16 42  1  0  0  0  0
 16 43  1  0  0  0  0
 17 20  1  0  0  0  0
 17 21  2  0  0  0  0
 18 44  1  0  0  0  0
 18 45  1  0  0  0  0
 18 46  1  0  0  0  0
 19 47  1  0  0  0  0
 19 48  1  0  0  0  0
 19 49  1  0  0  0  0
 20 22  2  0  0  0  0
 20 50  1  0  0  0  0
 21 51  1  0  0  0  0
 22 23  1  0  0  0  0
 22 52  1  0  0  0  0
 24 25  1  0  0  0  0
 24 28  1  0  0  0  0
 24 29  1  0  0  0  0
 24 53  1  0  0  0  0
 25 26  2  0  0  0  0
 26 27  1  0  0  0  0
 26 30  1  0  0  0  0
 27 32  1  0  0  0  0
 28 55  1  0  0  0  0
 28 56  1  0  0  0  0
 28 57  1  0  0  0  0
 29 58  1  0  0  0  0
 29 59  1  0  0  0  0
 29 60  1  0  0  0  0
 30 33  1  0  0  0  0
 33 34  2  0  0  0  0
 33 62  1  0  0  0  0
 34 63  1  0  0  0  0
M  END
> <PUBCHEM_COMPOUND_CID>
49840306

> <PUBCHEM_CONFORMER_RMSD>
1.2

> <PUBCHEM_CONFORMER_DIVERSEORDER>
1
41
90
22
74
11
56
102
64
35
72
109
60
69
45
71
44
7
47
86
105
89
75
30
96
42
78
59
16
38
106
70
39
97
82
94
68
6
18
87
103
37
84
29
21
62
46
19
26
53
8
73
67
92
5
15
17
88
25
54
50
13
83
93
108
49
14
58
43
99
100
66
4
61
20
51
104
3
65
63
36
55
81
48
57
28
12
101
91
33
24
10
107
2
80
85
98
23
32
52
95
40
27
9
31
76
34
77
79

> <PUBCHEM_MMFF94_PARTIAL_CHARGES>
37
1 -0.34
10 -0.62
11 -0.62
12 0.27
15 0.37
16 0.37
17 0.1
18 0.27
19 0.27
2 -0.34
20 -0.15
21 0.16
22 -0.15
23 0.41
24 0.18
25 -0.33
26 -0.05
27 0.11
3 -0.34
30 0.36
31 0.72
32 1.2
33 -0.15
34 0.16
4 -0.84
5 -0.81
50 0.15
51 0.15
52 0.15
54 0.4
6 -0.62
61 0.27
62 0.15
63 0.15
7 -0.6
8 0.3
9 -0.71

> <PUBCHEM_EFFECTIVE_ROTOR_COUNT>
8.2

> <PUBCHEM_PHARMACOPHORE_FEATURES>
12
1 10 acceptor
1 4 cation
1 5 cation
1 7 donor
1 8 donor
1 9 acceptor
3 24 28 29 hydrophobe
4 7 10 11 31 cation
5 8 9 25 26 27 rings
6 10 11 30 31 33 34 rings
6 4 12 13 14 15 16 rings
6 6 17 20 21 22 23 rings

> <PUBCHEM_HEAVY_ATOM_COUNT>
34

> <PUBCHEM_ATOM_DEF_STEREO_COUNT>
0

> <PUBCHEM_ATOM_UDEF_STEREO_COUNT>
0

> <PUBCHEM_BOND_DEF_STEREO_COUNT>
0

> <PUBCHEM_BOND_UDEF_STEREO_COUNT>
0

> <PUBCHEM_ISOTOPIC_ATOM_COUNT>
0

> <PUBCHEM_COMPONENT_COUNT>
1

> <PUBCHEM_CACTVS_TAUTO_COUNT>
30

> <PUBCHEM_CONFORMER_ID>
02F880B200000001

> <PUBCHEM_MMFF94_ENERGY>
92.2449

> <PUBCHEM_FEATURE_SELFOVERLAP>
60.896

> <PUBCHEM_SHAPE_FINGERPRINT>
10369192 42 13407084669168022601
10391435 84 18114742737648237240
10930396 42 13110966427438863759
11135926 11 17749391421580952706
11607047 74 15113993793934356241
11963148 33 18129095637883973174
12124843 1 18115297998845918863
1361 87 18114186397011649010
13782708 43 17988927769549607520
14068700 675 18060416927996182465
14279260 333 18336542721051582074
14931854 50 18188755224447351335
15064986 266 18261122889027640569
15183329 4 17894627046417984754
15250474 111 18261948566530760970
15361156 5 18411427202244349580
15392192 29 18338814341975412080
15604295 49 7996810166877360006
16628084 112 17971746676078674489
17627616 140 17823690863386764386
19315092 285 16701166659579141259
19958102 18 17967532368178744502
20609170 17 17393896480708278619
22899556 105 18190441909882325603
23559900 14 18263923404872279609
25025965 108 18128521705541400670
3383291 50 18335980952098194939
395649 100 18114191830967976914
397830 11 17131533021678684592
4015057 19 18336827610189806705
4073 2 18187939387030616128
42767 24 18273221872504561030
44802255 64 16008748000812209667
469060 322 11743839171162226153
484985 159 18041293144435577643
49967989 163 18262257572680816438
508706 21 18271539649056239071
57676310 115 18120365468636928045
6431902 208 18335991934471605306
6691757 9 17560527179960433489

> <PUBCHEM_SHAPE_MULTIPOLES>
638.03
20.92
3.88
2.07
44.57
1.18
-0.23
-12.29
-9.75
-3.26
1.53
-4.3
-1.9
-0.87

> <PUBCHEM_SHAPE_SELFOVERLAP>
1368.029

> <PUBCHEM_SHAPE_VOLUME>
354.9

> <PUBCHEM_COORDINATE_TYPE>
2
5
10

$$$$
