135402873
  -OEChem-10052120443D

 42 44  0     0  0  0  0  0  0999 V2000
   -0.4426    1.4088    0.3838 O   0  0  0  0  0  0  0  0  0  0  0  0
    1.0033   -0.3518   -2.2165 O   0  0  0  0  0  0  0  0  0  0  0  0
   -2.9282   -1.9793   -0.7697 N   0  0  0  0  0  0  0  0  0  0  0  0
   -4.5825    0.4721    1.0079 N   0  0  0  0  0  0  0  0  0  0  0  0
   -4.6529   -0.7215    0.3819 N   0  0  0  0  0  0  0  0  0  0  0  0
    1.9705    3.1030    0.2934 C   0  0  0  0  0  0  0  0  0  0  0  0
    0.5267    3.5738    0.0551 C   0  0  0  0  0  0  0  0  0  0  0  0
   -0.3811    2.4980   -0.5288 C   0  0  0  0  0  0  0  0  0  0  0  0
    2.5965    2.6560   -1.0297 C   0  0  0  0  0  0  0  0  0  0  0  0
    2.8381    4.1865    0.9354 C   0  0  0  0  0  0  0  0  0  0  0  0
   -1.2094    0.3355    0.0127 C   0  0  0  0  0  0  0  0  0  0  0  0
   -2.5576    0.1751    0.2945 C   0  0  0  0  0  0  0  0  0  0  0  0
   -0.7385   -0.7650   -0.7114 C   0  0  0  0  0  0  0  0  0  0  0  0
   -3.4065   -0.9161   -0.0638 C   0  0  0  0  0  0  0  0  0  0  0  0
   -3.3446    1.0547    0.9854 C   0  0  0  0  0  0  0  0  0  0  0  0
    0.6569   -0.8227   -1.1242 C   0  0  0  0  0  0  0  0  0  0  0  0
   -1.5948   -1.8383   -1.0580 C   0  0  0  0  0  0  0  0  0  0  0  0
    1.7173   -1.4379   -0.2719 C   0  0  0  0  0  0  0  0  0  0  0  0
    3.0395   -1.4669   -0.7153 C   0  0  0  0  0  0  0  0  0  0  0  0
    1.3856   -1.9825    0.9686 C   0  0  0  0  0  0  0  0  0  0  0  0
    4.0301   -2.0405    0.0819 C   0  0  0  0  0  0  0  0  0  0  0  0
    2.3761   -2.5559    1.7659 C   0  0  0  0  0  0  0  0  0  0  0  0
    3.6984   -2.5850    1.3226 C   0  0  0  0  0  0  0  0  0  0  0  0
    1.9615    2.2433    0.9752 H   0  0  0  0  0  0  0  0  0  0  0  0
    0.5217    4.4471   -0.6085 H   0  0  0  0  0  0  0  0  0  0  0  0
    0.1103    3.8990    1.0172 H   0  0  0  0  0  0  0  0  0  0  0  0
   -1.3867    2.9179   -0.6537 H   0  0  0  0  0  0  0  0  0  0  0  0
   -0.0400    2.1656   -1.5141 H   0  0  0  0  0  0  0  0  0  0  0  0
    2.1093    1.7703   -1.4356 H   0  0  0  0  0  0  0  0  0  0  0  0
    3.6514    2.3959   -0.8866 H   0  0  0  0  0  0  0  0  0  0  0  0
    2.5488    3.4506   -1.7822 H   0  0  0  0  0  0  0  0  0  0  0  0
    2.4151    4.5004    1.8954 H   0  0  0  0  0  0  0  0  0  0  0  0
    3.8522    3.8172    1.1207 H   0  0  0  0  0  0  0  0  0  0  0  0
    2.9096    5.0698    0.2919 H   0  0  0  0  0  0  0  0  0  0  0  0
   -3.1608    2.0118    1.4531 H   0  0  0  0  0  0  0  0  0  0  0  0
   -1.1940   -2.6793   -1.6230 H   0  0  0  0  0  0  0  0  0  0  0  0
   -5.4256    0.8352    1.4343 H   0  0  0  0  0  0  0  0  0  0  0  0
    3.3249   -1.0485   -1.6766 H   0  0  0  0  0  0  0  0  0  0  0  0
    0.3687   -1.9788    1.3492 H   0  0  0  0  0  0  0  0  0  0  0  0
    5.0598   -2.0628   -0.2628 H   0  0  0  0  0  0  0  0  0  0  0  0
    2.1183   -2.9798    2.7321 H   0  0  0  0  0  0  0  0  0  0  0  0
    4.4696   -3.0314    1.9435 H   0  0  0  0  0  0  0  0  0  0  0  0
  1  8  1  0  0  0  0
  1 11  1  0  0  0  0
  2 16  2  0  0  0  0
  3 14  1  0  0  0  0
  3 17  2  0  0  0  0
  4  5  1  0  0  0  0
  4 15  1  0  0  0  0
  4 37  1  0  0  0  0
  5 14  2  0  0  0  0
  6  7  1  0  0  0  0
  6  9  1  0  0  0  0
  6 10  1  0  0  0  0
  6 24  1  0  0  0  0
  7  8  1  0  0  0  0
  7 25  1  0  0  0  0
  7 26  1  0  0  0  0
  8 27  1  0  0  0  0
  8 28  1  0  0  0  0
  9 29  1  0  0  0  0
  9 30  1  0  0  0  0
  9 31  1  0  0  0  0
 10 32  1  0  0  0  0
 10 33  1  0  0  0  0
 10 34  1  0  0  0  0
 11 12  1  0  0  0  0
 11 13  2  0  0  0  0
 12 14  1  0  0  0  0
 12 15  2  0  0  0  0
 13 16  1  0  0  0  0
 13 17  1  0  0  0  0
 15 35  1  0  0  0  0
 16 18  1  0  0  0  0
 17 36  1  0  0  0  0
 18 19  2  0  0  0  0
 18 20  1  0  0  0  0
 19 21  1  0  0  0  0
 19 38  1  0  0  0  0
 20 22  2  0  0  0  0
 20 39  1  0  0  0  0
 21 23  2  0  0  0  0
 21 40  1  0  0  0  0
 22 23  1  0  0  0  0
 22 41  1  0  0  0  0
 23 42  1  0  0  0  0
M  END
> <PUBCHEM_COMPOUND_CID>
135402873

> <PUBCHEM_CONFORMER_RMSD>
0.8

> <PUBCHEM_CONFORMER_DIVERSEORDER>
1
2
14
22
16
11
10
8
9
19
6
24
26
20
13
23
25
18
17
4
3
7
12
21
5
15

> <PUBCHEM_MMFF94_PARTIAL_CHARGES>
26
1 -0.36
11 0.08
13 0.09
14 0.54
15 -0.3
16 0.4
17 0.16
18 0.09
19 -0.15
2 -0.57
20 -0.15
21 -0.15
22 -0.15
23 -0.15
3 -0.57
35 0.15
36 0.15
37 0.27
38 0.15
39 0.15
4 0.3
40 0.15
41 0.15
42 0.15
5 -0.71
8 0.28

> <PUBCHEM_EFFECTIVE_ROTOR_COUNT>
6

> <PUBCHEM_PHARMACOPHORE_FEATURES>
9
1 1 acceptor
1 2 acceptor
1 3 acceptor
1 4 donor
3 3 5 14 cation
3 6 9 10 hydrophobe
5 4 5 12 14 15 rings
6 18 19 20 21 22 23 rings
6 3 11 12 13 14 17 rings

> <PUBCHEM_HEAVY_ATOM_COUNT>
23

> <PUBCHEM_ATOM_DEF_STEREO_COUNT>
0

> <PUBCHEM_ATOM_UDEF_STEREO_COUNT>
0

> <PUBCHEM_BOND_DEF_STEREO_COUNT>
0

> <PUBCHEM_BOND_UDEF_STEREO_COUNT>
0

> <PUBCHEM_ISOTOPIC_ATOM_COUNT>
0

> <PUBCHEM_COMPONENT_COUNT>
1

> <PUBCHEM_CACTVS_TAUTO_COUNT>
-1

> <PUBCHEM_CONFORMER_ID>
0812157900000001

> <PUBCHEM_MMFF94_ENERGY>
71.9068

> <PUBCHEM_FEATURE_SELFOVERLAP>
45.821

> <PUBCHEM_SHAPE_FINGERPRINT>
10382601 240 18339934830007417625
107951 10 17760386769792383908
11578080 2 17895459376224359365
12035758 1 18050847715708329193
12156800 1 15481016448647852784
12422481 6 17983259769775703344
12553582 1 18337950069664113230
12592029 89 18123194768713216825
12644460 14 18268448965231203017
12788726 201 17974301927815901402
13140716 1 18342192076556513475
13149001 5 17756108268778686493
133893 2 18196346303626781821
13540713 5 18059012917042309791
13583140 156 18260274070646235763
14022349 108 18340775935001481481
14787075 74 18260561017416497966
14955137 171 18267040387193031583
15375462 189 18187370878545780363
15475509 35 17678201406794778835
16120349 306 17909248515073858736
17780758 139 17322647710294377690
17980427 23 17846204541076322493
20567600 347 17903918099475489498
20600515 1 18059020453739041385
20642791 35 18342470243897281332
20905425 154 18341902891570811300
21033648 29 17201910423867137979
23366157 5 18262522618663360317
23419403 2 18115005438516230693
23558518 356 17691412227374191884
23559900 14 17916884446960355375
23598288 3 17829318090883257483
25147074 1 17988362697935518335
3411729 13 18270969062719562937
352729 6 17255958975034919076
394222 165 18128263474156445312
43471831 8 17979351185647226253
4409770 3 17686330975967631308
474 4 18190743239716586652
58807428 26 18050565449861309392
59554788 281 17616245223159236724
6138700 20 18269286814894069652
6287921 2 18129082580808255410
69474 34 18340484448477102817
81228 2 17624151407684609665
90316 7 18123747556583916667
9981440 41 17762895867741910936

> <PUBCHEM_SHAPE_MULTIPOLES>
446.65
7.16
4.77
1.41
4.53
5.67
0.13
-3.3
-2.29
-5.67
-1.08
-0.58
-0.48
-1.11

> <PUBCHEM_SHAPE_SELFOVERLAP>
964.585

> <PUBCHEM_SHAPE_VOLUME>
244.2

> <PUBCHEM_COORDINATE_TYPE>
2
5
10

$$$$
