135398522
  -OEChem-10052115143D

 36 39  0     0  0  0  0  0  0999 V2000
   -3.1998   -1.9194    1.4015 O   0  0  0  0  0  0  0  0  0  0  0  0
   -4.6782   -1.9547   -0.5013 O   0  0  0  0  0  0  0  0  0  0  0  0
    0.7779    4.5429    0.3248 O   0  0  0  0  0  0  0  0  0  0  0  0
    2.3306    2.7883    0.2612 N   0  0  0  0  0  0  0  0  0  0  0  0
    3.2981    0.6419    0.1249 N   0  0  0  0  0  0  0  0  0  0  0  0
    0.9476    1.0458    0.0133 N   0  0  0  0  0  0  0  0  0  0  0  0
   -2.0773    1.2034   -0.1640 C   0  0  0  0  0  0  0  0  0  0  0  0
   -3.0214   -0.8428    0.5885 C   0  0  0  0  0  0  0  0  0  0  0  0
   -3.8656   -0.8630   -0.4981 C   0  0  0  0  0  0  0  0  0  0  0  0
   -2.1143    0.1783    0.7842 C   0  0  0  0  0  0  0  0  0  0  0  0
   -1.1378    2.3028   -0.0032 C   0  0  0  0  0  0  0  0  0  0  0  0
    0.2048    2.2018    0.0726 C   0  0  0  0  0  0  0  0  0  0  0  0
   -2.9398    1.1829   -1.2742 C   0  0  0  0  0  0  0  0  0  0  0  0
   -3.8493    0.1369   -1.4489 C   0  0  0  0  0  0  0  0  0  0  0  0
    2.1876    1.4342    0.1274 C   0  0  0  0  0  0  0  0  0  0  0  0
   -4.2510   -2.6195    0.7051 C   0  0  0  0  0  0  0  0  0  0  0  0
    1.0959    3.3737    0.2370 C   0  0  0  0  0  0  0  0  0  0  0  0
    3.3401   -0.7502   -0.0005 C   0  0  0  0  0  0  0  0  0  0  0  0
    4.4422   -1.3641   -0.5957 C   0  0  0  0  0  0  0  0  0  0  0  0
    2.2799   -1.5250    0.4701 C   0  0  0  0  0  0  0  0  0  0  0  0
    4.4840   -2.7528   -0.7204 C   0  0  0  0  0  0  0  0  0  0  0  0
    2.3219   -2.9137    0.3455 C   0  0  0  0  0  0  0  0  0  0  0  0
    3.4239   -3.5276   -0.2498 C   0  0  0  0  0  0  0  0  0  0  0  0
   -1.4624    0.1744    1.6521 H   0  0  0  0  0  0  0  0  0  0  0  0
   -1.5976    3.2886    0.0300 H   0  0  0  0  0  0  0  0  0  0  0  0
   -2.9089    1.9818   -2.0120 H   0  0  0  0  0  0  0  0  0  0  0  0
   -4.5158    0.1171   -2.3035 H   0  0  0  0  0  0  0  0  0  0  0  0
   -5.1122   -2.7167    1.3761 H   0  0  0  0  0  0  0  0  0  0  0  0
   -3.8924   -3.6221    0.4452 H   0  0  0  0  0  0  0  0  0  0  0  0
    3.2113    3.2791    0.3623 H   0  0  0  0  0  0  0  0  0  0  0  0
    4.2031    1.1018    0.0883 H   0  0  0  0  0  0  0  0  0  0  0  0
    5.2747   -0.7719   -0.9672 H   0  0  0  0  0  0  0  0  0  0  0  0
    1.4251   -1.0988    0.9843 H   0  0  0  0  0  0  0  0  0  0  0  0
    5.3422   -3.2310   -1.1834 H   0  0  0  0  0  0  0  0  0  0  0  0
    1.5018   -3.5183    0.7219 H   0  0  0  0  0  0  0  0  0  0  0  0
    3.4577   -4.6090   -0.3444 H   0  0  0  0  0  0  0  0  0  0  0  0
  1  8  1  0  0  0  0
  1 16  1  0  0  0  0
  2  9  1  0  0  0  0
  2 16  1  0  0  0  0
  3 17  2  0  0  0  0
  4 15  1  0  0  0  0
  4 17  1  0  0  0  0
  4 30  1  0  0  0  0
  5 15  1  0  0  0  0
  5 18  1  0  0  0  0
  5 31  1  0  0  0  0
  6 12  1  0  0  0  0
  6 15  2  0  0  0  0
  7 10  2  0  0  0  0
  7 11  1  0  0  0  0
  7 13  1  0  0  0  0
  8  9  2  0  0  0  0
  8 10  1  0  0  0  0
  9 14  1  0  0  0  0
 10 24  1  0  0  0  0
 11 12  2  0  0  0  0
 11 25  1  0  0  0  0
 12 17  1  0  0  0  0
 13 14  2  0  0  0  0
 13 26  1  0  0  0  0
 14 27  1  0  0  0  0
 16 28  1  0  0  0  0
 16 29  1  0  0  0  0
 18 19  2  0  0  0  0
 18 20  1  0  0  0  0
 19 21  1  0  0  0  0
 19 32  1  0  0  0  0
 20 22  2  0  0  0  0
 20 33  1  0  0  0  0
 21 23  2  0  0  0  0
 21 34  1  0  0  0  0
 22 23  1  0  0  0  0
 22 35  1  0  0  0  0
 23 36  1  0  0  0  0
M  END
> <PUBCHEM_COMPOUND_CID>
135398522

> <PUBCHEM_CONFORMER_RMSD>
0.6

> <PUBCHEM_CONFORMER_DIVERSEORDER>
1
56
27
39
51
14
25
11
7
28
42
5
17
44
63
18
9
58
23
57
8
15
29
2
33
22
43
64
13
50
32
35
40
10
34
21
38
24
47
36
45
41
3
52
4
30
46
16
19
31
62
61
12
6
54
37
55
65
20
49
59
53
26
48
60

> <PUBCHEM_MMFF94_PARTIAL_CHARGES>
34
1 -0.36
10 -0.15
11 -0.18
12 0.19
13 -0.15
14 -0.15
15 0.56
16 0.56
17 0.62
18 0.1
19 -0.15
2 -0.36
20 -0.15
21 -0.15
22 -0.15
23 -0.15
24 0.15
25 0.15
26 0.15
27 0.15
3 -0.57
30 0.37
31 0.4
32 0.15
33 0.15
34 0.15
35 0.15
36 0.15
4 -0.49
5 -0.55
6 -0.62
7 0.03
8 0.08
9 0.08

> <PUBCHEM_EFFECTIVE_ROTOR_COUNT>
3.8

> <PUBCHEM_PHARMACOPHORE_FEATURES>
9
1 1 acceptor
1 2 acceptor
1 3 acceptor
1 4 donor
1 5 donor
5 1 2 8 9 16 rings
5 4 6 12 15 17 rings
6 18 19 20 21 22 23 rings
6 7 8 9 10 13 14 rings

> <PUBCHEM_HEAVY_ATOM_COUNT>
23

> <PUBCHEM_ATOM_DEF_STEREO_COUNT>
0

> <PUBCHEM_ATOM_UDEF_STEREO_COUNT>
0

> <PUBCHEM_BOND_DEF_STEREO_COUNT>
1

> <PUBCHEM_BOND_UDEF_STEREO_COUNT>
0

> <PUBCHEM_ISOTOPIC_ATOM_COUNT>
0

> <PUBCHEM_COMPONENT_COUNT>
1

> <PUBCHEM_CACTVS_TAUTO_COUNT>
-1

> <PUBCHEM_CONFORMER_ID>
0812047A00000001

> <PUBCHEM_MMFF94_ENERGY>
70.9969

> <PUBCHEM_FEATURE_SELFOVERLAP>
45.866

> <PUBCHEM_SHAPE_FINGERPRINT>
10616163 171 17908706125160180398
10928967 22 18342190963316874774
114674 6 18262517129663579314
11719270 70 18123459742605359368
12107183 9 18199204923055162953
12363563 72 18340491071253181430
12506688 2 18410575067773554944
12553582 1 18265051319218348312
12788726 201 17833824971854664120
13402501 40 18116433832827259923
13533116 47 18269558415772023859
1361 2 17833549381601139395
138480 1 18411139164451511440
13911987 19 17902533793379216092
13989917 61 18050291667788983819
14251757 5 18047190743716902820
14363568 33 18194139605454692626
14659021 117 17760637080475844994
14767858 380 18264227914812900124
14863182 85 18193278722521567028
14866123 147 17764589815929204657
14916288 52 18338517426237759730
14931854 50 18044091263382984031
14932701 244 13481708656393953707
14950920 106 13829263019651705206
15352361 1 18411136892361272166
15422964 175 18411689976964945960
15635459 17 18262234559575456147
17492 89 18340768242963103967
17859628 70 18195253444982396929
17859628 97 16464740435047476712
19930381 70 18337951315536711235
20028762 73 17768247173939497718
20291156 8 18341049614607047646
20645477 70 18119519080088056601
20693207 138 18187357753378633101
20775530 9 18335143050874802906
21133410 171 17396649326431304259
21133410 32 16373582499033331794
21197605 99 17327466225023403131
21279426 13 18262223457918413605
21315759 227 18260819423438462106
221357 26 18335419058664347751
221490 88 18409167739965674476
22849339 104 17549280137716137492
23379529 103 17911530796439430238
23559900 14 18336252535633210325
23845131 108 16758586652811981201
26353 1 17531253799082086956
3117164 225 18340225024537541865
314173 41 18410294683533901772
3421961 26 18341049709033226144
3729539 64 17828188910385980295
3737641 26 18339378412878172752
4280585 95 18117548540740308594
46194498 28 17676772088390300005
463206 1 18336271145425648370
5309563 4 18413109454702336231
5486654 36 18338812117161188969
613672 6 18267003008329596122
6433294 58 18265895950254636791
6669772 16 17910405210281458740
7987 15 17824282590005859187
9709674 26 18334851775193932537

> <PUBCHEM_SHAPE_MULTIPOLES>
440.78
9.56
5.01
0.99
0.32
2.71
-0.12
-10.14
-1.84
2.23
0.73
-0.83
-0.28
1.28

> <PUBCHEM_SHAPE_SELFOVERLAP>
987.414

> <PUBCHEM_SHAPE_VOLUME>
233.9

> <PUBCHEM_COORDINATE_TYPE>
2
5
10

$$$$
