5311382
  -OEChem-10062122023D

 62 65  0     0  0  0  0  0  0999 V2000
   -6.2415    0.2580   -2.4861 Cl  0  0  0  0  0  0  0  0  0  0  0  0
   -5.4426   -1.7678    2.5422 Cl  0  0  0  0  0  0  0  0  0  0  0  0
    5.7499    0.6972   -1.0371 O   0  0  0  0  0  0  0  0  0  0  0  0
   -3.6909   -2.2827   -0.9234 O   0  0  0  0  0  0  0  0  0  0  0  0
    8.1493   -1.7415    0.3296 N   0  0  0  0  0  0  0  0  0  0  0  0
   -2.1421   -0.6177   -0.4538 N   0  0  0  0  0  0  0  0  0  0  0  0
   -0.6008    1.1679    0.0384 N   0  0  0  0  0  0  0  0  0  0  0  0
    0.8921    2.9135    0.5171 N   0  0  0  0  0  0  0  0  0  0  0  0
   -1.3848    3.2456    0.9647 N   0  0  0  0  0  0  0  0  0  0  0  0
    7.6819   -0.5460   -0.3562 C   0  0  0  0  0  0  0  0  0  0  0  0
    7.6443   -2.9482   -0.3298 C   0  0  0  0  0  0  0  0  0  0  0  0
    9.6130   -1.7696    0.3824 C   0  0  0  0  0  0  0  0  0  0  0  0
    6.1624   -0.4960   -0.3723 C   0  0  0  0  0  0  0  0  0  0  0  0
   -1.8723    0.6981    0.0294 C   0  0  0  0  0  0  0  0  0  0  0  0
   -4.5492   -0.2892    0.0102 C   0  0  0  0  0  0  0  0  0  0  0  0
   -2.9359    1.4647    0.4789 C   0  0  0  0  0  0  0  0  0  0  0  0
    8.0691   -4.2009    0.4177 C   0  0  0  0  0  0  0  0  0  0  0  0
   10.1618   -0.5270    1.0628 C   0  0  0  0  0  0  0  0  0  0  0  0
   -3.4302   -1.1568   -0.4952 C   0  0  0  0  0  0  0  0  0  0  0  0
   -4.2916    0.9452    0.4666 C   0  0  0  0  0  0  0  0  0  0  0  0
   -5.9365   -0.7880    0.0297 C   0  0  0  0  0  0  0  0  0  0  0  0
    4.5611    1.2393   -0.6562 C   0  0  0  0  0  0  0  0  0  0  0  0
   -1.0023   -1.4004   -0.9230 C   0  0  0  0  0  0  0  0  0  0  0  0
   -2.6320    2.7367    0.9379 C   0  0  0  0  0  0  0  0  0  0  0  0
   -0.4303    2.4189    0.5071 C   0  0  0  0  0  0  0  0  0  0  0  0
    2.1216    2.3524    0.1245 C   0  0  0  0  0  0  0  0  0  0  0  0
    4.3645    2.6176   -0.7408 C   0  0  0  0  0  0  0  0  0  0  0  0
    3.5393    0.4169   -0.1815 C   0  0  0  0  0  0  0  0  0  0  0  0
   -6.7765   -0.5800   -1.0694 C   0  0  0  0  0  0  0  0  0  0  0  0
   -6.4240   -1.4735    1.1474 C   0  0  0  0  0  0  0  0  0  0  0  0
    3.1461    3.1735   -0.3509 C   0  0  0  0  0  0  0  0  0  0  0  0
    2.3210    0.9730    0.2084 C   0  0  0  0  0  0  0  0  0  0  0  0
   -8.0889   -1.0522   -1.0512 C   0  0  0  0  0  0  0  0  0  0  0  0
   -7.7364   -1.9458    1.1656 C   0  0  0  0  0  0  0  0  0  0  0  0
   -8.5688   -1.7352    0.0663 C   0  0  0  0  0  0  0  0  0  0  0  0
    8.0664   -0.4834   -1.3832 H   0  0  0  0  0  0  0  0  0  0  0  0
    8.0059    0.3706    0.1491 H   0  0  0  0  0  0  0  0  0  0  0  0
    6.5520   -2.9835   -0.3124 H   0  0  0  0  0  0  0  0  0  0  0  0
    7.9642   -3.0103   -1.3774 H   0  0  0  0  0  0  0  0  0  0  0  0
    9.9606   -2.6147    0.9855 H   0  0  0  0  0  0  0  0  0  0  0  0
   10.0570   -1.8685   -0.6162 H   0  0  0  0  0  0  0  0  0  0  0  0
    5.8025   -0.5266    0.6649 H   0  0  0  0  0  0  0  0  0  0  0  0
    5.7240   -1.3173   -0.9447 H   0  0  0  0  0  0  0  0  0  0  0  0
    7.4960   -5.0599    0.0503 H   0  0  0  0  0  0  0  0  0  0  0  0
    7.8772   -4.1177    1.4930 H   0  0  0  0  0  0  0  0  0  0  0  0
    9.1248   -4.4436    0.2619 H   0  0  0  0  0  0  0  0  0  0  0  0
   11.2198   -0.6802    1.3048 H   0  0  0  0  0  0  0  0  0  0  0  0
    9.6418   -0.3133    2.0030 H   0  0  0  0  0  0  0  0  0  0  0  0
   10.1175    0.3575    0.4197 H   0  0  0  0  0  0  0  0  0  0  0  0
   -5.0824    1.5885    0.8420 H   0  0  0  0  0  0  0  0  0  0  0  0
   -0.2981   -1.5428   -0.0973 H   0  0  0  0  0  0  0  0  0  0  0  0
   -0.5139   -0.8715   -1.7475 H   0  0  0  0  0  0  0  0  0  0  0  0
   -1.3161   -2.3844   -1.2818 H   0  0  0  0  0  0  0  0  0  0  0  0
   -3.4017    3.4065    1.3094 H   0  0  0  0  0  0  0  0  0  0  0  0
    0.9357    3.9009    0.7508 H   0  0  0  0  0  0  0  0  0  0  0  0
    5.1569    3.2630   -1.1099 H   0  0  0  0  0  0  0  0  0  0  0  0
    3.6432   -0.6620   -0.1167 H   0  0  0  0  0  0  0  0  0  0  0  0
    3.0057    4.2492   -0.4230 H   0  0  0  0  0  0  0  0  0  0  0  0
    1.5693    0.3003    0.6076 H   0  0  0  0  0  0  0  0  0  0  0  0
   -8.7514   -0.8972   -1.8991 H   0  0  0  0  0  0  0  0  0  0  0  0
   -8.1271   -2.4801    2.0280 H   0  0  0  0  0  0  0  0  0  0  0  0
   -9.5906   -2.1030    0.0805 H   0  0  0  0  0  0  0  0  0  0  0  0
  1 29  1  0  0  0  0
  2 30  1  0  0  0  0
  3 13  1  0  0  0  0
  3 22  1  0  0  0  0
  4 19  2  0  0  0  0
  5 10  1  0  0  0  0
  5 11  1  0  0  0  0
  5 12  1  0  0  0  0
  6 14  1  0  0  0  0
  6 19  1  0  0  0  0
  6 23  1  0  0  0  0
  7 14  2  0  0  0  0
  7 25  1  0  0  0  0
  8 25  1  0  0  0  0
  8 26  1  0  0  0  0
  8 55  1  0  0  0  0
  9 24  1  0  0  0  0
  9 25  2  0  0  0  0
 10 13  1  0  0  0  0
 10 36  1  0  0  0  0
 10 37  1  0  0  0  0
 11 17  1  0  0  0  0
 11 38  1  0  0  0  0
 11 39  1  0  0  0  0
 12 18  1  0  0  0  0
 12 40  1  0  0  0  0
 12 41  1  0  0  0  0
 13 42  1  0  0  0  0
 13 43  1  0  0  0  0
 14 16  1  0  0  0  0
 15 19  1  0  0  0  0
 15 20  2  0  0  0  0
 15 21  1  0  0  0  0
 16 20  1  0  0  0  0
 16 24  2  0  0  0  0
 17 44  1  0  0  0  0
 17 45  1  0  0  0  0
 17 46  1  0  0  0  0
 18 47  1  0  0  0  0
 18 48  1  0  0  0  0
 18 49  1  0  0  0  0
 20 50  1  0  0  0  0
 21 29  2  0  0  0  0
 21 30  1  0  0  0  0
 22 27  2  0  0  0  0
 22 28  1  0  0  0  0
 23 51  1  0  0  0  0
 23 52  1  0  0  0  0
 23 53  1  0  0  0  0
 24 54  1  0  0  0  0
 26 31  2  0  0  0  0
 26 32  1  0  0  0  0
 27 31  1  0  0  0  0
 27 56  1  0  0  0  0
 28 32  2  0  0  0  0
 28 57  1  0  0  0  0
 29 33  1  0  0  0  0
 30 34  2  0  0  0  0
 31 58  1  0  0  0  0
 32 59  1  0  0  0  0
 33 35  2  0  0  0  0
 33 60  1  0  0  0  0
 34 35  1  0  0  0  0
 34 61  1  0  0  0  0
 35 62  1  0  0  0  0
M  END
> <PUBCHEM_COMPOUND_CID>
5311382

> <PUBCHEM_CONFORMER_RMSD>
1

> <PUBCHEM_CONFORMER_DIVERSEORDER>
1
5
27
42
47
69
38
22
16
54
3
11
52
30
44
4
60
17
41
24
59
40
68
23
51
61
35
10
33
37
67
39
9
25
26
63
15
56
58
66
2
49
12
32
29
50
14
21
13
55
28
19
64
34
20
53
8
43
46
31
6
62
65
45
36
18
48
7
57

> <PUBCHEM_MMFF94_PARTIAL_CHARGES>
43
1 -0.18
10 0.27
11 0.27
12 0.27
13 0.28
14 0.43
15 -0.01
16 0.03
19 0.62
2 -0.18
20 -0.18
21 0.03
22 0.08
23 0.3
24 0.16
25 0.72
26 0.1
27 -0.15
28 -0.15
29 0.18
3 -0.36
30 0.18
31 -0.15
32 -0.15
33 -0.15
34 -0.15
35 -0.15
4 -0.57
5 -0.81
50 0.15
54 0.15
55 0.4
56 0.15
57 0.15
58 0.15
59 0.15
6 -0.48
60 0.15
61 0.15
62 0.15
7 -0.62
8 -0.6
9 -0.62

> <PUBCHEM_EFFECTIVE_ROTOR_COUNT>
9

> <PUBCHEM_PHARMACOPHORE_FEATURES>
9
1 3 acceptor
1 4 acceptor
1 5 cation
1 8 donor
4 7 8 9 25 cation
6 21 29 30 33 34 35 rings
6 22 26 27 28 31 32 rings
6 6 14 15 16 19 20 rings
6 7 9 14 16 24 25 rings

> <PUBCHEM_HEAVY_ATOM_COUNT>
35

> <PUBCHEM_ATOM_DEF_STEREO_COUNT>
0

> <PUBCHEM_ATOM_UDEF_STEREO_COUNT>
0

> <PUBCHEM_BOND_DEF_STEREO_COUNT>
0

> <PUBCHEM_BOND_UDEF_STEREO_COUNT>
0

> <PUBCHEM_ISOTOPIC_ATOM_COUNT>
0

> <PUBCHEM_COMPONENT_COUNT>
1

> <PUBCHEM_CACTVS_TAUTO_COUNT>
4

> <PUBCHEM_CONFORMER_ID>
00510B9600000001

> <PUBCHEM_MMFF94_ENERGY>
111.9939

> <PUBCHEM_FEATURE_SELFOVERLAP>
45.701

> <PUBCHEM_SHAPE_FINGERPRINT>
10254770 206 18201994439383145910
10258705 36 17898021363431051859
10930396 42 14620794890799462931
10939801 23 18273212028966538710
11273773 46 18260267464833631843
11297750 10 18343011203692799472
11386260 185 16515694377097024844
11578821 258 9799422104866579883
117089 54 18337963285748124730
11828042 58 18041278778303280253
12013929 94 18341896265606631480
12841400 136 18407762542646676392
13165053 103 18057597673092641439
13811026 1 18407759240075256218
14359421 15 17748822995296485122
14617042 71 8574439733646057703
14664723 55 7853572448729313678
15183329 4 17916596474099188509
15684393 108 18187655738694757686
19841028 212 18335137631179671392
20105231 36 18114187488719429643
2026 5 18409729534483865486
20721686 56 18412268298390230199
208703 8 18335699417254912608
20982279 24 17968678067848412699
21267235 1 18341902917076773125
212700 22 18336540531061541858
21585483 132 18042118770584550842
21792961 116 18334290968866905645
23522609 53 17840344234517357337
23559900 14 17913765287666631785
23569943 247 18272931644374139267
23576562 1 14418996118252345487
25025965 108 18201428165241588615
3004659 81 18335418014686711876
3383291 50 18413392046602892682
3986486 107 14851883626391569414
406291 66 18412265004650967398
439807 62 18408609183895841252
4461854 278 17989489628455853310
4756088 132 17479727660590543614
54039377 194 18410577280124661758
5470011 282 17822017553493201836
5718773 13 18410295787899782904
6081469 158 18113335318855142933
6201320 221 16444732867688099146
9962374 69 18272644701470972878

> <PUBCHEM_SHAPE_MULTIPOLES>
687.38
31.88
3.96
1.41
45.54
0.3
0.03
-32.73
0.95
5.9
0.84
-2.92
-0.33
-0.19

> <PUBCHEM_SHAPE_SELFOVERLAP>
1459.492

> <PUBCHEM_SHAPE_VOLUME>
384.3

> <PUBCHEM_COORDINATE_TYPE>
2
5
10

$$$$
