9977114
  -OEChem-10052120443D

 40 42  0     1  0  0  0  0  0999 V2000
   -1.9041   -2.8614    0.0178 Br  0  0  0  0  0  0  0  0  0  0  0  0
    3.5126   -1.6529    0.2171 O   0  0  0  0  0  0  0  0  0  0  0  0
    5.7316   -0.4355   -0.3966 O   0  0  0  0  0  0  0  0  0  0  0  0
    5.8836    1.6223    0.5896 O   0  0  0  0  0  0  0  0  0  0  0  0
   -2.5710    0.1250   -0.2545 N   0  0  3  0  0  0  0  0  0  0  0  0
   -5.8745    0.8822    1.0642 N   0  0  0  0  0  0  0  0  0  0  0  0
   -0.4312    1.0300   -0.2088 N   0  0  0  0  0  0  0  0  0  0  0  0
    1.7611    1.9708   -0.1634 N   0  0  0  0  0  0  0  0  0  0  0  0
   -4.8538    0.1780    0.3077 C   0  0  1  0  0  0  0  0  0  0  0  0
   -4.6847    0.6995   -1.1155 C   0  0  0  0  0  0  0  0  0  0  0  0
   -3.4482    0.3453    0.8957 C   0  0  0  0  0  0  0  0  0  0  0  0
   -3.3150    0.1492   -1.5131 C   0  0  0  0  0  0  0  0  0  0  0  0
   -1.2104   -0.0756   -0.1640 C   0  0  0  0  0  0  0  0  0  0  0  0
   -0.7261   -1.3659   -0.0356 C   0  0  0  0  0  0  0  0  0  0  0  0
   -7.1813    0.7572    0.4285 C   0  0  0  0  0  0  0  0  0  0  0  0
    0.6485   -1.5390    0.0529 C   0  0  0  0  0  0  0  0  0  0  0  0
    1.4784   -0.4198    0.0099 C   0  0  0  0  0  0  0  0  0  0  0  0
    0.9099    0.8557   -0.1217 C   0  0  0  0  0  0  0  0  0  0  0  0
    2.9559   -0.5684    0.1021 C   0  0  0  0  0  0  0  0  0  0  0  0
    1.2002   -2.9245    0.1922 C   0  0  0  0  0  0  0  0  0  0  0  0
    3.7694    0.6798    0.0492 C   0  0  0  0  0  0  0  0  0  0  0  0
    3.1187    1.8431   -0.0782 C   0  0  0  0  0  0  0  0  0  0  0  0
    5.2302    0.7047    0.1245 C   0  0  0  0  0  0  0  0  0  0  0  0
   -5.0878   -0.8955    0.2765 H   0  0  0  0  0  0  0  0  0  0  0  0
   -4.6592    1.7969   -1.1344 H   0  0  0  0  0  0  0  0  0  0  0  0
   -5.4660    0.3621   -1.8033 H   0  0  0  0  0  0  0  0  0  0  0  0
   -3.2840    1.3575    1.2846 H   0  0  0  0  0  0  0  0  0  0  0  0
   -3.2683   -0.3719    1.7039 H   0  0  0  0  0  0  0  0  0  0  0  0
   -3.4077   -0.8615   -1.9246 H   0  0  0  0  0  0  0  0  0  0  0  0
   -2.8363    0.7925   -2.2589 H   0  0  0  0  0  0  0  0  0  0  0  0
   -5.6343    1.8698    1.1449 H   0  0  0  0  0  0  0  0  0  0  0  0
   -7.9399    1.1905    1.0883 H   0  0  0  0  0  0  0  0  0  0  0  0
   -7.4523   -0.2915    0.2684 H   0  0  0  0  0  0  0  0  0  0  0  0
   -7.2344    1.2955   -0.5228 H   0  0  0  0  0  0  0  0  0  0  0  0
    0.4829   -3.7436    0.2182 H   0  0  0  0  0  0  0  0  0  0  0  0
    1.8535   -3.1548   -0.6571 H   0  0  0  0  0  0  0  0  0  0  0  0
    1.7568   -3.0135    1.1321 H   0  0  0  0  0  0  0  0  0  0  0  0
    1.3570    2.8923   -0.2586 H   0  0  0  0  0  0  0  0  0  0  0  0
    3.6250    2.8005   -0.1297 H   0  0  0  0  0  0  0  0  0  0  0  0
    6.7118   -0.4559   -0.3637 H   0  0  0  0  0  0  0  0  0  0  0  0
  1 14  1  0  0  0  0
  2 19  2  0  0  0  0
  3 23  1  0  0  0  0
  3 40  1  0  0  0  0
  4 23  2  0  0  0  0
  5 11  1  0  0  0  0
  5 12  1  0  0  0  0
  5 13  1  0  0  0  0
  6  9  1  0  0  0  0
  6 15  1  0  0  0  0
  6 31  1  0  0  0  0
  7 13  1  0  0  0  0
  7 18  2  0  0  0  0
  8 18  1  0  0  0  0
  8 22  1  0  0  0  0
  8 38  1  0  0  0  0
  9 10  1  0  0  0  0
  9 11  1  0  0  0  0
  9 24  1  0  0  0  0
 10 12  1  0  0  0  0
 10 25  1  0  0  0  0
 10 26  1  0  0  0  0
 11 27  1  0  0  0  0
 11 28  1  0  0  0  0
 12 29  1  0  0  0  0
 12 30  1  0  0  0  0
 13 14  2  0  0  0  0
 14 16  1  0  0  0  0
 15 32  1  0  0  0  0
 15 33  1  0  0  0  0
 15 34  1  0  0  0  0
 16 17  2  0  0  0  0
 16 20  1  0  0  0  0
 17 18  1  0  0  0  0
 17 19  1  0  0  0  0
 19 21  1  0  0  0  0
 20 35  1  0  0  0  0
 20 36  1  0  0  0  0
 20 37  1  0  0  0  0
 21 22  2  0  0  0  0
 21 23  1  0  0  0  0
 22 39  1  0  0  0  0
M  END
> <PUBCHEM_COMPOUND_CID>
9977114

> <PUBCHEM_CONFORMER_RMSD>
0.6

> <PUBCHEM_CONFORMER_DIVERSEORDER>
1
4
5
2
6
3

> <PUBCHEM_MMFF94_PARTIAL_CHARGES>
26
1 -0.11
11 0.37
12 0.37
13 0.41
14 0.11
15 0.27
16 -0.14
17 0.09
18 0.41
19 0.47
2 -0.57
20 0.14
21 0.03
22 -0.05
23 0.71
3 -0.65
31 0.36
38 0.4
39 0.15
4 -0.57
40 0.5
5 -0.84
6 -0.9
7 -0.62
8 -0.6
9 0.27

> <PUBCHEM_EFFECTIVE_ROTOR_COUNT>
4

> <PUBCHEM_PHARMACOPHORE_FEATURES>
13
1 1 hydrophobe
1 2 acceptor
1 3 acceptor
1 4 acceptor
1 5 cation
1 6 cation
1 6 donor
1 8 donor
3 3 4 23 anion
3 7 8 18 cation
5 5 9 10 11 12 rings
6 7 13 14 16 17 18 rings
6 8 17 18 19 21 22 rings

> <PUBCHEM_HEAVY_ATOM_COUNT>
23

> <PUBCHEM_ATOM_DEF_STEREO_COUNT>
0

> <PUBCHEM_ATOM_UDEF_STEREO_COUNT>
1

> <PUBCHEM_BOND_DEF_STEREO_COUNT>
0

> <PUBCHEM_BOND_UDEF_STEREO_COUNT>
0

> <PUBCHEM_ISOTOPIC_ATOM_COUNT>
0

> <PUBCHEM_COMPONENT_COUNT>
1

> <PUBCHEM_CACTVS_TAUTO_COUNT>
21

> <PUBCHEM_CONFORMER_ID>
00983D1A00000001

> <PUBCHEM_MMFF94_ENERGY>
90.4347

> <PUBCHEM_FEATURE_SELFOVERLAP>
66.062

> <PUBCHEM_SHAPE_FINGERPRINT>
10 15 17895192246781366336
10493431 412 18410293627230481211
10906281 52 18201172021633238724
10967382 1 18409444761478218998
11578080 2 17416108719425827394
11796584 16 15195566810153350020
12107183 9 17477774485973394529
12236239 1 17846778507626145525
12403259 415 18114178588771231917
12644460 14 18260825956067713707
12788726 201 17346044368022685561
12838862 33 18338498812240194320
13140716 1 18336827622920948120
13533116 47 17917148299565067034
13583140 156 16371268009501732503
13631057 29 18199459052081068863
14790565 3 18410862023060509212
15081414 286 18410576163090728380
15099037 51 18410009957614925908
15196674 1 18337952415449012142
15475509 35 16371278910303089986
1601671 61 18334572464975736692
19141452 34 18409729603419029134
21033648 144 18268415992308855508
21033648 29 18114726192775538125
21033650 10 16557374616021028888
21236236 1 18339359790159050847
21267235 1 18336266726853723506
21421861 104 17895741921238776682
22182313 1 17896311424615569663
22224240 67 18333733525035391979
23402539 116 17775282781157314685
23536379 177 16559034878336078316
23559900 14 18343020030482204768
293599 30 18410292532039941142
335352 9 18410576193545499894
34934 24 18409441514504074706
350125 39 18192997251475462883
3545911 37 18409449197651694178
404807 14 15188859583065733542
42630746 31 18413110532717690615
4325135 7 18341893026790269119
4340502 62 18408888433863247207
474 4 18412546522229029081
5104073 3 18191296273086296904
5385378 56 18409450245719108562
542803 24 17704070698491491805
59755656 215 18337113375669319933
59755656 520 18413668028769703359
8272917 22 18341334400840221287

> <PUBCHEM_SHAPE_MULTIPOLES>
441.74
13.72
2.38
0.88
6.74
1.87
-0.13
-7.14
1.93
-1.06
0.12
0.99
-0.12
-0.04

> <PUBCHEM_SHAPE_SELFOVERLAP>
942.312

> <PUBCHEM_SHAPE_VOLUME>
249.6

> <PUBCHEM_COORDINATE_TYPE>
2
5
10

$$$$
