135927974
  -OEChem-10062122033D

 47 51  0     1  0  0  0  0  0999 V2000
    0.4842    3.7887   -0.5179 S   0  0  0  0  0  0  0  0  0  0  0  0
    3.7738   -4.4226   -1.1506 O   0  0  0  0  0  0  0  0  0  0  0  0
    3.5669    3.7902    0.0141 O   0  0  0  0  0  0  0  0  0  0  0  0
   -6.8605   -3.0960    0.3378 O   0  0  0  0  0  0  0  0  0  0  0  0
    3.8285   -1.6377    0.2969 N   0  0  2  0  0  0  0  0  0  0  0  0
    3.5284    1.5806    0.6865 N   0  0  0  0  0  0  0  0  0  0  0  0
    1.5316    0.2476    0.7516 N   0  0  0  0  0  0  0  0  0  0  0  0
    4.7767   -3.6000   -0.5687 C   0  0  2  0  0  0  0  0  0  0  0  0
    4.2481   -2.9775    0.7193 C   0  0  0  0  0  0  0  0  0  0  0  0
    5.0951   -2.4245   -1.4910 C   0  0  0  0  0  0  0  0  0  0  0  0
    4.8599   -1.1881   -0.6366 C   0  0  0  0  0  0  0  0  0  0  0  0
    3.6598   -0.7277    1.4201 C   0  0  0  0  0  0  0  0  0  0  0  0
    2.8123    0.4089    0.9242 C   0  0  0  0  0  0  0  0  0  0  0  0
    0.8723    1.4013    0.2830 C   0  0  0  0  0  0  0  0  0  0  0  0
   -0.5302    1.4584    0.0235 C   0  0  0  0  0  0  0  0  0  0  0  0
    1.5253    2.5791    0.0334 C   0  0  0  0  0  0  0  0  0  0  0  0
    2.9398    2.7557    0.2230 C   0  0  0  0  0  0  0  0  0  0  0  0
   -0.8877    2.7358   -0.4310 C   0  0  0  0  0  0  0  0  0  0  0  0
   -1.5504    0.4840    0.1472 C   0  0  0  0  0  0  0  0  0  0  0  0
   -2.8726    0.7984   -0.1779 C   0  0  0  0  0  0  0  0  0  0  0  0
   -2.2204    3.0540   -0.7586 C   0  0  0  0  0  0  0  0  0  0  0  0
   -3.2017    2.0700   -0.6256 C   0  0  0  0  0  0  0  0  0  0  0  0
   -3.9028   -0.2093   -0.0458 C   0  0  0  0  0  0  0  0  0  0  0  0
   -5.0160   -0.1836   -0.8861 C   0  0  0  0  0  0  0  0  0  0  0  0
   -3.7834   -1.2056    0.9230 C   0  0  0  0  0  0  0  0  0  0  0  0
   -6.0097   -1.1539   -0.7573 C   0  0  0  0  0  0  0  0  0  0  0  0
   -4.7771   -2.1759    1.0519 C   0  0  0  0  0  0  0  0  0  0  0  0
   -5.8902   -2.1500    0.2117 C   0  0  0  0  0  0  0  0  0  0  0  0
    5.6587   -4.2191   -0.3743 H   0  0  0  0  0  0  0  0  0  0  0  0
    5.0595   -2.9143    1.4557 H   0  0  0  0  0  0  0  0  0  0  0  0
    3.4136   -3.5399    1.1502 H   0  0  0  0  0  0  0  0  0  0  0  0
    4.4415   -2.4197   -2.3715 H   0  0  0  0  0  0  0  0  0  0  0  0
    6.1321   -2.4614   -1.8406 H   0  0  0  0  0  0  0  0  0  0  0  0
    5.7884   -0.9108   -0.1210 H   0  0  0  0  0  0  0  0  0  0  0  0
    4.5353   -0.3439   -1.2527 H   0  0  0  0  0  0  0  0  0  0  0  0
    3.0955   -1.2165    2.2244 H   0  0  0  0  0  0  0  0  0  0  0  0
    4.6122   -0.3851    1.8401 H   0  0  0  0  0  0  0  0  0  0  0  0
    4.1323   -4.7722   -1.9843 H   0  0  0  0  0  0  0  0  0  0  0  0
    4.5307    1.5934    0.8527 H   0  0  0  0  0  0  0  0  0  0  0  0
   -1.2569   -0.5114    0.4694 H   0  0  0  0  0  0  0  0  0  0  0  0
   -2.4884    4.0489   -1.1029 H   0  0  0  0  0  0  0  0  0  0  0  0
   -4.2232    2.3611   -0.8571 H   0  0  0  0  0  0  0  0  0  0  0  0
   -5.1375    0.5534   -1.6753 H   0  0  0  0  0  0  0  0  0  0  0  0
   -2.9518   -1.2479    1.6211 H   0  0  0  0  0  0  0  0  0  0  0  0
   -6.8715   -1.1330   -1.4189 H   0  0  0  0  0  0  0  0  0  0  0  0
   -4.6763   -2.9427    1.8154 H   0  0  0  0  0  0  0  0  0  0  0  0
   -6.6156   -3.7048    1.0558 H   0  0  0  0  0  0  0  0  0  0  0  0
  1 16  1  0  0  0  0
  1 18  1  0  0  0  0
  2  8  1  0  0  0  0
  2 38  1  0  0  0  0
  3 17  2  0  0  0  0
  4 28  1  0  0  0  0
  4 47  1  0  0  0  0
  5  9  1  0  0  0  0
  5 11  1  0  0  0  0
  5 12  1  0  0  0  0
  6 13  1  0  0  0  0
  6 17  1  0  0  0  0
  6 39  1  0  0  0  0
  7 13  2  0  0  0  0
  7 14  1  0  0  0  0
  8  9  1  0  0  0  0
  8 10  1  0  0  0  0
  8 29  1  0  0  0  0
  9 30  1  0  0  0  0
  9 31  1  0  0  0  0
 10 11  1  0  0  0  0
 10 32  1  0  0  0  0
 10 33  1  0  0  0  0
 11 34  1  0  0  0  0
 11 35  1  0  0  0  0
 12 13  1  0  0  0  0
 12 36  1  0  0  0  0
 12 37  1  0  0  0  0
 14 15  1  0  0  0  0
 14 16  2  0  0  0  0
 15 18  2  0  0  0  0
 15 19  1  0  0  0  0
 16 17  1  0  0  0  0
 18 21  1  0  0  0  0
 19 20  2  0  0  0  0
 19 40  1  0  0  0  0
 20 22  1  0  0  0  0
 20 23  1  0  0  0  0
 21 22  2  0  0  0  0
 21 41  1  0  0  0  0
 22 42  1  0  0  0  0
 23 24  2  0  0  0  0
 23 25  1  0  0  0  0
 24 26  1  0  0  0  0
 24 43  1  0  0  0  0
 25 27  2  0  0  0  0
 25 44  1  0  0  0  0
 26 28  2  0  0  0  0
 26 45  1  0  0  0  0
 27 28  1  0  0  0  0
 27 46  1  0  0  0  0
M  END
> <PUBCHEM_COMPOUND_CID>
135927974

> <PUBCHEM_CONFORMER_RMSD>
0.8

> <PUBCHEM_CONFORMER_DIVERSEORDER>
5
3
13
11
15
19
16
6
12
17
18
14
20
8
9
4
10
1
2
7

> <PUBCHEM_MMFF94_PARTIAL_CHARGES>
34
1 -0.08
11 0.27
12 0.33
13 0.45
14 0.12
16 -0.05
17 0.71
18 0.04
19 -0.15
2 -0.68
21 -0.15
22 -0.15
24 -0.15
25 -0.15
26 -0.15
27 -0.15
28 0.08
3 -0.57
38 0.4
39 0.37
4 -0.53
40 0.15
41 0.15
42 0.15
43 0.15
44 0.15
45 0.15
46 0.15
47 0.45
5 -0.81
6 -0.49
7 -0.57
8 0.28
9 0.27

> <PUBCHEM_EFFECTIVE_ROTOR_COUNT>
4

> <PUBCHEM_PHARMACOPHORE_FEATURES>
11
1 2 acceptor
1 2 donor
1 3 acceptor
1 4 donor
1 5 cation
1 6 donor
5 1 14 15 16 18 rings
5 5 8 9 10 11 rings
6 15 18 19 20 21 22 rings
6 23 24 25 26 27 28 rings
6 6 7 13 14 16 17 rings

> <PUBCHEM_HEAVY_ATOM_COUNT>
28

> <PUBCHEM_ATOM_DEF_STEREO_COUNT>
1

> <PUBCHEM_ATOM_UDEF_STEREO_COUNT>
0

> <PUBCHEM_BOND_DEF_STEREO_COUNT>
0

> <PUBCHEM_BOND_UDEF_STEREO_COUNT>
0

> <PUBCHEM_ISOTOPIC_ATOM_COUNT>
0

> <PUBCHEM_COMPONENT_COUNT>
1

> <PUBCHEM_CACTVS_TAUTO_COUNT>
-1

> <PUBCHEM_CONFORMER_ID>
081A18A600000005

> <PUBCHEM_MMFF94_ENERGY>
79.4367

> <PUBCHEM_FEATURE_SELFOVERLAP>
55.964

> <PUBCHEM_SHAPE_FINGERPRINT>
10050765 1 18409446964533477269
10622 236 17700672220405697391
10928967 22 17972322815370221410
11186622 123 18044653101245811290
11409948 41 18054773234840482887
117089 54 18198912400853627558
11719270 70 18193268826953963952
11963148 33 18118674659253094738
12107183 9 18198637549164386761
12422481 6 17561080285405083679
12623949 98 18342464776029042639
13533116 47 18200031875699313475
13540713 4 18337654356997774152
13690498 29 18115032874730309413
13785724 45 18410582781867089069
13955234 65 18129376175908784568
13989917 61 18121222236622579643
14251740 57 18413107290085876010
14863182 85 18118686754186961692
14866123 147 18194682571579673497
15003188 105 17967801752696079578
15510800 12 18340193099307554410
17492 89 18410569578594406129
17859628 70 18341048618391231232
17909252 39 18410579496106442096
19246450 95 11454213351525173518
19301676 85 17618499883790731383
19301679 30 18270691956557717243
1979834 28 18196644305790966432
20028762 73 17762618799238095554
20286276 3 18409166580314883989
20775438 99 18192140719001570354
21033650 10 16443615810486142741
21279426 13 18187351144099074061
21307412 95 18052252891072111789
21344244 246 18409459098823040532
221490 88 18409164394524209432
22849339 104 17829606167230159316
23379529 103 18339080384960314282
23424784 1240 18189342445166458755
23559900 14 18337660932629302833
23569914 152 17834925635367145735
239999 70 18115016524069336616
255183 451 18412268336901745028
2838139 119 8358248233425955296
3089732 80 18412266099309010919
314194 84 18197489834933653837
3421961 26 18411416241276320000
345986 75 17703516583723980385
4144715 1 18188493588288512739
4394409 98 15953001322164181342
44062 13 18193554471784138981
4435113 14 17628362567205083998
46194498 28 18409445908239573382
49967989 163 16114054530059161862
50009960 94 18044347535839865466
5104073 3 18411973685477898529
5309563 4 18340206289125740174
56633871 153 18272365417271156711
6669772 16 18198912607750256700
6823239 73 18338508643440953722
7808743 9 9115702356436386738
7970288 3 18338795611254282046
9709674 26 18335414656011561681
9980921 52 17773852312710021903

> <PUBCHEM_SHAPE_MULTIPOLES>
547.53
14.66
5.65
1.1
10.2
0.21
-0.03
18.7
-1.38
-4.53
-1.14
-0.6
0.54
2.5

> <PUBCHEM_SHAPE_SELFOVERLAP>
1212.282

> <PUBCHEM_SHAPE_VOLUME>
296.8

> <PUBCHEM_COORDINATE_TYPE>
2
5
10

$$$$
