49830739
  -OEChem-10062121563D

 39 41  0     0  0  0  0  0  0999 V2000
   -2.9607   -1.7144    0.1910 S   0  0  0  0  0  0  0  0  0  0  0  0
   -4.0870   -1.9155    1.0833 O   0  0  0  0  0  0  0  0  0  0  0  0
   -2.9633   -2.3298   -1.1223 O   0  0  0  0  0  0  0  0  0  0  0  0
   -1.5059   -2.1097    1.0254 N   0  0  0  0  0  0  0  0  0  0  0  0
    2.6118    0.3719    1.3554 N   0  0  0  0  0  0  0  0  0  0  0  0
    3.3676   -0.5210   -1.1648 N   0  0  0  0  0  0  0  0  0  0  0  0
   -2.3788    4.1795   -0.5594 N   0  0  0  0  0  0  0  0  0  0  0  0
   -0.2585   -1.7038    0.4630 C   0  0  0  0  0  0  0  0  0  0  0  0
    1.8117   -0.4459    0.6491 C   0  0  0  0  0  0  0  0  0  0  0  0
    2.1944   -0.8981   -0.6270 C   0  0  0  0  0  0  0  0  0  0  0  0
   -2.7882    0.0331   -0.0323 C   0  0  0  0  0  0  0  0  0  0  0  0
    0.5890   -0.8566    1.1749 C   0  0  0  0  0  0  0  0  0  0  0  0
    0.1188   -2.1496   -0.7950 C   0  0  0  0  0  0  0  0  0  0  0  0
    1.3403   -1.7445   -1.3301 C   0  0  0  0  0  0  0  0  0  0  0  0
    3.7813    0.7373    0.8000 C   0  0  0  0  0  0  0  0  0  0  0  0
    4.1537    0.2973   -0.4422 C   0  0  0  0  0  0  0  0  0  0  0  0
   -2.1659    0.5322   -1.1766 C   0  0  0  0  0  0  0  0  0  0  0  0
   -3.2744    0.9109    0.9366 C   0  0  0  0  0  0  0  0  0  0  0  0
   -2.0299    1.9092   -1.3520 C   0  0  0  0  0  0  0  0  0  0  0  0
   -3.1383    2.2879    0.7611 C   0  0  0  0  0  0  0  0  0  0  0  0
   -2.5162    2.7872   -0.3832 C   0  0  0  0  0  0  0  0  0  0  0  0
    4.6495    1.6429    1.6034 C   0  0  0  0  0  0  0  0  0  0  0  0
    5.4490    0.6995   -1.0582 C   0  0  0  0  0  0  0  0  0  0  0  0
   -1.5522   -2.0673    2.0520 H   0  0  0  0  0  0  0  0  0  0  0  0
    0.2901   -0.5060    2.1617 H   0  0  0  0  0  0  0  0  0  0  0  0
   -0.4997   -2.8316   -1.3694 H   0  0  0  0  0  0  0  0  0  0  0  0
    1.6266   -2.1062   -2.3158 H   0  0  0  0  0  0  0  0  0  0  0  0
   -1.7860   -0.1304   -1.9484 H   0  0  0  0  0  0  0  0  0  0  0  0
   -3.7552    0.5439    1.8388 H   0  0  0  0  0  0  0  0  0  0  0  0
   -1.5440    2.2860   -2.2484 H   0  0  0  0  0  0  0  0  0  0  0  0
   -3.5196    2.9618    1.5241 H   0  0  0  0  0  0  0  0  0  0  0  0
    4.8183    2.5871    1.0763 H   0  0  0  0  0  0  0  0  0  0  0  0
    4.1795    1.8815    2.5637 H   0  0  0  0  0  0  0  0  0  0  0  0
    5.6124    1.1686    1.8172 H   0  0  0  0  0  0  0  0  0  0  0  0
    6.2912    0.3657   -0.4441 H   0  0  0  0  0  0  0  0  0  0  0  0
    5.5651    0.2478   -2.0495 H   0  0  0  0  0  0  0  0  0  0  0  0
    5.4985    1.7856   -1.1840 H   0  0  0  0  0  0  0  0  0  0  0  0
   -2.7320    4.8161    0.1426 H   0  0  0  0  0  0  0  0  0  0  0  0
   -1.9284    4.5427   -1.3888 H   0  0  0  0  0  0  0  0  0  0  0  0
  1  2  2  0  0  0  0
  1  3  2  0  0  0  0
  1  4  1  0  0  0  0
  1 11  1  0  0  0  0
  4  8  1  0  0  0  0
  4 24  1  0  0  0  0
  5  9  2  0  0  0  0
  5 15  1  0  0  0  0
  6 10  2  0  0  0  0
  6 16  1  0  0  0  0
  7 21  1  0  0  0  0
  7 38  1  0  0  0  0
  7 39  1  0  0  0  0
  8 12  2  0  0  0  0
  8 13  1  0  0  0  0
  9 10  1  0  0  0  0
  9 12  1  0  0  0  0
 10 14  1  0  0  0  0
 11 17  2  0  0  0  0
 11 18  1  0  0  0  0
 12 25  1  0  0  0  0
 13 14  2  0  0  0  0
 13 26  1  0  0  0  0
 14 27  1  0  0  0  0
 15 16  2  0  0  0  0
 15 22  1  0  0  0  0
 16 23  1  0  0  0  0
 17 19  1  0  0  0  0
 17 28  1  0  0  0  0
 18 20  2  0  0  0  0
 18 29  1  0  0  0  0
 19 21  2  0  0  0  0
 19 30  1  0  0  0  0
 20 21  1  0  0  0  0
 20 31  1  0  0  0  0
 22 32  1  0  0  0  0
 22 33  1  0  0  0  0
 22 34  1  0  0  0  0
 23 35  1  0  0  0  0
 23 36  1  0  0  0  0
 23 37  1  0  0  0  0
M  END
> <PUBCHEM_COMPOUND_CID>
49830739

> <PUBCHEM_CONFORMER_RMSD>
0.6

> <PUBCHEM_CONFORMER_DIVERSEORDER>
1
27
21
7
25
29
20
30
18
4
15
5
8
26
28
2
17
22
3
13
9
23
6
24
19
11
32
10
14
31
12
16

> <PUBCHEM_MMFF94_PARTIAL_CHARGES>
33
1 1.45
10 0.31
11 -0.01
12 -0.15
13 -0.15
14 -0.15
15 0.17
16 0.17
17 -0.15
18 -0.15
19 -0.15
2 -0.65
20 -0.15
21 0.1
22 0.14
23 0.14
24 0.42
25 0.15
26 0.15
27 0.15
28 0.15
29 0.15
3 -0.65
30 0.15
31 0.15
38 0.4
39 0.4
4 -0.76
5 -0.62
6 -0.62
7 -0.9
8 0.2
9 0.31

> <PUBCHEM_EFFECTIVE_ROTOR_COUNT>
3

> <PUBCHEM_PHARMACOPHORE_FEATURES>
10
1 2 acceptor
1 3 acceptor
1 4 donor
1 5 acceptor
1 6 acceptor
1 7 cation
1 7 donor
6 11 17 18 19 20 21 rings
6 5 6 9 10 15 16 rings
6 8 9 10 12 13 14 rings

> <PUBCHEM_HEAVY_ATOM_COUNT>
23

> <PUBCHEM_ATOM_DEF_STEREO_COUNT>
0

> <PUBCHEM_ATOM_UDEF_STEREO_COUNT>
0

> <PUBCHEM_BOND_DEF_STEREO_COUNT>
0

> <PUBCHEM_BOND_UDEF_STEREO_COUNT>
0

> <PUBCHEM_ISOTOPIC_ATOM_COUNT>
0

> <PUBCHEM_COMPONENT_COUNT>
1

> <PUBCHEM_CACTVS_TAUTO_COUNT>
4

> <PUBCHEM_CONFORMER_ID>
02F85B5300000001

> <PUBCHEM_MMFF94_ENERGY>
69.4511

> <PUBCHEM_FEATURE_SELFOVERLAP>
50.806

> <PUBCHEM_SHAPE_FINGERPRINT>
10006869 2 18190737541144343627
10165383 225 18129398024438560857
10498660 4 18336817624464170221
10646746 165 18411136931442953450
10670039 82 18334868246662837532
11595378 159 18040994055291433898
12173636 292 18265330608542235709
12403259 415 18060142072233422688
12596602 18 16805609238968266712
12670546 56 18188194486291590522
128993 33 17976543806339411877
13944108 23 16536237282329939484
13965767 371 17389657480069951693
14081887 123 18408036320973251909
14739800 52 17898563440164926576
15183329 4 17530686507755277678
15849732 13 17987801942942903303
15961568 22 17977660145792160432
17357779 13 18128238177279223559
18186145 218 17346599694699500714
18981168 100 18268984285422774787
21033648 29 18060132180981937984
22182937 141 18341618062192811897
22956985 138 16238714482286839690
23114952 82 17987248724324785902
23402539 116 18264767834530077167
23557571 272 18336276729094201087
3268164 11 18339917216267188167
3524813 1 18201720703578377666
469060 322 18042140872105700841
5252454 2 18193000322229548945
574716 61 14261063350602345112
5895379 119 18261970608619630308
621550 34 18272662263524343279
6287921 2 18200603621255620516
633830 44 16343712049260730634
7399639 24 18129940203730139502
7808743 9 18335147436131624092
9925002 15 17409079644447423095

> <PUBCHEM_SHAPE_MULTIPOLES>
445.52
9.15
3.41
1.49
8.78
2.13
0.03
3.73
0.51
-4.21
-0.45
0.55
0.06
1.25

> <PUBCHEM_SHAPE_SELFOVERLAP>
960.927

> <PUBCHEM_SHAPE_VOLUME>
246.9

> <PUBCHEM_COORDINATE_TYPE>
2
5
10

$$$$
