49830911
  -OEChem-10052115193D

 41 44  0     0  0  0  0  0  0999 V2000
    2.8885    1.9689   -0.0003 S   0  0  0  0  0  0  0  0  0  0  0  0
    5.4718   -2.2670   -0.0001 O   0  0  0  0  0  0  0  0  0  0  0  0
    0.3757   -1.9594    0.0002 O   0  0  0  0  0  0  0  0  0  0  0  0
   -1.3726   -0.4063   -0.0003 N   0  0  0  0  0  0  0  0  0  0  0  0
    0.8380    0.3435    0.0002 N   0  0  0  0  0  0  0  0  0  0  0  0
    3.0501   -0.6051    0.0010 N   0  0  0  0  0  0  0  0  0  0  0  0
   -3.8060   -0.6899   -0.0002 C   0  0  0  0  0  0  0  0  0  0  0  0
   -2.5212   -1.2327   -0.0006 C   0  0  0  0  0  0  0  0  0  0  0  0
   -4.0181    0.7451   -0.0002 C   0  0  0  0  0  0  0  0  0  0  0  0
   -4.9186   -1.5312    0.0002 C   0  0  0  0  0  0  0  0  0  0  0  0
    4.3502   -0.1209    0.0004 C   0  0  0  0  0  0  0  0  0  0  0  0
    4.4657    1.2727   -0.0001 C   0  0  0  0  0  0  0  0  0  0  0  0
   -2.3488   -2.6168   -0.0004 C   0  0  0  0  0  0  0  0  0  0  0  0
    2.2065    0.4003    0.0006 C   0  0  0  0  0  0  0  0  0  0  0  0
   -4.1197    1.4348    1.2078 C   0  0  0  0  0  0  0  0  0  0  0  0
   -4.1205    1.4351   -1.2080 C   0  0  0  0  0  0  0  0  0  0  0  0
   -4.7462   -2.9155    0.0002 C   0  0  0  0  0  0  0  0  0  0  0  0
   -3.4614   -3.4583   -0.0001 C   0  0  0  0  0  0  0  0  0  0  0  0
    5.5286   -0.8984    0.0005 C   0  0  0  0  0  0  0  0  0  0  0  0
   -0.0249   -0.7998    0.0000 C   0  0  0  0  0  0  0  0  0  0  0  0
    5.7152    1.9131   -0.0007 C   0  0  0  0  0  0  0  0  0  0  0  0
    6.7760   -0.2673   -0.0001 C   0  0  0  0  0  0  0  0  0  0  0  0
   -4.3237    2.8148    1.2083 C   0  0  0  0  0  0  0  0  0  0  0  0
   -4.3244    2.8150   -1.2078 C   0  0  0  0  0  0  0  0  0  0  0  0
    6.8658    1.1203   -0.0007 C   0  0  0  0  0  0  0  0  0  0  0  0
   -4.4260    3.5048    0.0004 C   0  0  0  0  0  0  0  0  0  0  0  0
   -5.9281   -1.1265    0.0004 H   0  0  0  0  0  0  0  0  0  0  0  0
   -1.3964   -3.1247   -0.0006 H   0  0  0  0  0  0  0  0  0  0  0  0
   -1.5387    0.5958   -0.0003 H   0  0  0  0  0  0  0  0  0  0  0  0
   -4.0415    0.9122    2.1583 H   0  0  0  0  0  0  0  0  0  0  0  0
   -4.0429    0.9128   -2.1587 H   0  0  0  0  0  0  0  0  0  0  0  0
   -5.6124   -3.5707    0.0005 H   0  0  0  0  0  0  0  0  0  0  0  0
   -3.3290   -4.5365   -0.0001 H   0  0  0  0  0  0  0  0  0  0  0  0
    5.7930    2.9960   -0.0012 H   0  0  0  0  0  0  0  0  0  0  0  0
    0.3812    1.2516   -0.0002 H   0  0  0  0  0  0  0  0  0  0  0  0
    7.6905   -0.8553   -0.0004 H   0  0  0  0  0  0  0  0  0  0  0  0
    7.8428    1.5964   -0.0013 H   0  0  0  0  0  0  0  0  0  0  0  0
   -4.4025    3.3519    2.1489 H   0  0  0  0  0  0  0  0  0  0  0  0
   -4.4039    3.3525   -2.1482 H   0  0  0  0  0  0  0  0  0  0  0  0
   -4.5847    4.5793    0.0006 H   0  0  0  0  0  0  0  0  0  0  0  0
    6.3785   -2.6191   -0.0002 H   0  0  0  0  0  0  0  0  0  0  0  0
  1 12  1  0  0  0  0
  1 14  1  0  0  0  0
  2 19  1  0  0  0  0
  2 41  1  0  0  0  0
  3 20  2  0  0  0  0
  4  8  1  0  0  0  0
  4 20  1  0  0  0  0
  4 29  1  0  0  0  0
  5 14  1  0  0  0  0
  5 20  1  0  0  0  0
  5 35  1  0  0  0  0
  6 11  1  0  0  0  0
  6 14  2  0  0  0  0
  7  8  1  0  0  0  0
  7  9  1  0  0  0  0
  7 10  2  0  0  0  0
  8 13  2  0  0  0  0
  9 15  2  0  0  0  0
  9 16  1  0  0  0  0
 10 17  1  0  0  0  0
 10 27  1  0  0  0  0
 11 12  1  0  0  0  0
 11 19  2  0  0  0  0
 12 21  2  0  0  0  0
 13 18  1  0  0  0  0
 13 28  1  0  0  0  0
 15 23  1  0  0  0  0
 15 30  1  0  0  0  0
 16 24  2  0  0  0  0
 16 31  1  0  0  0  0
 17 18  2  0  0  0  0
 17 32  1  0  0  0  0
 18 33  1  0  0  0  0
 19 22  1  0  0  0  0
 21 25  1  0  0  0  0
 21 34  1  0  0  0  0
 22 25  2  0  0  0  0
 22 36  1  0  0  0  0
 23 26  2  0  0  0  0
 23 38  1  0  0  0  0
 24 26  1  0  0  0  0
 24 39  1  0  0  0  0
 25 37  1  0  0  0  0
 26 40  1  0  0  0  0
M  END
> <PUBCHEM_COMPOUND_CID>
49830911

> <PUBCHEM_CONFORMER_RMSD>
0.8

> <PUBCHEM_CONFORMER_DIVERSEORDER>
1
16
30
2
8
20
11
26
5
12
3
15
4
29
21
6
22
25
27
24
19
14
23
13
28
7
9
10
17
18

> <PUBCHEM_MMFF94_PARTIAL_CHARGES>
39
1 -0.08
10 -0.15
11 0.23
12 0.04
13 -0.15
14 0.44
15 -0.15
16 -0.15
17 -0.15
18 -0.15
19 0.08
2 -0.53
20 0.69
21 -0.15
22 -0.15
23 -0.15
24 -0.15
25 -0.15
26 -0.15
27 0.15
28 0.15
29 0.37
3 -0.57
30 0.15
31 0.15
32 0.15
33 0.15
34 0.15
35 0.37
36 0.15
37 0.15
38 0.15
39 0.15
4 -0.55
40 0.15
41 0.45
5 -0.49
6 -0.57
8 0.12

> <PUBCHEM_EFFECTIVE_ROTOR_COUNT>
5

> <PUBCHEM_PHARMACOPHORE_FEATURES>
8
1 2 donor
1 3 acceptor
1 4 donor
1 5 donor
5 1 6 11 12 14 rings
6 11 12 19 21 22 25 rings
6 7 8 10 13 17 18 rings
6 9 15 16 23 24 26 rings

> <PUBCHEM_HEAVY_ATOM_COUNT>
26

> <PUBCHEM_ATOM_DEF_STEREO_COUNT>
0

> <PUBCHEM_ATOM_UDEF_STEREO_COUNT>
0

> <PUBCHEM_BOND_DEF_STEREO_COUNT>
0

> <PUBCHEM_BOND_UDEF_STEREO_COUNT>
0

> <PUBCHEM_ISOTOPIC_ATOM_COUNT>
0

> <PUBCHEM_COMPONENT_COUNT>
1

> <PUBCHEM_CACTVS_TAUTO_COUNT>
14

> <PUBCHEM_CONFORMER_ID>
02F85BFF00000001

> <PUBCHEM_MMFF94_ENERGY>
78.0162

> <PUBCHEM_FEATURE_SELFOVERLAP>
40.712

> <PUBCHEM_SHAPE_FINGERPRINT>
100830 39 18410292506107061752
10165383 225 18271250418339178857
10411042 1 17978229688958295851
10595046 47 18337391660023444974
11101153 10 18192996147727182693
11545043 162 18273210932610525442
12107183 9 18120086187396098450
13073987 5 18410011065806425330
13785724 45 17835520424046123746
14118638 360 18335699485721532306
14347332 77 18340484594648591095
14713325 29 18411141355402057099
15021287 119 17312825983059847044
15183329 4 18408319974020432712
15419008 42 18057605361316398318
17844677 252 18338241565131386596
20691028 202 18270120102452257481
21033648 29 17632282502240487354
21130935 74 18409722968618171538
21236236 1 18411136952580173333
21279426 13 18341335483688873198
21315763 129 18338797922426085644
21315764 268 18269833275602825961
22956985 138 16747909295795575011
23081809 10 17821447980789854246
23559900 14 18268420420831041881
23569943 247 16879046578708558058
283562 15 18408318922202552843
3004659 81 18334575768306864074
32027 91 17770798827011634934
350125 39 18411702119090199291
4073 2 18114748247917698498
4144715 1 18410020935578442090
4197921 191 18261677068536199268
4214541 1 18410856589836520387
445580 125 18339930320122451456
497634 4 18260824938513652159
5104073 3 18410848876660677048
5283173 99 18411699898339003752
531348 171 18335981995474261595
5372103 7 17170655707254272445
6057620 51 17829047954994462526
6327066 14 18190172392046763317
6328613 192 18408326584176178596
6677587 24 15873016430659233087
7226269 152 18131070377055634656
9995097 60 18411980243965980406

> <PUBCHEM_SHAPE_MULTIPOLES>
512.24
17.98
3.98
0.84
25.18
0.03
0
3.28
0
-7.14
0
-0.99
0.52
0

> <PUBCHEM_SHAPE_SELFOVERLAP>
1123.301

> <PUBCHEM_SHAPE_VOLUME>
277.3

> <PUBCHEM_COORDINATE_TYPE>
2
5
10

$$$$
