12666261
  -OEChem-10052115193D

 21 23  0     0  0  0  0  0  0999 V2000
   -0.6370    0.2179   -0.0071 N   0  0  0  0  0  0  0  0  0  0  0  0
    0.1928   -1.8552   -0.0355 N   0  0  0  0  0  0  0  0  0  0  0  0
   -2.1969   -1.5828    0.0330 N   0  0  0  0  0  0  0  0  0  0  0  0
   -2.9086    0.6917    0.0132 N   0  0  0  0  0  0  0  0  0  0  0  0
   -1.4283    2.4923   -0.0757 N   0  0  0  0  0  0  0  0  0  0  0  0
    0.7431    0.3580    0.0091 C   0  0  0  0  0  0  0  0  0  0  0  0
    1.2209   -0.9543   -0.0266 C   0  0  0  0  0  0  0  0  0  0  0  0
   -0.9134   -1.1430   -0.0016 C   0  0  0  0  0  0  0  0  0  0  0  0
   -1.6874    1.1508   -0.0196 C   0  0  0  0  0  0  0  0  0  0  0  0
    1.6300    1.4442    0.0586 C   0  0  0  0  0  0  0  0  0  0  0  0
    2.6050   -1.2055   -0.0383 C   0  0  0  0  0  0  0  0  0  0  0  0
    3.0053    1.1776    0.0489 C   0  0  0  0  0  0  0  0  0  0  0  0
    3.4880   -0.1257   -0.0027 C   0  0  0  0  0  0  0  0  0  0  0  0
   -3.1135   -0.6660    0.0441 C   0  0  0  0  0  0  0  0  0  0  0  0
    1.3029    2.4733    0.1136 H   0  0  0  0  0  0  0  0  0  0  0  0
    2.9845   -2.2223   -0.0687 H   0  0  0  0  0  0  0  0  0  0  0  0
    3.7074    2.0071    0.0853 H   0  0  0  0  0  0  0  0  0  0  0  0
    4.5594   -0.3058   -0.0087 H   0  0  0  0  0  0  0  0  0  0  0  0
   -4.1666   -0.9899    0.0771 H   0  0  0  0  0  0  0  0  0  0  0  0
   -2.1966    3.1554   -0.0756 H   0  0  0  0  0  0  0  0  0  0  0  0
   -0.5097    2.8902   -0.1998 H   0  0  0  0  0  0  0  0  0  0  0  0
  1  6  1  0  0  0  0
  1  8  1  0  0  0  0
  1  9  1  0  0  0  0
  2  7  1  0  0  0  0
  2  8  2  0  0  0  0
  3  8  1  0  0  0  0
  3 14  2  0  0  0  0
  4  9  2  0  0  0  0
  4 14  1  0  0  0  0
  5  9  1  0  0  0  0
  5 20  1  0  0  0  0
  5 21  1  0  0  0  0
  6  7  1  0  0  0  0
  6 10  2  0  0  0  0
  7 11  2  0  0  0  0
 10 12  1  0  0  0  0
 10 15  1  0  0  0  0
 11 13  1  0  0  0  0
 11 16  1  0  0  0  0
 12 13  2  0  0  0  0
 12 17  1  0  0  0  0
 13 18  1  0  0  0  0
 14 19  1  0  0  0  0
M  END
> <PUBCHEM_COMPOUND_CID>
12666261

> <PUBCHEM_CONFORMER_RMSD>
0.4

> <PUBCHEM_CONFORMER_DIVERSEORDER>
1

> <PUBCHEM_MMFF94_PARTIAL_CHARGES>
21
1 0.29
10 -0.15
11 -0.15
12 -0.15
13 -0.15
14 0.6
15 0.15
16 0.15
17 0.15
18 0.15
19 0.06
2 -0.57
20 0.4
21 0.4
3 -0.58
4 -0.66
5 -0.85
6 -0.15
7 0.23
8 0.31
9 0.51

> <PUBCHEM_EFFECTIVE_ROTOR_COUNT>
0

> <PUBCHEM_PHARMACOPHORE_FEATURES>
6
1 5 donor
4 1 2 3 8 cation
4 1 4 5 9 cation
5 1 2 6 7 8 rings
6 1 3 4 8 9 14 rings
6 6 7 10 11 12 13 rings

> <PUBCHEM_HEAVY_ATOM_COUNT>
14

> <PUBCHEM_ATOM_DEF_STEREO_COUNT>
0

> <PUBCHEM_ATOM_UDEF_STEREO_COUNT>
0

> <PUBCHEM_BOND_DEF_STEREO_COUNT>
0

> <PUBCHEM_BOND_UDEF_STEREO_COUNT>
0

> <PUBCHEM_ISOTOPIC_ATOM_COUNT>
0

> <PUBCHEM_COMPONENT_COUNT>
1

> <PUBCHEM_CACTVS_TAUTO_COUNT>
4

> <PUBCHEM_CONFORMER_ID>
00C1459500000001

> <PUBCHEM_MMFF94_ENERGY>
38.4659

> <PUBCHEM_FEATURE_SELFOVERLAP>
30.72

> <PUBCHEM_SHAPE_FINGERPRINT>
10608611 8 18411978061700944976
10967382 1 18338799030063352806
11132069 177 18341608243601797280
11206711 2 18410576167026518940
12032990 46 18337398256750599667
13380535 76 18411134710438758007
14144814 61 18410292501843307882
14325111 11 18410855473176704424
14790565 3 15090596834961652123
15442244 35 18265612070496887818
15775835 57 18412552010917716984
16945 1 18410573937922830022
17844478 74 18334306382834637483
193761 8 18050285868970015555
19973954 147 18410857646445986972
20510252 161 18343303677699901104
21267235 1 18410302431575996738
21501502 16 18411138008894182250
2334 1 18266460003982523951
23402539 116 18270669978345049943
23402655 69 18270105834955066989
23463225 33 18335417950593914154
23552423 10 18261393390093390694
23559900 14 18055075359982587110
2748010 2 18339079418386905471
5084963 1 18201720652065150146
528886 8 18411414033546922866
53812653 166 18343297089610257648
7364860 26 18269554944943154486
8809292 202 18261398861824009130

> <PUBCHEM_SHAPE_MULTIPOLES>
263.21
5.1
2.04
0.59
0.62
0.48
0
0.11
0.05
-0.43
-0.03
0.05
0
0.07

> <PUBCHEM_SHAPE_SELFOVERLAP>
595.154

> <PUBCHEM_SHAPE_VOLUME>
134.4

> <PUBCHEM_COORDINATE_TYPE>
2
5
10

$$$$
