25205919
  -OEChem-10062121533D

 40 42  0     0  0  0  0  0  0999 V2000
   -1.2848    3.9109    0.2118 O   0  0  0  0  0  0  0  0  0  0  0  0
   -3.2614    2.5784   -1.6951 O   0  0  0  0  0  0  0  0  0  0  0  0
   -0.5936    1.1384    1.6856 N   0  0  0  0  0  0  0  0  0  0  0  0
   -2.7744   -0.3267   -0.4158 N   0  0  0  0  0  0  0  0  0  0  0  0
   -0.9839   -4.1174    0.0466 N   0  0  0  0  0  0  0  0  0  0  0  0
   -1.3993    1.4447    0.6971 C   0  0  0  0  0  0  0  0  0  0  0  0
    0.7238    1.7164    1.8389 C   0  0  0  0  0  0  0  0  0  0  0  0
   -2.2791    0.8522   -0.1503 C   0  0  0  0  0  0  0  0  0  0  0  0
    1.7440    0.9265    1.0910 C   0  0  0  0  0  0  0  0  0  0  0  0
   -1.6281    2.7625    0.1087 C   0  0  0  0  0  0  0  0  0  0  0  0
   -2.5846    2.1179   -0.8132 C   0  0  0  0  0  0  0  0  0  0  0  0
    3.1938    0.6617   -0.8235 C   0  0  0  0  0  0  0  0  0  0  0  0
    2.2415    1.4016   -0.1225 C   0  0  0  0  0  0  0  0  0  0  0  0
    3.6483   -0.5535   -0.3113 C   0  0  0  0  0  0  0  0  0  0  0  0
    2.1985   -0.2887    1.6033 C   0  0  0  0  0  0  0  0  0  0  0  0
    3.1505   -1.0287    0.9020 C   0  0  0  0  0  0  0  0  0  0  0  0
   -2.1704   -1.6050   -0.2598 C   0  0  0  0  0  0  0  0  0  0  0  0
    3.7124    1.1897   -2.1209 C   0  0  0  0  0  0  0  0  0  0  0  0
    4.6684   -1.3626   -1.0429 C   0  0  0  0  0  0  0  0  0  0  0  0
   -2.9563   -2.7197    0.0112 C   0  0  0  0  0  0  0  0  0  0  0  0
   -0.7921   -1.7451   -0.3778 C   0  0  0  0  0  0  0  0  0  0  0  0
   -2.3202   -3.9422    0.1542 C   0  0  0  0  0  0  0  0  0  0  0  0
   -0.2528   -3.0113   -0.2174 C   0  0  0  0  0  0  0  0  0  0  0  0
    0.9841    1.7147    2.9052 H   0  0  0  0  0  0  0  0  0  0  0  0
    0.7458    2.7730    1.5453 H   0  0  0  0  0  0  0  0  0  0  0  0
   -0.6880    0.2360    2.1492 H   0  0  0  0  0  0  0  0  0  0  0  0
    1.8827    2.3479   -0.5205 H   0  0  0  0  0  0  0  0  0  0  0  0
    1.8173   -0.6703    2.5469 H   0  0  0  0  0  0  0  0  0  0  0  0
   -3.6531   -0.4050   -0.9255 H   0  0  0  0  0  0  0  0  0  0  0  0
    3.4927   -1.9739    1.3150 H   0  0  0  0  0  0  0  0  0  0  0  0
    4.7942    1.3492   -2.0678 H   0  0  0  0  0  0  0  0  0  0  0  0
    3.4857    0.4964   -2.9373 H   0  0  0  0  0  0  0  0  0  0  0  0
    3.2566    2.1520   -2.3788 H   0  0  0  0  0  0  0  0  0  0  0  0
    4.2951   -1.6519   -2.0307 H   0  0  0  0  0  0  0  0  0  0  0  0
    5.5997   -0.7982   -1.1560 H   0  0  0  0  0  0  0  0  0  0  0  0
    4.9135   -2.2865   -0.5075 H   0  0  0  0  0  0  0  0  0  0  0  0
   -4.0339   -2.6455    0.1104 H   0  0  0  0  0  0  0  0  0  0  0  0
   -0.1401   -0.9128   -0.6150 H   0  0  0  0  0  0  0  0  0  0  0  0
   -2.8879   -4.8422    0.3664 H   0  0  0  0  0  0  0  0  0  0  0  0
    0.8159   -3.1754   -0.3072 H   0  0  0  0  0  0  0  0  0  0  0  0
  1 10  2  0  0  0  0
  2 11  2  0  0  0  0
  3  6  1  0  0  0  0
  3  7  1  0  0  0  0
  3 26  1  0  0  0  0
  4  8  1  0  0  0  0
  4 17  1  0  0  0  0
  4 29  1  0  0  0  0
  5 22  2  0  0  0  0
  5 23  1  0  0  0  0
  6  8  2  0  0  0  0
  6 10  1  0  0  0  0
  7  9  1  0  0  0  0
  7 24  1  0  0  0  0
  7 25  1  0  0  0  0
  8 11  1  0  0  0  0
  9 13  2  0  0  0  0
  9 15  1  0  0  0  0
 10 11  1  0  0  0  0
 12 13  1  0  0  0  0
 12 14  2  0  0  0  0
 12 18  1  0  0  0  0
 13 27  1  0  0  0  0
 14 16  1  0  0  0  0
 14 19  1  0  0  0  0
 15 16  2  0  0  0  0
 15 28  1  0  0  0  0
 16 30  1  0  0  0  0
 17 20  2  0  0  0  0
 17 21  1  0  0  0  0
 18 31  1  0  0  0  0
 18 32  1  0  0  0  0
 18 33  1  0  0  0  0
 19 34  1  0  0  0  0
 19 35  1  0  0  0  0
 19 36  1  0  0  0  0
 20 22  1  0  0  0  0
 20 37  1  0  0  0  0
 21 23  2  0  0  0  0
 21 38  1  0  0  0  0
 22 39  1  0  0  0  0
 23 40  1  0  0  0  0
M  END
> <PUBCHEM_COMPOUND_CID>
25205919

> <PUBCHEM_CONFORMER_RMSD>
0.8

> <PUBCHEM_CONFORMER_DIVERSEORDER>
3
61
49
189
100
154
162
241
228
186
113
316
174
187
200
263
265
114
251
147
96
181
144
305
95
40
138
258
125
76
176
288
247
23
253
221
177
303
236
128
293
231
277
260
74
266
139
82
57
244
272
310
225
214
72
75
117
86
284
185
238
69
280
110
235
197
283
166
175
301
156
50
160
270
44
282
18
98
118
35
192
276
53
111
275
286
196
232
24
256
204
7
22
290
33
315
119
212
135
308
262
34
211
215
151
16
87
38
93
278
130
137
230
210
39
168
295
222
157
51
299
302
209
261
201
29
84
146
311
105
10
306
107
161
81
167
271
250
83
218
267
171
36
30
88
252
2
182
46
54
307
102
19
193
48
281
11
313
170
226
143
233
155
184
71
5
132
298
254
150
237
112
246
85
158
79
109
314
169
32
264
103
133
14
8
126
205
31
191
45
180
64
304
223
4
148
273
163
99
183
179
97
287
1
20
268
257
309
216
108
37
312
136
292
188
28
207
243
104
6
294
195
159
291
58
178
198
78
41
52
219
172
145
296
208
26
47
101
115
249
227
42
199
234
165
122
248
27
164
89
68
70
15
63
43
245
17
153
242
206
259
94
21
62
203
116
140
121
80
285
73
274
141
131
279
91
134
224
194
127
60
142
269
190
220
66
90
106
213
120
59
9
149
56
239
202
123
152
55
25
92
12
229
65
67
217
240
129
289
13
77
297
124
255
173
300

> <PUBCHEM_MMFF94_PARTIAL_CHARGES>
32
1 -0.57
10 0.64
11 0.64
12 -0.14
13 -0.15
14 -0.14
15 -0.15
16 -0.15
17 0.1
18 0.14
19 0.14
2 -0.57
20 -0.15
21 -0.15
22 0.16
23 0.16
26 0.4
27 0.15
28 0.15
29 0.4
3 -0.87
30 0.15
37 0.15
38 0.15
39 0.15
4 -0.6
40 0.15
5 -0.62
6 0.03
7 0.51
8 0.03
9 -0.14

> <PUBCHEM_EFFECTIVE_ROTOR_COUNT>
5

> <PUBCHEM_PHARMACOPHORE_FEATURES>
10
1 1 acceptor
1 2 acceptor
1 3 cation
1 3 donor
1 4 cation
1 4 donor
1 5 acceptor
4 6 8 10 11 rings
6 5 17 20 21 22 23 rings
6 9 12 13 14 15 16 rings

> <PUBCHEM_HEAVY_ATOM_COUNT>
23

> <PUBCHEM_ATOM_DEF_STEREO_COUNT>
0

> <PUBCHEM_ATOM_UDEF_STEREO_COUNT>
0

> <PUBCHEM_BOND_DEF_STEREO_COUNT>
0

> <PUBCHEM_BOND_UDEF_STEREO_COUNT>
0

> <PUBCHEM_ISOTOPIC_ATOM_COUNT>
0

> <PUBCHEM_COMPONENT_COUNT>
1

> <PUBCHEM_CACTVS_TAUTO_COUNT>
11

> <PUBCHEM_CONFORMER_ID>
01809C9F00000003

> <PUBCHEM_MMFF94_ENERGY>
73.4521

> <PUBCHEM_FEATURE_SELFOVERLAP>
50.747

> <PUBCHEM_SHAPE_FINGERPRINT>
11370993 70 18194111932932931956
11578080 2 16741376959189948733
12054548 360 18051980517278754734
12363563 72 16917061119164680916
12539773 59 17607000305902006397
12553582 1 17977097186910778763
12712778 12 18268973333731508930
12788726 201 18188208818027641075
13009979 54 18042388270833347578
14251740 79 18199479766154033574
14251751 93 18261686869735847738
14251757 5 18340219548148582646
14790565 3 18339653256827013273
15210252 30 17465944169542799268
15463212 79 18259987046481880738
15664445 248 17613997817091762053
16752209 62 18338784667819614383
17492 54 16601254243800534292
17921350 177 16375206258294284102
18785283 64 17257111267901417897
19591789 44 18411972560464738067
20645476 183 18189050910742811411
21330990 113 18340220613453076273
22907989 373 18408604790149514357
23557571 272 18268975631063998648
23559900 14 18130782306026788114
3117164 225 17688610668186057219
340366 18 18115028485553184436
35225 105 18342454858975969398
5282940 2 17332812643077707978
70634741 139 18271261469427110030
81228 2 18197765807777566987
90525 40 18262802839398818240

> <PUBCHEM_SHAPE_MULTIPOLES>
446.65
6.77
4.87
1.53
5.52
1.66
-0.06
1.9
2.84
-5.53
0.32
1.11
-0.84
0.53

> <PUBCHEM_SHAPE_SELFOVERLAP>
972.063

> <PUBCHEM_SHAPE_VOLUME>
240.8

> <PUBCHEM_COORDINATE_TYPE>
2
5
10

$$$$
