11164332
  -OEChem-10062122043D

 23 25  0     0  0  0  0  0  0999 V2000
   -2.9029   -3.3380   -0.0018 Cl  0  0  0  0  0  0  0  0  0  0  0  0
   -3.7510    1.7646    0.0001 O   0  5  0  0  0  0  0  0  0  0  0  0
   -1.8283    2.8241    0.0003 O   0  0  0  0  0  0  0  0  0  0  0  0
    0.5558    1.3696    0.0001 N   0  0  0  0  0  0  0  0  0  0  0  0
   -2.4977    1.7646   -0.0001 N   0  3  0  0  0  0  0  0  0  0  0  0
    4.1659    0.6125   -0.0017 N   0  0  0  0  0  0  0  0  0  0  0  0
    0.2336   -0.8377    0.0007 C   0  0  0  0  0  0  0  0  0  0  0  0
   -0.4165    0.3970    0.0002 C   0  0  0  0  0  0  0  0  0  0  0  0
    1.6410   -0.5792    0.0010 C   0  0  0  0  0  0  0  0  0  0  0  0
    1.8081    0.8052    0.0001 C   0  0  0  0  0  0  0  0  0  0  0  0
   -1.8109    0.5181   -0.0001 C   0  0  0  0  0  0  0  0  0  0  0  0
   -0.5484   -2.0119    0.0004 C   0  0  0  0  0  0  0  0  0  0  0  0
    2.7866   -1.3904    0.0015 C   0  0  0  0  0  0  0  0  0  0  0  0
   -2.5636   -0.6593    0.0001 C   0  0  0  0  0  0  0  0  0  0  0  0
   -1.9438   -1.9066    0.0002 C   0  0  0  0  0  0  0  0  0  0  0  0
    3.0641    1.3979   -0.0010 C   0  0  0  0  0  0  0  0  0  0  0  0
    4.0081   -0.7304    0.0001 C   0  0  0  0  0  0  0  0  0  0  0  0
    0.3758    2.3640   -0.0004 H   0  0  0  0  0  0  0  0  0  0  0  0
   -0.0651   -2.9856    0.0003 H   0  0  0  0  0  0  0  0  0  0  0  0
    2.7302   -2.4729    0.0022 H   0  0  0  0  0  0  0  0  0  0  0  0
   -3.6520   -0.6291   -0.0003 H   0  0  0  0  0  0  0  0  0  0  0  0
    3.2188    2.4689   -0.0021 H   0  0  0  0  0  0  0  0  0  0  0  0
    4.9346   -1.2968   -0.0001 H   0  0  0  0  0  0  0  0  0  0  0  0
  1 15  1  0  0  0  0
  2  5  1  0  0  0  0
  3  5  2  0  0  0  0
  4  8  1  0  0  0  0
  4 10  1  0  0  0  0
  4 18  1  0  0  0  0
  5 11  1  0  0  0  0
  6 16  2  0  0  0  0
  6 17  1  0  0  0  0
  7  8  2  0  0  0  0
  7  9  1  0  0  0  0
  7 12  1  0  0  0  0
  8 11  1  0  0  0  0
  9 10  2  0  0  0  0
  9 13  1  0  0  0  0
 10 16  1  0  0  0  0
 11 14  2  0  0  0  0
 12 15  2  0  0  0  0
 12 19  1  0  0  0  0
 13 17  2  0  0  0  0
 13 20  1  0  0  0  0
 14 15  1  0  0  0  0
 14 21  1  0  0  0  0
 16 22  1  0  0  0  0
 17 23  1  0  0  0  0
M  CHG  2   2  -1   5   1
M  END
> <PUBCHEM_COMPOUND_CID>
11164332

> <PUBCHEM_CONFORMER_RMSD>
0.6

> <PUBCHEM_CONFORMER_DIVERSEORDER>
1

> <PUBCHEM_MMFF94_PARTIAL_CHARGES>
21
1 -0.18
10 -0.15
11 0.13
12 -0.15
13 -0.15
14 -0.15
15 0.18
16 0.16
17 0.16
18 0.27
19 0.15
2 -0.52
20 0.15
21 0.15
22 0.15
23 0.15
3 -0.52
4 0.03
5 0.91
6 -0.62
8 -0.15

> <PUBCHEM_EFFECTIVE_ROTOR_COUNT>
1

> <PUBCHEM_PHARMACOPHORE_FEATURES>
9
1 2 acceptor
1 2 anion
1 3 acceptor
1 4 cation
1 4 donor
1 6 acceptor
5 4 7 8 9 10 rings
6 6 9 10 13 16 17 rings
6 7 8 11 12 14 15 rings

> <PUBCHEM_HEAVY_ATOM_COUNT>
17

> <PUBCHEM_ATOM_DEF_STEREO_COUNT>
0

> <PUBCHEM_ATOM_UDEF_STEREO_COUNT>
0

> <PUBCHEM_BOND_DEF_STEREO_COUNT>
0

> <PUBCHEM_BOND_UDEF_STEREO_COUNT>
0

> <PUBCHEM_ISOTOPIC_ATOM_COUNT>
0

> <PUBCHEM_COMPONENT_COUNT>
1

> <PUBCHEM_CACTVS_TAUTO_COUNT>
2

> <PUBCHEM_CONFORMER_ID>
00AA5AAC00000001

> <PUBCHEM_MMFF94_ENERGY>
40.8545

> <PUBCHEM_FEATURE_SELFOVERLAP>
45.937

> <PUBCHEM_SHAPE_FINGERPRINT>
10319926 262 18198036211114384378
10608611 8 18341328972381334648
10616163 171 18411703214022471398
10967382 1 18194401095858696228
11578080 2 17058633282826673243
12173636 292 18338513032602423261
12500047 106 18411412878406539368
12553582 1 17907577278368098687
12730499 353 17756984511665446989
13140716 1 18410848850648396722
13380535 76 18269553853820546663
138480 1 16753249009237229839
14178342 30 18336529587093864706
14965852 173 18410854369428164106
15042514 8 18409452492356184851
15196674 1 18410855447269640166
15442244 35 18336824196006830042
16945 1 18194401319139025314
18186145 218 18199754630949150636
19591789 44 17833553388182724935
20510252 161 18341896354313607922
20871998 184 18201442535821813687
21029758 11 18050280672582203663
21267235 1 18337681909486862314
21501502 16 18408322215850988366
21524375 3 18116998775951143041
2306618 200 18201447999035804867
2334 1 18410855503098953250
23402539 116 18343293799950321031
23463225 33 18408603678048331166
23557571 272 18272099334907939486
23558518 356 18260831561078844130
23559900 14 18271524188060079318
2748010 2 18412547621534967558
3091708 16 8985513041888670211
335352 9 18194401091880480822
352729 6 18340488872330256407
5104073 3 18412260658154438906
54173680 148 18410575114902131203
69090 78 18339077095089309485
6992083 37 18186526483664459164
7097593 13 17971455331103977586
7364860 26 17474670551314841847
74978 22 18410291385199283528
7832392 63 18409728435377769996
81228 2 18189614019963340283
8809292 202 18410295796046424018
9709674 26 18343023272375976798

> <PUBCHEM_SHAPE_MULTIPOLES>
325.04
6.51
3
0.59
3.51
0.04
0
0.54
0
-3.43
0
0.01
0.06
0

> <PUBCHEM_SHAPE_SELFOVERLAP>
725.361

> <PUBCHEM_SHAPE_VOLUME>
175.4

> <PUBCHEM_COORDINATE_TYPE>
2
5
10

$$$$
