9814156
  -OEChem-10052120443D

 33 35  0     0  0  0  0  0  0999 V2000
   -6.3139    1.0879   -1.4323 Cl  0  0  0  0  0  0  0  0  0  0  0  0
   -0.3960   -2.0273   -0.0906 O   0  0  0  0  0  0  0  0  0  0  0  0
    3.6216   -1.2115   -1.2213 N   0  0  0  0  0  0  0  0  0  0  0  0
    2.3416   -1.4148   -0.8175 N   0  0  0  0  0  0  0  0  0  0  0  0
    0.9184   -0.2539    0.7261 N   0  0  0  0  0  0  0  0  0  0  0  0
    5.0859    1.8591    0.1446 C   0  0  0  0  0  0  0  0  0  0  0  0
    3.7464    1.5756    0.9216 C   0  0  0  0  0  0  0  0  0  0  0  0
    5.4640    0.5538   -0.6441 C   0  0  0  0  0  0  0  0  0  0  0  0
    3.2345    0.3933    0.2133 C   0  0  0  0  0  0  0  0  0  0  0  0
    4.1714   -0.1390   -0.6184 C   0  0  0  0  0  0  0  0  0  0  0  0
    2.1173   -0.4222    0.0636 C   0  0  0  0  0  0  0  0  0  0  0  0
   -0.2411   -1.0392    0.6197 C   0  0  0  0  0  0  0  0  0  0  0  0
   -1.3421   -0.5111    1.5261 C   0  0  0  0  0  0  0  0  0  0  0  0
   -2.5893   -0.1100    0.7828 C   0  0  0  0  0  0  0  0  0  0  0  0
   -2.7206    1.1921    0.3221 C   0  0  0  0  0  0  0  0  0  0  0  0
   -3.5892   -1.0486    0.5707 C   0  0  0  0  0  0  0  0  0  0  0  0
   -3.8761    1.5638   -0.3652 C   0  0  0  0  0  0  0  0  0  0  0  0
   -4.7448   -0.6770   -0.1166 C   0  0  0  0  0  0  0  0  0  0  0  0
   -4.8882    0.6293   -0.5847 C   0  0  0  0  0  0  0  0  0  0  0  0
    4.9126    2.6706   -0.5747 H   0  0  0  0  0  0  0  0  0  0  0  0
    5.8889    2.1823    0.8147 H   0  0  0  0  0  0  0  0  0  0  0  0
    3.0715    2.4339    0.8672 H   0  0  0  0  0  0  0  0  0  0  0  0
    3.9578    1.3422    1.9700 H   0  0  0  0  0  0  0  0  0  0  0  0
    6.2293   -0.0123   -0.1048 H   0  0  0  0  0  0  0  0  0  0  0  0
    5.8145    0.7872   -1.6526 H   0  0  0  0  0  0  0  0  0  0  0  0
    4.0243   -1.8467   -1.8998 H   0  0  0  0  0  0  0  0  0  0  0  0
    0.9002    0.5424    1.3589 H   0  0  0  0  0  0  0  0  0  0  0  0
   -1.5741   -1.3043    2.2489 H   0  0  0  0  0  0  0  0  0  0  0  0
   -0.9947    0.3334    2.1335 H   0  0  0  0  0  0  0  0  0  0  0  0
   -1.9370    1.9263    0.4865 H   0  0  0  0  0  0  0  0  0  0  0  0
   -3.4866   -2.0688    0.9297 H   0  0  0  0  0  0  0  0  0  0  0  0
   -3.9740    2.5850   -0.7245 H   0  0  0  0  0  0  0  0  0  0  0  0
   -5.5250   -1.4159   -0.2805 H   0  0  0  0  0  0  0  0  0  0  0  0
  1 19  1  0  0  0  0
  2 12  2  0  0  0  0
  3  4  1  0  0  0  0
  3 10  1  0  0  0  0
  3 26  1  0  0  0  0
  4 11  2  0  0  0  0
  5 11  1  0  0  0  0
  5 12  1  0  0  0  0
  5 27  1  0  0  0  0
  6  7  1  0  0  0  0
  6  8  1  0  0  0  0
  6 20  1  0  0  0  0
  6 21  1  0  0  0  0
  7  9  1  0  0  0  0
  7 22  1  0  0  0  0
  7 23  1  0  0  0  0
  8 10  1  0  0  0  0
  8 24  1  0  0  0  0
  8 25  1  0  0  0  0
  9 10  2  0  0  0  0
  9 11  1  0  0  0  0
 12 13  1  0  0  0  0
 13 14  1  0  0  0  0
 13 28  1  0  0  0  0
 13 29  1  0  0  0  0
 14 15  2  0  0  0  0
 14 16  1  0  0  0  0
 15 17  1  0  0  0  0
 15 30  1  0  0  0  0
 16 18  2  0  0  0  0
 16 31  1  0  0  0  0
 17 19  2  0  0  0  0
 17 32  1  0  0  0  0
 18 19  1  0  0  0  0
 18 33  1  0  0  0  0
M  END
> <PUBCHEM_COMPOUND_CID>
9814156

> <PUBCHEM_CONFORMER_RMSD>
0.6

> <PUBCHEM_CONFORMER_DIVERSEORDER>
1
33
2
34
12
20
23
11
29
9
32
16
10
13
25
27
30
24
19
4
28
17
3
18
22
21
31
26
14
15
8
7
6
5

> <PUBCHEM_MMFF94_PARTIAL_CHARGES>
24
1 -0.18
10 -0.33
11 0.35
12 0.57
13 0.2
14 -0.14
15 -0.15
16 -0.15
17 -0.15
18 -0.15
19 0.18
2 -0.57
26 0.27
27 0.37
3 0.3
30 0.15
31 0.15
32 0.15
33 0.15
4 -0.71
5 -0.49
7 0.18
8 0.18
9 -0.18

> <PUBCHEM_EFFECTIVE_ROTOR_COUNT>
4.6

> <PUBCHEM_PHARMACOPHORE_FEATURES>
6
1 2 acceptor
1 3 donor
1 5 donor
5 3 4 9 10 11 rings
5 6 7 8 9 10 rings
6 14 15 16 17 18 19 rings

> <PUBCHEM_HEAVY_ATOM_COUNT>
19

> <PUBCHEM_ATOM_DEF_STEREO_COUNT>
0

> <PUBCHEM_ATOM_UDEF_STEREO_COUNT>
0

> <PUBCHEM_BOND_DEF_STEREO_COUNT>
0

> <PUBCHEM_BOND_UDEF_STEREO_COUNT>
0

> <PUBCHEM_ISOTOPIC_ATOM_COUNT>
0

> <PUBCHEM_COMPONENT_COUNT>
1

> <PUBCHEM_CACTVS_TAUTO_COUNT>
8

> <PUBCHEM_CONFORMER_ID>
0095C08C00000001

> <PUBCHEM_MMFF94_ENERGY>
55.1193

> <PUBCHEM_FEATURE_SELFOVERLAP>
30.683

> <PUBCHEM_SHAPE_FINGERPRINT>
10014705 185 18334860557900912626
10498660 4 18333731295235442545
10693767 8 16987735493848054478
11089746 13 18261107487532756266
11128504 68 15769776883603171552
11796584 16 12030136532873772388
12236239 1 15936410065531351560
12403259 415 18337122218980705979
12507557 5 17022627502674493973
12596602 18 15140690201706497104
12670546 177 17846497041081068599
12730499 353 18341620316834422786
12969540 114 18336252501278195039
13402501 40 18335698364471811204
13533116 47 17385995118607031498
13551218 46 9583519828503792985
13675066 3 8646769976075264859
13685833 64 10735875092969228789
14123256 34 13470400119826967493
14251757 5 16772937268113384055
14251764 18 13406801034059716187
14251764 38 18334300880834754301
14420673 8 9871483031640334453
14528608 73 18342171168065054573
14576447 43 15913329078818052934
15003188 100 18341046410430037364
15238133 3 16515407374112158044
15348495 7 7853562518316259869
15475509 84 13334724713870005006
15527383 91 11458424639508750734
15537594 2 14189582927275686303
15885798 251 9655575218838168435
15961568 22 18115028623145937452
1813 80 13398628359629937659
18222031 100 14261345856302446211
193927 3 12535341342094070269
19489759 90 17675924330628817003
200 152 16917074347252191027
20645477 56 18334018302419940635
20645477 70 17774455910185952094
21033648 29 18336824294406118864
212916 134 17313099773896602627
221357 26 18060135418891854929
22289505 5 18413388731246511340
22765269 38 18340761645935561480
22950370 63 12391516403265055299
23016692 55 14405181777257588689
23227448 37 18197496431359634564
23402539 116 18334572477312116334
23402655 69 18131636672819707882
23503953 91 14779551214011905768
23557571 272 18262528103362977627
23559900 14 18413394224530593794
2767999 5 17167856457390444653
2838139 119 18115294606074715181
2916195 48 18187926222032700457
29717793 49 16702031850655232244
312425 54 8070022298925062389
341906 21 17676490561784329848
3472631 163 17822292409229152157
34797466 226 18272654554226274069
351380 180 18259984885564964216
351380 3 14405183967374398749
3545911 37 18271533086551600874
4028521 119 18410014333838479889
441001 317 18259704501894912897
5104073 3 17822576006388978793
5281201 14 18130517348750537996
5924683 9 12108087612205194377
633830 44 17702688556599045883
67856867 119 18042674027560344403
9981440 41 17530686502837695739

> <PUBCHEM_SHAPE_MULTIPOLES>
372.07
14.46
1.74
1.16
2.65
0.13
0.01
6.75
4.7
-0.09
0.07
0.18
-0.03
1.56

> <PUBCHEM_SHAPE_SELFOVERLAP>
797.416

> <PUBCHEM_SHAPE_VOLUME>
206.8

> <PUBCHEM_COORDINATE_TYPE>
2
5
10

$$$$
