59627005
  -OEChem-10052120443D

 48 51  0     1  0  0  0  0  0999 V2000
   -2.8977   -4.0579   -2.3676 F   0  0  0  0  0  0  0  0  0  0  0  0
    4.4918   -1.6178    0.6526 O   0  0  0  0  0  0  0  0  0  0  0  0
    1.2357    1.8331   -0.3360 N   0  0  0  0  0  0  0  0  0  0  0  0
   -3.2857    1.0914    1.0559 N   0  0  0  0  0  0  0  0  0  0  0  0
   -0.9984    1.2885    0.4394 N   0  0  0  0  0  0  0  0  0  0  0  0
    0.8605    3.8308   -1.2487 N   0  0  0  0  0  0  0  0  0  0  0  0
    1.3663   -0.3452    0.7220 N   0  0  0  0  0  0  0  0  0  0  0  0
    2.2364   -1.3266    1.0154 N   0  0  0  0  0  0  0  0  0  0  0  0
   -3.7594   -1.0519   -0.5292 N   0  0  0  0  0  0  0  0  0  0  0  0
   -3.0737   -0.1872    1.6466 C   0  0  2  0  0  0  0  0  0  0  0  0
   -0.0959    2.0826   -0.1604 C   0  0  0  0  0  0  0  0  0  0  0  0
   -0.3098    3.3284   -0.7340 C   0  0  0  0  0  0  0  0  0  0  0  0
   -2.2389    1.8348    0.4465 C   0  0  0  0  0  0  0  0  0  0  0  0
    1.9279    0.7116    0.0674 C   0  0  0  0  0  0  0  0  0  0  0  0
   -3.0053   -1.2537    0.5747 C   0  0  0  0  0  0  0  0  0  0  0  0
   -4.1613   -0.4546    2.6850 C   0  0  0  0  0  0  0  0  0  0  0  0
   -1.6103    3.8481   -0.7002 C   0  0  0  0  0  0  0  0  0  0  0  0
   -2.5932    3.0689   -0.0897 C   0  0  0  0  0  0  0  0  0  0  0  0
    1.7663    2.9104   -0.9935 C   0  0  0  0  0  0  0  0  0  0  0  0
    3.2578    0.3999   -0.0770 C   0  0  0  0  0  0  0  0  0  0  0  0
    3.3901   -0.8658    0.5247 C   0  0  0  0  0  0  0  0  0  0  0  0
    5.7214   -1.1010    0.1188 C   0  0  0  0  0  0  0  0  0  0  0  0
   -2.1944   -2.3603    0.7684 C   0  0  0  0  0  0  0  0  0  0  0  0
    5.8516   -1.5222   -1.3370 C   0  0  0  0  0  0  0  0  0  0  0  0
    6.8837   -1.6053    0.9607 C   0  0  0  0  0  0  0  0  0  0  0  0
   -2.1545   -3.3217   -0.2356 C   0  0  0  0  0  0  0  0  0  0  0  0
   -3.6949   -2.0077   -1.4833 C   0  0  0  0  0  0  0  0  0  0  0  0
   -2.9162   -3.1495   -1.3860 C   0  0  0  0  0  0  0  0  0  0  0  0
   -2.1228   -0.1787    2.1970 H   0  0  0  0  0  0  0  0  0  0  0  0
   -4.2287    1.3379    0.7707 H   0  0  0  0  0  0  0  0  0  0  0  0
   -5.1555   -0.4841    2.2237 H   0  0  0  0  0  0  0  0  0  0  0  0
   -4.0001   -1.4155    3.1857 H   0  0  0  0  0  0  0  0  0  0  0  0
   -4.1737    0.3299    3.4497 H   0  0  0  0  0  0  0  0  0  0  0  0
   -1.8485    4.8152   -1.1289 H   0  0  0  0  0  0  0  0  0  0  0  0
   -3.6138    3.4376   -0.0422 H   0  0  0  0  0  0  0  0  0  0  0  0
    2.8108    2.9849   -1.2662 H   0  0  0  0  0  0  0  0  0  0  0  0
    4.0084    1.0093   -0.5589 H   0  0  0  0  0  0  0  0  0  0  0  0
    0.4007   -0.4678    1.0012 H   0  0  0  0  0  0  0  0  0  0  0  0
    5.7586   -0.0081    0.1929 H   0  0  0  0  0  0  0  0  0  0  0  0
   -1.6039   -2.4864    1.6694 H   0  0  0  0  0  0  0  0  0  0  0  0
    5.0273   -1.1283   -1.9402 H   0  0  0  0  0  0  0  0  0  0  0  0
    6.7924   -1.1672   -1.7691 H   0  0  0  0  0  0  0  0  0  0  0  0
    5.8150   -2.6133   -1.4310 H   0  0  0  0  0  0  0  0  0  0  0  0
    6.7632   -1.2922    2.0035 H   0  0  0  0  0  0  0  0  0  0  0  0
    7.8408   -1.2262    0.5899 H   0  0  0  0  0  0  0  0  0  0  0  0
    6.9172   -2.7003    0.9637 H   0  0  0  0  0  0  0  0  0  0  0  0
   -1.5310   -4.2033   -0.1219 H   0  0  0  0  0  0  0  0  0  0  0  0
   -4.3072   -1.8264   -2.3604 H   0  0  0  0  0  0  0  0  0  0  0  0
  1 28  1  0  0  0  0
  2 21  1  0  0  0  0
  2 22  1  0  0  0  0
  3 11  1  0  0  0  0
  3 14  1  0  0  0  0
  3 19  1  0  0  0  0
  4 10  1  0  0  0  0
  4 13  1  0  0  0  0
  4 30  1  0  0  0  0
  5 11  1  0  0  0  0
  5 13  2  0  0  0  0
  6 12  1  0  0  0  0
  6 19  2  0  0  0  0
  7  8  1  0  0  0  0
  7 14  1  0  0  0  0
  7 38  1  0  0  0  0
  8 21  2  0  0  0  0
  9 15  2  0  0  0  0
  9 27  1  0  0  0  0
 10 15  1  0  0  0  0
 10 16  1  0  0  0  0
 10 29  1  0  0  0  0
 11 12  2  0  0  0  0
 12 17  1  0  0  0  0
 13 18  1  0  0  0  0
 14 20  2  0  0  0  0
 15 23  1  0  0  0  0
 16 31  1  0  0  0  0
 16 32  1  0  0  0  0
 16 33  1  0  0  0  0
 17 18  2  0  0  0  0
 17 34  1  0  0  0  0
 18 35  1  0  0  0  0
 19 36  1  0  0  0  0
 20 21  1  0  0  0  0
 20 37  1  0  0  0  0
 22 24  1  0  0  0  0
 22 25  1  0  0  0  0
 22 39  1  0  0  0  0
 23 26  2  0  0  0  0
 23 40  1  0  0  0  0
 24 41  1  0  0  0  0
 24 42  1  0  0  0  0
 24 43  1  0  0  0  0
 25 44  1  0  0  0  0
 25 45  1  0  0  0  0
 25 46  1  0  0  0  0
 26 28  1  0  0  0  0
 26 47  1  0  0  0  0
 27 28  2  0  0  0  0
 27 48  1  0  0  0  0
M  END
> <PUBCHEM_COMPOUND_CID>
59627005

> <PUBCHEM_CONFORMER_RMSD>
1

> <PUBCHEM_CONFORMER_DIVERSEORDER>
1
59
34
18
9
8
102
51
101
104
80
71
19
83
47
109
85
72
108
89
68
88
100
49
45
52
60
48
64
74
11
65
37
94
31
41
76
14
105
39
58
33
62
97
84
111
67
79
99
95
91
77
28
43
50
13
12
20
106
32
92
54
66
53
46
15
16
75
26
5
17
98
96
56
25
44
21
81
90
35
38
93
103
29
3
70
78
63
55
27
86
23
87
22
42
61
6
69
82
10
107
40
110
73
4
30
57
2
24
7
36

> <PUBCHEM_MMFF94_PARTIAL_CHARGES>
34
1 -0.19
10 0.51
11 0.11
12 0.23
13 0.41
14 -0.23
15 0.17
17 -0.15
18 -0.15
19 0.04
2 -0.34
20 -0.15
21 0.35
22 0.28
23 -0.15
26 -0.15
27 0.16
28 0.19
3 0.38
30 0.4
34 0.15
35 0.15
36 0.15
37 0.15
38 0.27
4 -0.87
40 0.15
47 0.15
48 0.15
5 -0.57
6 -0.57
7 0.3
8 -0.71
9 -0.62

> <PUBCHEM_EFFECTIVE_ROTOR_COUNT>
6

> <PUBCHEM_PHARMACOPHORE_FEATURES>
10
1 4 donor
1 7 donor
1 9 acceptor
3 22 24 25 hydrophobe
3 3 6 19 cation
3 4 5 13 cation
5 3 6 11 12 19 rings
5 7 8 14 20 21 rings
6 5 11 12 13 17 18 rings
6 9 15 23 26 27 28 rings

> <PUBCHEM_HEAVY_ATOM_COUNT>
28

> <PUBCHEM_ATOM_DEF_STEREO_COUNT>
1

> <PUBCHEM_ATOM_UDEF_STEREO_COUNT>
0

> <PUBCHEM_BOND_DEF_STEREO_COUNT>
0

> <PUBCHEM_BOND_UDEF_STEREO_COUNT>
0

> <PUBCHEM_ISOTOPIC_ATOM_COUNT>
0

> <PUBCHEM_COMPONENT_COUNT>
1

> <PUBCHEM_CACTVS_TAUTO_COUNT>
4

> <PUBCHEM_CONFORMER_ID>
038DD5FD00000001

> <PUBCHEM_MMFF94_ENERGY>
66.8027

> <PUBCHEM_FEATURE_SELFOVERLAP>
50.875

> <PUBCHEM_SHAPE_FINGERPRINT>
10448021 39 17623556954257459799
10462674 125 16336047474242962886
10483366 6 18194658433958032821
10622 236 17912917572459365551
10871710 139 18263638477190015491
11014199 57 18266459995535748370
11069576 57 17550089803096492175
11135926 11 17829616402163670605
11227688 84 17757574197124776614
11477941 20 17749967566074704524
11524674 6 18055913195398567525
11552529 35 18201714029494663776
11578080 2 17987222512741265697
12553582 1 18261114088364909506
12633257 1 17846510222346139539
13009979 54 18058177291682704395
13911987 19 16961828048633269901
14114206 34 17530956973474989048
14117953 113 18342175540827065663
14279260 333 17604995815354475258
14659021 117 18335688469114425490
14674994 50 17988343928347829423
14844126 61 18335978649763167168
15064986 96 17980803482247954435
16110190 28 18338250309531963816
19311894 1 18334858376660160802
21796203 349 17829654722088531608
238 59 17037239153229988943
397830 11 18058427891294747346
4017518 198 17986395482042949959
4280585 95 18335687369739908282
44880168 125 17987246538445271838
4573279 73 18190474925422063532
5080951 261 17970326149936708352

> <PUBCHEM_SHAPE_MULTIPOLES>
528.22
11.17
5.34
1.67
20.95
2.15
0.12
-10.22
1.85
-4.26
-3.19
-1.81
-1.19
-1.96

> <PUBCHEM_SHAPE_SELFOVERLAP>
1156.568

> <PUBCHEM_SHAPE_VOLUME>
289.3

> <PUBCHEM_COORDINATE_TYPE>
2
5
10

$$$$
