49830558
  -OEChem-10062121543D

 48 51  0     1  0  0  0  0  0999 V2000
    5.7288   -1.3170    0.1458 O   0  0  0  0  0  0  0  0  0  0  0  0
    3.5578   -2.0813    0.1820 O   0  0  0  0  0  0  0  0  0  0  0  0
   -4.9487   -0.4655   -0.0455 N   0  0  3  0  0  0  0  0  0  0  0  0
   -8.4720    0.2570    0.4936 N   0  0  0  0  0  0  0  0  0  0  0  0
    0.9822    2.0400   -0.1748 N   0  0  0  0  0  0  0  0  0  0  0  0
    1.5131   -0.1109    0.0024 N   0  0  0  0  0  0  0  0  0  0  0  0
   -7.2217   -0.4797    0.5583 C   0  0  1  0  0  0  0  0  0  0  0  0
   -7.0172   -1.4329   -0.6145 C   0  0  0  0  0  0  0  0  0  0  0  0
   -5.9869    0.4248    0.4750 C   0  0  0  0  0  0  0  0  0  0  0  0
   -5.5150   -1.7108   -0.5617 C   0  0  0  0  0  0  0  0  0  0  0  0
   -3.6035   -0.1659   -0.0526 C   0  0  0  0  0  0  0  0  0  0  0  0
   -2.6885   -1.0797   -0.5758 C   0  0  0  0  0  0  0  0  0  0  0  0
   -3.1570    1.0511    0.4622 C   0  0  0  0  0  0  0  0  0  0  0  0
   -0.8806    0.4408   -0.0694 C   0  0  0  0  0  0  0  0  0  0  0  0
   -1.3272   -0.7764   -0.5841 C   0  0  0  0  0  0  0  0  0  0  0  0
   -1.7956    1.3544    0.4539 C   0  0  0  0  0  0  0  0  0  0  0  0
    0.5273    0.7545   -0.0777 C   0  0  0  0  0  0  0  0  0  0  0  0
    2.3528    2.0017   -0.1558 C   0  0  0  0  0  0  0  0  0  0  0  0
    2.6597    0.6484   -0.0448 C   0  0  0  0  0  0  0  0  0  0  0  0
    4.0073    0.2533    0.0019 C   0  0  0  0  0  0  0  0  0  0  0  0
    3.3210    3.0040   -0.2243 C   0  0  0  0  0  0  0  0  0  0  0  0
    4.9964    1.2425   -0.0653 C   0  0  0  0  0  0  0  0  0  0  0  0
    4.6572    2.5930   -0.1763 C   0  0  0  0  0  0  0  0  0  0  0  0
    4.3705   -1.1474    0.1172 C   0  0  0  0  0  0  0  0  0  0  0  0
    6.2131   -2.6597    0.2575 C   0  0  0  0  0  0  0  0  0  0  0  0
    7.7267   -2.6382    0.2728 C   0  0  0  0  0  0  0  0  0  0  0  0
   -7.1887   -1.0524    1.4946 H   0  0  0  0  0  0  0  0  0  0  0  0
   -7.6129   -2.3472   -0.5335 H   0  0  0  0  0  0  0  0  0  0  0  0
   -7.2707   -0.9436   -1.5640 H   0  0  0  0  0  0  0  0  0  0  0  0
   -5.7538    0.8174    1.4712 H   0  0  0  0  0  0  0  0  0  0  0  0
   -6.1398    1.2607   -0.2185 H   0  0  0  0  0  0  0  0  0  0  0  0
   -5.1557   -1.9607   -1.5656 H   0  0  0  0  0  0  0  0  0  0  0  0
   -5.2970   -2.5382    0.1231 H   0  0  0  0  0  0  0  0  0  0  0  0
   -9.2563   -0.3910    0.5488 H   0  0  0  0  0  0  0  0  0  0  0  0
   -8.5486    0.8760    1.2994 H   0  0  0  0  0  0  0  0  0  0  0  0
   -2.9913   -2.0411   -0.9794 H   0  0  0  0  0  0  0  0  0  0  0  0
   -3.8344    1.7932    0.8736 H   0  0  0  0  0  0  0  0  0  0  0  0
   -0.6306   -1.5019   -0.9975 H   0  0  0  0  0  0  0  0  0  0  0  0
   -1.4798    2.3064    0.8732 H   0  0  0  0  0  0  0  0  0  0  0  0
    0.4211    2.8773   -0.2605 H   0  0  0  0  0  0  0  0  0  0  0  0
    3.0551    4.0515   -0.3105 H   0  0  0  0  0  0  0  0  0  0  0  0
    6.0555    0.9986   -0.0338 H   0  0  0  0  0  0  0  0  0  0  0  0
    5.4455    3.3401   -0.2265 H   0  0  0  0  0  0  0  0  0  0  0  0
    5.8582   -3.2462   -0.5970 H   0  0  0  0  0  0  0  0  0  0  0  0
    5.8382   -3.1052    1.1854 H   0  0  0  0  0  0  0  0  0  0  0  0
    8.1315   -3.6505    0.3574 H   0  0  0  0  0  0  0  0  0  0  0  0
    8.0950   -2.0385    1.1117 H   0  0  0  0  0  0  0  0  0  0  0  0
    8.1147   -2.1772   -0.6416 H   0  0  0  0  0  0  0  0  0  0  0  0
  1 24  1  0  0  0  0
  1 25  1  0  0  0  0
  2 24  2  0  0  0  0
  3  9  1  0  0  0  0
  3 10  1  0  0  0  0
  3 11  1  0  0  0  0
  4  7  1  0  0  0  0
  4 34  1  0  0  0  0
  4 35  1  0  0  0  0
  5 17  1  0  0  0  0
  5 18  1  0  0  0  0
  5 40  1  0  0  0  0
  6 17  2  0  0  0  0
  6 19  1  0  0  0  0
  7  8  1  0  0  0  0
  7  9  1  0  0  0  0
  7 27  1  0  0  0  0
  8 10  1  0  0  0  0
  8 28  1  0  0  0  0
  8 29  1  0  0  0  0
  9 30  1  0  0  0  0
  9 31  1  0  0  0  0
 10 32  1  0  0  0  0
 10 33  1  0  0  0  0
 11 12  2  0  0  0  0
 11 13  1  0  0  0  0
 12 15  1  0  0  0  0
 12 36  1  0  0  0  0
 13 16  2  0  0  0  0
 13 37  1  0  0  0  0
 14 15  2  0  0  0  0
 14 16  1  0  0  0  0
 14 17  1  0  0  0  0
 15 38  1  0  0  0  0
 16 39  1  0  0  0  0
 18 19  1  0  0  0  0
 18 21  2  0  0  0  0
 19 20  2  0  0  0  0
 20 22  1  0  0  0  0
 20 24  1  0  0  0  0
 21 23  1  0  0  0  0
 21 41  1  0  0  0  0
 22 23  2  0  0  0  0
 22 42  1  0  0  0  0
 23 43  1  0  0  0  0
 25 26  1  0  0  0  0
 25 44  1  0  0  0  0
 25 45  1  0  0  0  0
 26 46  1  0  0  0  0
 26 47  1  0  0  0  0
 26 48  1  0  0  0  0
M  END
> <PUBCHEM_COMPOUND_CID>
49830558

> <PUBCHEM_CONFORMER_RMSD>
0.8

> <PUBCHEM_CONFORMER_DIVERSEORDER>
1
7
9
15
12
5
3
23
20
14
19
18
22
8
11
4
10
21
2
17
6
16
13

> <PUBCHEM_MMFF94_PARTIAL_CHARGES>
34
1 -0.43
10 0.37
11 0.1
12 -0.15
13 -0.15
14 0.05
15 -0.15
16 -0.15
17 0.13
18 -0.15
19 0.23
2 -0.57
20 0.09
21 -0.15
22 -0.15
23 -0.15
24 0.63
25 0.28
3 -0.84
34 0.36
35 0.36
36 0.15
37 0.15
38 0.15
39 0.15
4 -0.99
40 0.27
41 0.15
42 0.15
43 0.15
5 0.03
6 -0.57
7 0.27
9 0.37

> <PUBCHEM_EFFECTIVE_ROTOR_COUNT>
6

> <PUBCHEM_PHARMACOPHORE_FEATURES>
10
1 2 acceptor
1 3 cation
1 4 cation
1 4 donor
1 5 donor
3 5 6 17 cation
5 3 7 8 9 10 rings
5 5 6 17 18 19 rings
6 11 12 13 14 15 16 rings
6 18 19 20 21 22 23 rings

> <PUBCHEM_HEAVY_ATOM_COUNT>
26

> <PUBCHEM_ATOM_DEF_STEREO_COUNT>
0

> <PUBCHEM_ATOM_UDEF_STEREO_COUNT>
1

> <PUBCHEM_BOND_DEF_STEREO_COUNT>
0

> <PUBCHEM_BOND_UDEF_STEREO_COUNT>
0

> <PUBCHEM_ISOTOPIC_ATOM_COUNT>
0

> <PUBCHEM_COMPONENT_COUNT>
1

> <PUBCHEM_CACTVS_TAUTO_COUNT>
4

> <PUBCHEM_CONFORMER_ID>
02F85A9E00000001

> <PUBCHEM_MMFF94_ENERGY>
66.4842

> <PUBCHEM_FEATURE_SELFOVERLAP>
50.854

> <PUBCHEM_SHAPE_FINGERPRINT>
10 15 12463565175508871766
10299344 5 18413673508430437526
10411042 1 18265332816777579978
10595046 47 18341614879722415001
11719270 70 17704357671511775191
12107183 9 18125447414429965097
12166972 35 18335142016141580373
12236239 1 18343022224788694769
12788726 201 17489039222638320617
13073987 5 18342175578780741961
13167372 99 18343306955424852329
13248334 5 18337390561129677796
13383668 362 18057306483364604906
13533116 47 18411418440384017008
13673619 4 18040715831842284756
13685833 64 18408603639367401186
13782708 43 17821440249057820539
13785724 45 17983868778389441102
14251764 18 18272932730462262318
14341114 176 18335704965973039101
14347424 109 18343581858621402800
15183329 4 18059866090562393133
15250474 111 18058155292834211223
1577012 14 18201440328804384549
17844677 252 18409172095316188061
19427546 62 18046346607209241732
20028762 73 18343301440476211446
20642791 105 17986957358038782657
20645477 70 18334008411199928392
20771845 171 17894355510755285108
21065198 48 18343026596427514609
21130935 74 18341049730935525563
21150785 3 11602825705398589995
21267235 1 18411140195623580990
21315763 28 18411138039797742841
21344244 78 18201427070283066712
21365058 113 17022910055324149493
21781055 127 16773257118459138698
21792934 111 18201147785428323385
23081809 10 18131068286149794525
23522609 53 18057070058263438745
23536379 177 18412265069202012561
23559900 14 18263080075617263289
23569943 247 18042401335723384147
25242607 90 18269542868102195730
255183 451 18338805520745355340
3004659 81 18260264144644355986
34797466 226 16298391292149116508
397830 11 12607111985356815863
4073 2 18043815500870473795
46194498 28 17386002922926754716
465052 167 18342177761140593022
5104073 3 18202007646133021425
5372103 7 15865504812163427766
54039377 194 18337112255712153406
57527295 17 17242166852090997728
70251023 43 18260828143107958904
9962374 69 18340477946023477078

> <PUBCHEM_SHAPE_MULTIPOLES>
503.41
21.67
2.87
0.71
18.72
0.06
0.01
-13.01
-2.2
-6.71
0.07
0.41
-0.04
-1.45

> <PUBCHEM_SHAPE_SELFOVERLAP>
1103.74

> <PUBCHEM_SHAPE_VOLUME>
276.4

> <PUBCHEM_COORDINATE_TYPE>
2
5
10

$$$$
