57991377
  -OEChem-10062121563D

 61 65  0     1  0  0  0  0  0999 V2000
   -5.8915    4.9988    0.4174 O   0  0  0  0  0  0  0  0  0  0  0  0
    4.5669    1.6092   -1.1204 O   0  0  0  0  0  0  0  0  0  0  0  0
    6.2058    3.3216    0.0349 N   0  0  0  0  0  0  0  0  0  0  0  0
   -4.9713    2.3772   -0.0062 N   0  0  0  0  0  0  0  0  0  0  0  0
    4.6679    0.2054    0.7653 N   0  0  0  0  0  0  0  0  0  0  0  0
   -3.2360   -2.9342   -0.3076 N   0  0  0  0  0  0  0  0  0  0  0  0
   -0.9161   -2.6901   -0.0549 N   0  0  0  0  0  0  0  0  0  0  0  0
   -1.9073   -4.8673   -0.3461 N   0  0  0  0  0  0  0  0  0  0  0  0
    6.2777    1.9315    0.4844 C   0  0  2  0  0  0  0  0  0  0  0  0
    7.5767    1.3651   -0.0793 C   0  0  0  0  0  0  0  0  0  0  0  0
    8.1772    2.5078   -0.8836 C   0  0  0  0  0  0  0  0  0  0  0  0
    7.5777    3.7396   -0.2378 C   0  0  0  0  0  0  0  0  0  0  0  0
    5.0738    1.2422   -0.0654 C   0  0  0  0  0  0  0  0  0  0  0  0
   -6.4009    2.6874   -0.1156 C   0  0  0  0  0  0  0  0  0  0  0  0
   -4.1877    3.3173    0.8071 C   0  0  0  0  0  0  0  0  0  0  0  0
   -6.5825    4.1516   -0.4999 C   0  0  0  0  0  0  0  0  0  0  0  0
   -4.4870    4.7475    0.3728 C   0  0  0  0  0  0  0  0  0  0  0  0
   -4.5378    1.0496   -0.0822 C   0  0  0  0  0  0  0  0  0  0  0  0
    3.5719   -0.6698    0.5774 C   0  0  0  0  0  0  0  0  0  0  0  0
   -3.2738    0.7568   -0.5945 C   0  0  0  0  0  0  0  0  0  0  0  0
   -5.3693    0.0184    0.3544 C   0  0  0  0  0  0  0  0  0  0  0  0
    3.3036   -1.6636    1.5188 C   0  0  0  0  0  0  0  0  0  0  0  0
    2.7599   -0.5387   -0.5492 C   0  0  0  0  0  0  0  0  0  0  0  0
   -3.6732   -1.5984   -0.2336 C   0  0  0  0  0  0  0  0  0  0  0  0
   -2.8415   -0.5671   -0.6702 C   0  0  0  0  0  0  0  0  0  0  0  0
   -4.9371   -1.3056    0.2786 C   0  0  0  0  0  0  0  0  0  0  0  0
    1.4112   -2.3950    0.2070 C   0  0  0  0  0  0  0  0  0  0  0  0
    2.2233   -2.5261    1.3336 C   0  0  0  0  0  0  0  0  0  0  0  0
    1.6796   -1.4014   -0.7343 C   0  0  0  0  0  0  0  0  0  0  0  0
    0.2906   -3.2897    0.0151 C   0  0  0  0  0  0  0  0  0  0  0  0
   -1.9565   -3.5262   -0.2335 C   0  0  0  0  0  0  0  0  0  0  0  0
    0.4759   -4.6535   -0.0854 C   0  0  0  0  0  0  0  0  0  0  0  0
   -0.6703   -5.4002   -0.2672 C   0  0  0  0  0  0  0  0  0  0  0  0
    6.2903    1.8964    1.5803 H   0  0  0  0  0  0  0  0  0  0  0  0
    7.4432    0.4728   -0.6999 H   0  0  0  0  0  0  0  0  0  0  0  0
    8.2534    1.1054    0.7438 H   0  0  0  0  0  0  0  0  0  0  0  0
    9.2706    2.5067   -0.8535 H   0  0  0  0  0  0  0  0  0  0  0  0
    7.8626    2.4330   -1.9319 H   0  0  0  0  0  0  0  0  0  0  0  0
    7.6111    4.6097   -0.8990 H   0  0  0  0  0  0  0  0  0  0  0  0
    8.0973    3.9851    0.6957 H   0  0  0  0  0  0  0  0  0  0  0  0
    5.7744    3.9150    0.7412 H   0  0  0  0  0  0  0  0  0  0  0  0
   -6.8845    2.5056    0.8521 H   0  0  0  0  0  0  0  0  0  0  0  0
   -6.8870    2.0630   -0.8744 H   0  0  0  0  0  0  0  0  0  0  0  0
   -3.1099    3.1417    0.7213 H   0  0  0  0  0  0  0  0  0  0  0  0
   -4.4669    3.1828    1.8596 H   0  0  0  0  0  0  0  0  0  0  0  0
    5.2110    0.0339    1.6087 H   0  0  0  0  0  0  0  0  0  0  0  0
   -6.2214    4.3452   -1.5173 H   0  0  0  0  0  0  0  0  0  0  0  0
   -7.6441    4.4168   -0.4692 H   0  0  0  0  0  0  0  0  0  0  0  0
   -3.9974    5.4538    1.0507 H   0  0  0  0  0  0  0  0  0  0  0  0
   -4.1131    4.9444   -0.6393 H   0  0  0  0  0  0  0  0  0  0  0  0
   -2.6208    1.5451   -0.9604 H   0  0  0  0  0  0  0  0  0  0  0  0
   -6.3535    0.2107    0.7719 H   0  0  0  0  0  0  0  0  0  0  0  0
    3.9278   -1.7757    2.4016 H   0  0  0  0  0  0  0  0  0  0  0  0
    2.9056    0.2044   -1.3206 H   0  0  0  0  0  0  0  0  0  0  0  0
   -1.8707   -0.7515   -1.1183 H   0  0  0  0  0  0  0  0  0  0  0  0
   -5.5927   -2.1001    0.6261 H   0  0  0  0  0  0  0  0  0  0  0  0
    2.0281   -3.2905    2.0822 H   0  0  0  0  0  0  0  0  0  0  0  0
    1.0587   -1.2868   -1.6200 H   0  0  0  0  0  0  0  0  0  0  0  0
   -3.9830   -3.6222   -0.3044 H   0  0  0  0  0  0  0  0  0  0  0  0
    1.4491   -5.1257   -0.0326 H   0  0  0  0  0  0  0  0  0  0  0  0
   -0.6242   -6.4801   -0.3582 H   0  0  0  0  0  0  0  0  0  0  0  0
  1 16  1  0  0  0  0
  1 17  1  0  0  0  0
  2 13  2  0  0  0  0
  3  9  1  0  0  0  0
  3 12  1  0  0  0  0
  3 41  1  0  0  0  0
  4 14  1  0  0  0  0
  4 15  1  0  0  0  0
  4 18  1  0  0  0  0
  5 13  1  0  0  0  0
  5 19  1  0  0  0  0
  5 46  1  0  0  0  0
  6 24  1  0  0  0  0
  6 31  1  0  0  0  0
  6 59  1  0  0  0  0
  7 30  2  0  0  0  0
  7 31  1  0  0  0  0
  8 31  2  0  0  0  0
  8 33  1  0  0  0  0
  9 10  1  0  0  0  0
  9 13  1  0  0  0  0
  9 34  1  0  0  0  0
 10 11  1  0  0  0  0
 10 35  1  0  0  0  0
 10 36  1  0  0  0  0
 11 12  1  0  0  0  0
 11 37  1  0  0  0  0
 11 38  1  0  0  0  0
 12 39  1  0  0  0  0
 12 40  1  0  0  0  0
 14 16  1  0  0  0  0
 14 42  1  0  0  0  0
 14 43  1  0  0  0  0
 15 17  1  0  0  0  0
 15 44  1  0  0  0  0
 15 45  1  0  0  0  0
 16 47  1  0  0  0  0
 16 48  1  0  0  0  0
 17 49  1  0  0  0  0
 17 50  1  0  0  0  0
 18 20  2  0  0  0  0
 18 21  1  0  0  0  0
 19 22  2  0  0  0  0
 19 23  1  0  0  0  0
 20 25  1  0  0  0  0
 20 51  1  0  0  0  0
 21 26  2  0  0  0  0
 21 52  1  0  0  0  0
 22 28  1  0  0  0  0
 22 53  1  0  0  0  0
 23 29  2  0  0  0  0
 23 54  1  0  0  0  0
 24 25  2  0  0  0  0
 24 26  1  0  0  0  0
 25 55  1  0  0  0  0
 26 56  1  0  0  0  0
 27 28  2  0  0  0  0
 27 29  1  0  0  0  0
 27 30  1  0  0  0  0
 28 57  1  0  0  0  0
 29 58  1  0  0  0  0
 30 32  1  0  0  0  0
 32 33  2  0  0  0  0
 32 60  1  0  0  0  0
 33 61  1  0  0  0  0
M  END
> <PUBCHEM_COMPOUND_CID>
57991377

> <PUBCHEM_CONFORMER_RMSD>
1

> <PUBCHEM_CONFORMER_DIVERSEORDER>
1
15
4
10
37
21
25
5
29
40
34
38
3
18
22
33
26
42
27
7
43
35
8
12
39
9
36
17
31
28
16
41
44
11
32
24
20
23
14
19
30
2
13
6

> <PUBCHEM_MMFF94_PARTIAL_CHARGES>
43
1 -0.56
12 0.27
13 0.57
14 0.37
15 0.37
16 0.28
17 0.28
18 0.1
19 0.12
2 -0.57
20 -0.15
21 -0.15
22 -0.15
23 -0.15
24 0.1
25 -0.15
26 -0.15
28 -0.15
29 -0.15
3 -0.9
30 0.31
31 0.72
32 -0.15
33 0.16
4 -0.84
41 0.36
46 0.37
5 -0.55
51 0.15
52 0.15
53 0.15
54 0.15
55 0.15
56 0.15
57 0.15
58 0.15
59 0.4
6 -0.6
60 0.15
61 0.15
7 -0.62
8 -0.62
9 0.33

> <PUBCHEM_EFFECTIVE_ROTOR_COUNT>
9.2

> <PUBCHEM_PHARMACOPHORE_FEATURES>
14
1 1 acceptor
1 2 acceptor
1 3 cation
1 3 donor
1 4 cation
1 5 donor
1 6 donor
1 7 acceptor
4 6 7 8 31 cation
5 3 9 10 11 12 rings
6 1 4 14 15 16 17 rings
6 18 20 21 24 25 26 rings
6 19 22 23 27 28 29 rings
6 7 8 30 31 32 33 rings

> <PUBCHEM_HEAVY_ATOM_COUNT>
33

> <PUBCHEM_ATOM_DEF_STEREO_COUNT>
1

> <PUBCHEM_ATOM_UDEF_STEREO_COUNT>
0

> <PUBCHEM_BOND_DEF_STEREO_COUNT>
0

> <PUBCHEM_BOND_UDEF_STEREO_COUNT>
0

> <PUBCHEM_ISOTOPIC_ATOM_COUNT>
0

> <PUBCHEM_COMPONENT_COUNT>
1

> <PUBCHEM_CACTVS_TAUTO_COUNT>
81

> <PUBCHEM_CONFORMER_ID>
0374E0D100000001

> <PUBCHEM_MMFF94_ENERGY>
115.8117

> <PUBCHEM_FEATURE_SELFOVERLAP>
71.048

> <PUBCHEM_SHAPE_FINGERPRINT>
100830 2 18334017220046412676
100830 39 18267022950347781766
10675989 125 18050852109232571241
10864689 126 18411427172453690508
10917259 128 18268695277933764792
10917259 69 18410013218318276532
10937287 8 18339923714969834543
10951579 204 18266197183040915052
10985338 8 18343293769975818306
11374522 174 18265063443985871781
11386260 185 17405699282517052295
11408170 253 18194977459396890484
11477941 20 17624967618674407606
11761917 142 18268982267194951944
11828042 163 18269281154353383684
12107183 9 18263065675109540986
12888983 3 17628344185426059240
13726171 33 18410296895737634545
14251764 75 18268997492689972353
14747282 140 18337112362727587981
14790565 3 18411419492524338995
15152005 290 18410572881423990567
15198563 99 17911788386987217159
15400415 2 18339640040616661385
15419008 42 17988375836361861918
15439362 3 18339927018010818366
155225 5 18339923826179600136
155225 6 18338798893094502041
15569901 51 17833269001525091160
15604295 49 17766839808474924624
15980000 95 17329710916940746966
16126227 98 18339646744991408643
16728433 281 18269010803179452396
16990350 14 18338234843544615266
19053607 189 18267852909396038601
19302320 297 18121214273182663083
19304152 47 18336557100686446755
19304671 126 17702674228604107181
19309040 13 18201433624007105799
20691028 202 18411410709659220408
21133410 127 18043813087173519092
21772523 7 17318155132239521805
21859007 373 17914326030248813200
21987440 362 18411144615081723470
22033318 11 17895184486150152136
23576562 1 17769089043829189959
437795 171 18044649802616424317
44280116 191 18119546348941869452
5047190 92 18338518513803612529
5219985 13 18342452621535696023
5265222 85 18412825798351536417
53794403 172 18051975814590369439
5776283 40 18342735264838678225
5951187 136 17984707718455737159
6058803 2 18191561173490079626
6176135 31 18122054304619980169
6201320 215 18268424819210038096
636775 72 18051127292694506144
6475588 51 18050282863052896052
6700243 42 17189859008013235350
7808743 9 18339075012009721746
7970288 3 9619545863557520723
9849439 229 18337674109936847487

> <PUBCHEM_SHAPE_MULTIPOLES>
637.5
21.13
8.53
0.93
23.9
1.35
-0.13
-38.4
1.19
-7.91
0.15
0.6
0.07
-1.97

> <PUBCHEM_SHAPE_SELFOVERLAP>
1385.096

> <PUBCHEM_SHAPE_VOLUME>
345.5

> <PUBCHEM_COORDINATE_TYPE>
2
5
10

$$$$
