49830651
  -OEChem-10062121553D

 77 80  0     0  0  0  0  0  0999 V2000
    0.8704   -5.3372   -0.2714 O   0  0  0  0  0  0  0  0  0  0  0  0
    0.7513    3.1895   -0.6212 O   0  0  0  0  0  0  0  0  0  0  0  0
    3.4909   -0.0322    0.3754 N   0  0  0  0  0  0  0  0  0  0  0  0
    4.8093    0.1918    0.2419 N   0  0  0  0  0  0  0  0  0  0  0  0
    1.2998    1.0339    0.1004 N   0  0  0  0  0  0  0  0  0  0  0  0
   -4.8674   -1.7698   -0.3209 N   0  0  0  0  0  0  0  0  0  0  0  0
    0.0859   -3.4144   -1.3031 N   0  0  0  0  0  0  0  0  0  0  0  0
   -0.9158    1.6569   -0.0246 N   0  0  0  0  0  0  0  0  0  0  0  0
    6.1637    2.0813   -0.4666 C   0  0  0  0  0  0  0  0  0  0  0  0
    4.8600    1.4536   -0.1930 C   0  0  0  0  0  0  0  0  0  0  0  0
    6.2916    2.5363   -1.9607 C   0  0  0  0  0  0  0  0  0  0  0  0
    7.4293    1.1822   -0.2134 C   0  0  0  0  0  0  0  0  0  0  0  0
    6.3966    3.3541    0.4176 C   0  0  0  0  0  0  0  0  0  0  0  0
    3.5839    2.0309   -0.3360 C   0  0  0  0  0  0  0  0  0  0  0  0
    2.7135    1.0377    0.0416 C   0  0  0  0  0  0  0  0  0  0  0  0
    3.0449   -1.2782    0.8196 C   0  0  0  0  0  0  0  0  0  0  0  0
   -2.8733   -2.8726   -1.2246 C   0  0  0  0  0  0  0  0  0  0  0  0
   -2.2325   -4.2205   -1.5713 C   0  0  0  0  0  0  0  0  0  0  0  0
   -4.2711   -3.0625   -0.6363 C   0  0  0  0  0  0  0  0  0  0  0  0
   -0.8474   -4.0695   -2.1914 C   0  0  0  0  0  0  0  0  0  0  0  0
    2.2104   -2.0494    0.0104 C   0  0  0  0  0  0  0  0  0  0  0  0
    1.7654   -3.2949    0.4538 C   0  0  0  0  0  0  0  0  0  0  0  0
    3.4345   -1.7527    2.0721 C   0  0  0  0  0  0  0  0  0  0  0  0
    0.8947   -4.0993   -0.3889 C   0  0  0  0  0  0  0  0  0  0  0  0
    2.1551   -3.7693    1.7064 C   0  0  0  0  0  0  0  0  0  0  0  0
    2.9898   -2.9983    2.5154 C   0  0  0  0  0  0  0  0  0  0  0  0
    0.4185    2.0776   -0.2239 C   0  0  0  0  0  0  0  0  0  0  0  0
   -5.9706   -1.9290    0.6282 C   0  0  0  0  0  0  0  0  0  0  0  0
   -5.3374   -1.1077   -1.5391 C   0  0  0  0  0  0  0  0  0  0  0  0
   -2.0968    2.3816   -0.2266 C   0  0  0  0  0  0  0  0  0  0  0  0
   -3.2519    2.1412    0.5351 C   0  0  0  0  0  0  0  0  0  0  0  0
   -4.4169    2.9053    0.2857 C   0  0  0  0  0  0  0  0  0  0  0  0
   -2.0902    3.3613   -1.2198 C   0  0  0  0  0  0  0  0  0  0  0  0
   -3.2766    1.1591    1.5387 C   0  0  0  0  0  0  0  0  0  0  0  0
   -4.3922    3.8873   -0.7180 C   0  0  0  0  0  0  0  0  0  0  0  0
   -3.2357    4.1127   -1.4651 C   0  0  0  0  0  0  0  0  0  0  0  0
   -5.5720    2.6647    1.0473 C   0  0  0  0  0  0  0  0  0  0  0  0
   -4.4331    0.9336    2.2858 C   0  0  0  0  0  0  0  0  0  0  0  0
   -5.5786    1.6849    2.0405 C   0  0  0  0  0  0  0  0  0  0  0  0
    7.2629    3.0037   -2.1583 H   0  0  0  0  0  0  0  0  0  0  0  0
    6.1811    1.6806   -2.6369 H   0  0  0  0  0  0  0  0  0  0  0  0
    5.5142    3.2644   -2.2193 H   0  0  0  0  0  0  0  0  0  0  0  0
    8.3584    1.7182   -0.4385 H   0  0  0  0  0  0  0  0  0  0  0  0
    7.4001    0.2831   -0.8400 H   0  0  0  0  0  0  0  0  0  0  0  0
    7.4737    0.8580    0.8329 H   0  0  0  0  0  0  0  0  0  0  0  0
    7.3673    3.8178    0.2093 H   0  0  0  0  0  0  0  0  0  0  0  0
    5.6224    4.1082    0.2351 H   0  0  0  0  0  0  0  0  0  0  0  0
    6.3631    3.0970    1.4828 H   0  0  0  0  0  0  0  0  0  0  0  0
    3.3414    3.0294   -0.6689 H   0  0  0  0  0  0  0  0  0  0  0  0
   -2.2473   -2.3327   -0.5031 H   0  0  0  0  0  0  0  0  0  0  0  0
   -2.9056   -2.2688   -2.1377 H   0  0  0  0  0  0  0  0  0  0  0  0
   -2.1631   -4.8329   -0.6638 H   0  0  0  0  0  0  0  0  0  0  0  0
   -2.8762   -4.7606   -2.2760 H   0  0  0  0  0  0  0  0  0  0  0  0
    0.8789    0.1701    0.4287 H   0  0  0  0  0  0  0  0  0  0  0  0
   -4.9067   -3.6495   -1.3120 H   0  0  0  0  0  0  0  0  0  0  0  0
   -4.1589   -3.6546    0.2818 H   0  0  0  0  0  0  0  0  0  0  0  0
   -0.8996   -3.4704   -3.1066 H   0  0  0  0  0  0  0  0  0  0  0  0
   -0.4531   -5.0563   -2.4567 H   0  0  0  0  0  0  0  0  0  0  0  0
    1.9555   -1.6789   -0.9794 H   0  0  0  0  0  0  0  0  0  0  0  0
    4.0810   -1.1631    2.7178 H   0  0  0  0  0  0  0  0  0  0  0  0
    0.0870   -2.4003   -1.3238 H   0  0  0  0  0  0  0  0  0  0  0  0
    1.8157   -4.7348    2.0726 H   0  0  0  0  0  0  0  0  0  0  0  0
    3.2917   -3.3668    3.4915 H   0  0  0  0  0  0  0  0  0  0  0  0
   -1.0018    0.7826    0.4820 H   0  0  0  0  0  0  0  0  0  0  0  0
   -6.4376   -0.9646    0.8525 H   0  0  0  0  0  0  0  0  0  0  0  0
   -6.7478   -2.6002    0.2445 H   0  0  0  0  0  0  0  0  0  0  0  0
   -5.6047   -2.3308    1.5795 H   0  0  0  0  0  0  0  0  0  0  0  0
   -5.8048   -0.1473   -1.2916 H   0  0  0  0  0  0  0  0  0  0  0  0
   -4.5145   -0.8677   -2.2186 H   0  0  0  0  0  0  0  0  0  0  0  0
   -6.0745   -1.7106   -2.0820 H   0  0  0  0  0  0  0  0  0  0  0  0
   -1.2293    3.5442   -1.8547 H   0  0  0  0  0  0  0  0  0  0  0  0
   -2.4148    0.5463    1.7843 H   0  0  0  0  0  0  0  0  0  0  0  0
   -5.2767    4.4849   -0.9285 H   0  0  0  0  0  0  0  0  0  0  0  0
   -3.2336    4.8687   -2.2450 H   0  0  0  0  0  0  0  0  0  0  0  0
   -6.4791    3.2395    0.8725 H   0  0  0  0  0  0  0  0  0  0  0  0
   -4.4395    0.1715    3.0596 H   0  0  0  0  0  0  0  0  0  0  0  0
   -6.4788    1.5081    2.6219 H   0  0  0  0  0  0  0  0  0  0  0  0
  1 24  2  0  0  0  0
  2 27  2  0  0  0  0
  3  4  1  0  0  0  0
  3 15  1  0  0  0  0
  3 16  1  0  0  0  0
  4 10  2  0  0  0  0
  5 15  1  0  0  0  0
  5 27  1  0  0  0  0
  5 54  1  0  0  0  0
  6 19  1  0  0  0  0
  6 28  1  0  0  0  0
  6 29  1  0  0  0  0
  7 20  1  0  0  0  0
  7 24  1  0  0  0  0
  7 61  1  0  0  0  0
  8 27  1  0  0  0  0
  8 30  1  0  0  0  0
  8 64  1  0  0  0  0
  9 10  1  0  0  0  0
  9 11  1  0  0  0  0
  9 12  1  0  0  0  0
  9 13  1  0  0  0  0
 10 14  1  0  0  0  0
 11 40  1  0  0  0  0
 11 41  1  0  0  0  0
 11 42  1  0  0  0  0
 12 43  1  0  0  0  0
 12 44  1  0  0  0  0
 12 45  1  0  0  0  0
 13 46  1  0  0  0  0
 13 47  1  0  0  0  0
 13 48  1  0  0  0  0
 14 15  2  0  0  0  0
 14 49  1  0  0  0  0
 16 21  1  0  0  0  0
 16 23  2  0  0  0  0
 17 18  1  0  0  0  0
 17 19  1  0  0  0  0
 17 50  1  0  0  0  0
 17 51  1  0  0  0  0
 18 20  1  0  0  0  0
 18 52  1  0  0  0  0
 18 53  1  0  0  0  0
 19 55  1  0  0  0  0
 19 56  1  0  0  0  0
 20 57  1  0  0  0  0
 20 58  1  0  0  0  0
 21 22  2  0  0  0  0
 21 59  1  0  0  0  0
 22 24  1  0  0  0  0
 22 25  1  0  0  0  0
 23 26  1  0  0  0  0
 23 60  1  0  0  0  0
 25 26  2  0  0  0  0
 25 62  1  0  0  0  0
 26 63  1  0  0  0  0
 28 65  1  0  0  0  0
 28 66  1  0  0  0  0
 28 67  1  0  0  0  0
 29 68  1  0  0  0  0
 29 69  1  0  0  0  0
 29 70  1  0  0  0  0
 30 31  1  0  0  0  0
 30 33  2  0  0  0  0
 31 32  1  0  0  0  0
 31 34  2  0  0  0  0
 32 35  1  0  0  0  0
 32 37  2  0  0  0  0
 33 36  1  0  0  0  0
 33 71  1  0  0  0  0
 34 38  1  0  0  0  0
 34 72  1  0  0  0  0
 35 36  2  0  0  0  0
 35 73  1  0  0  0  0
 36 74  1  0  0  0  0
 37 39  1  0  0  0  0
 37 75  1  0  0  0  0
 38 39  2  0  0  0  0
 38 76  1  0  0  0  0
 39 77  1  0  0  0  0
M  END
> <PUBCHEM_COMPOUND_CID>
49830651

> <PUBCHEM_CONFORMER_RMSD>
1.2

> <PUBCHEM_CONFORMER_DIVERSEORDER>
1
81
125
20
132
87
137
67
21
118
60
25
129
119
48
75
34
78
110
65
95
114
4
58
91
59
140
85
135
100
136
83
12
113
50
26
42
53
117
23
145
96
97
93
127
101
86
102
108
99
134
123
131
89
109
88
47
27
80
92
31
71
10
120
144
121
45
40
8
133
19
79
49
64
111
29
57
128
17
70
38
115
61
141
139
98
30
72
104
15
68
3
43
122
62
24
90
32
28
63
116
11
76
36
33
13
18
138
103
130
55
44
66
7
5
16
35
56
6
39
2
142
46
94
9
52
73
51
143
69
77
107
37
74
14
105
41
106
22
112
124
126
82
54
84

> <PUBCHEM_MMFF94_PARTIAL_CHARGES>
47
1 -0.57
10 0.11
14 -0.15
15 -0.09
16 -0.02
19 0.27
2 -0.57
20 0.3
21 -0.15
22 0.09
23 -0.15
24 0.54
25 -0.15
26 -0.15
27 0.69
28 0.27
29 0.27
3 0.59
30 0.12
33 -0.15
34 -0.15
35 -0.15
36 -0.15
37 -0.15
38 -0.15
39 -0.15
4 -0.71
49 0.15
5 -0.49
54 0.37
59 0.15
6 -0.81
60 0.15
61 0.37
62 0.15
63 0.15
64 0.37
7 -0.73
71 0.15
72 0.15
73 0.15
74 0.15
75 0.15
76 0.15
77 0.15
8 -0.55
9 0.18

> <PUBCHEM_EFFECTIVE_ROTOR_COUNT>
13

> <PUBCHEM_PHARMACOPHORE_FEATURES>
12
1 1 acceptor
1 2 acceptor
1 4 acceptor
1 5 donor
1 6 cation
1 7 donor
1 8 donor
4 9 11 12 13 hydrophobe
5 3 4 10 14 15 rings
6 16 21 22 23 25 26 rings
6 30 31 32 33 35 36 rings
6 31 32 34 37 38 39 rings

> <PUBCHEM_HEAVY_ATOM_COUNT>
39

> <PUBCHEM_ATOM_DEF_STEREO_COUNT>
0

> <PUBCHEM_ATOM_UDEF_STEREO_COUNT>
0

> <PUBCHEM_BOND_DEF_STEREO_COUNT>
0

> <PUBCHEM_BOND_UDEF_STEREO_COUNT>
0

> <PUBCHEM_ISOTOPIC_ATOM_COUNT>
0

> <PUBCHEM_COMPONENT_COUNT>
1

> <PUBCHEM_CACTVS_TAUTO_COUNT>
14

> <PUBCHEM_CONFORMER_ID>
02F85AFB00000001

> <PUBCHEM_MMFF94_ENERGY>
123.4333

> <PUBCHEM_FEATURE_SELFOVERLAP>
60.972

> <PUBCHEM_SHAPE_FINGERPRINT>
10010297 198 18261394403885488570
10190206 1 18265330789083693836
10290309 65 18267028254047811045
10815517 723 18195810901757283180
11007060 377 18197506336214290920
11136131 41 18187916254173723586
11204353 107 18410006645921795288
11434127 23 17458635561144998289
11991303 11 18265916794590553660
12788726 201 18269545207977961910
13165053 182 16596200828889325540
14026016 164 18195246852424096175
14294032 229 18410853304983546304
15001296 14 18410575046246224335
15250474 111 18337659841833645145
15264996 163 18122057865527669999
15297060 5 17417266453657570131
15781502 409 18270698458526462868
161222 619 17909547260308809767
1979834 28 17767390297524621906
20764821 26 18196645199481748031
21133410 58 17325748303009001997
21133410 62 18042669775885982679
50080093 196 18335130995445533371
50677037 204 17835802271877198632
6036956 94 18337099095683847821
6176135 31 18125436411403916331
6608658 132 18127958909942726951
6695519 79 18340217340293242008
9658208 31 18339650053224489640
9982175 49 18043539527715675853

> <PUBCHEM_SHAPE_MULTIPOLES>
760.98
15.91
7.84
1.96
9.21
5.9
-0.51
-13.3
-1.2
-2.54
2.6
-0.91
1.07
-3.96

> <PUBCHEM_SHAPE_SELFOVERLAP>
1621.883

> <PUBCHEM_SHAPE_VOLUME>
424

> <PUBCHEM_COORDINATE_TYPE>
2
5
10

$$$$
