49830908
  -OEChem-10062121563D

 64 68  0     0  0  0  0  0  0999 V2000
    8.4012    2.2878    1.4895 F   0  0  0  0  0  0  0  0  0  0  0  0
   -5.5503   -1.7234    0.1257 O   0  0  0  0  0  0  0  0  0  0  0  0
    5.0173   -0.9243   -0.4587 O   0  0  0  0  0  0  0  0  0  0  0  0
   -4.1148    0.1598   -1.7820 N   0  0  0  0  0  0  0  0  0  0  0  0
   -8.5603    0.3456   -0.1275 N   0  0  0  0  0  0  0  0  0  0  0  0
   -3.2071    0.9205   -2.4162 N   0  0  0  0  0  0  0  0  0  0  0  0
   -0.8957    1.3119   -1.9761 N   0  0  0  0  0  0  0  0  0  0  0  0
    3.9505    0.7140    0.8326 N   0  0  0  0  0  0  0  0  0  0  0  0
    6.2495    0.7497    0.6128 N   0  0  0  0  0  0  0  0  0  0  0  0
   -2.2840   -0.1463   -0.6142 C   0  0  0  0  0  0  0  0  0  0  0  0
   -3.6246   -0.5070   -0.6917 C   0  0  0  0  0  0  0  0  0  0  0  0
   -1.4882   -0.6729    0.4167 C   0  0  0  0  0  0  0  0  0  0  0  0
   -4.2325   -1.3785    0.2146 C   0  0  0  0  0  0  0  0  0  0  0  0
   -7.8049   -1.8404    0.9325 C   0  0  0  0  0  0  0  0  0  0  0  0
   -8.4036   -1.1450   -0.2920 C   0  0  0  0  0  0  0  0  0  0  0  0
   -6.3781   -1.4008    1.2399 C   0  0  0  0  0  0  0  0  0  0  0  0
   -0.0936   -0.3173    0.5234 C   0  0  0  0  0  0  0  0  0  0  0  0
   -2.0783   -1.5490    1.3363 C   0  0  0  0  0  0  0  0  0  0  0  0
   -2.0945    0.7318   -1.7029 C   0  0  0  0  0  0  0  0  0  0  0  0
   -3.4272   -1.8945    1.2353 C   0  0  0  0  0  0  0  0  0  0  0  0
    0.8731   -1.0820   -0.1296 C   0  0  0  0  0  0  0  0  0  0  0  0
    0.2877    0.7914    1.2792 C   0  0  0  0  0  0  0  0  0  0  0  0
    2.6022    0.3702    0.7295 C   0  0  0  0  0  0  0  0  0  0  0  0
   -9.2608    0.9604    0.8773 C   0  0  0  0  0  0  0  0  0  0  0  0
   -8.0237    1.2934   -0.9595 C   0  0  0  0  0  0  0  0  0  0  0  0
    2.2210   -0.7383   -0.0265 C   0  0  0  0  0  0  0  0  0  0  0  0
    1.6356    1.1351    1.3823 C   0  0  0  0  0  0  0  0  0  0  0  0
   -9.1692    2.3211    0.6841 C   0  0  0  0  0  0  0  0  0  0  0  0
   -8.3864    2.5317   -0.4780 C   0  0  0  0  0  0  0  0  0  0  0  0
    5.0727    0.0737    0.2526 C   0  0  0  0  0  0  0  0  0  0  0  0
    7.5801    0.4376    0.2465 C   0  0  0  0  0  0  0  0  0  0  0  0
    7.8360   -0.6624   -0.5720 C   0  0  0  0  0  0  0  0  0  0  0  0
    9.1468   -0.9718   -0.9350 C   0  0  0  0  0  0  0  0  0  0  0  0
    8.6350    1.2283    0.7019 C   0  0  0  0  0  0  0  0  0  0  0  0
   10.2018   -0.1809   -0.4795 C   0  0  0  0  0  0  0  0  0  0  0  0
    9.9459    0.9191    0.3389 C   0  0  0  0  0  0  0  0  0  0  0  0
    9.4211   -2.1483   -1.8100 C   0  0  0  0  0  0  0  0  0  0  0  0
   -8.4323   -1.6686    1.8141 H   0  0  0  0  0  0  0  0  0  0  0  0
   -7.8089   -2.9196    0.7364 H   0  0  0  0  0  0  0  0  0  0  0  0
   -7.7957   -1.2965   -1.1903 H   0  0  0  0  0  0  0  0  0  0  0  0
   -9.4176   -1.5097   -0.4910 H   0  0  0  0  0  0  0  0  0  0  0  0
   -6.3312   -0.3243    1.4411 H   0  0  0  0  0  0  0  0  0  0  0  0
   -6.0376   -1.9356    2.1336 H   0  0  0  0  0  0  0  0  0  0  0  0
   -1.4881   -1.9769    2.1445 H   0  0  0  0  0  0  0  0  0  0  0  0
   -3.8395   -2.5903    1.9621 H   0  0  0  0  0  0  0  0  0  0  0  0
   -5.0590    0.1383   -2.1463 H   0  0  0  0  0  0  0  0  0  0  0  0
    0.5915   -1.9488   -0.7233 H   0  0  0  0  0  0  0  0  0  0  0  0
   -0.4532    1.3987    1.7938 H   0  0  0  0  0  0  0  0  0  0  0  0
   -9.7694    0.3872    1.6403 H   0  0  0  0  0  0  0  0  0  0  0  0
   -7.4317    1.0137   -1.8202 H   0  0  0  0  0  0  0  0  0  0  0  0
    2.9069   -1.3796   -0.5611 H   0  0  0  0  0  0  0  0  0  0  0  0
    1.9184    2.0017    1.9744 H   0  0  0  0  0  0  0  0  0  0  0  0
   -0.7877    1.9403   -2.7666 H   0  0  0  0  0  0  0  0  0  0  0  0
   -0.0490    1.1728   -1.4394 H   0  0  0  0  0  0  0  0  0  0  0  0
   -9.6189    3.0779    1.3113 H   0  0  0  0  0  0  0  0  0  0  0  0
   -8.1164    3.4819   -0.9169 H   0  0  0  0  0  0  0  0  0  0  0  0
    4.1502    1.5338    1.4004 H   0  0  0  0  0  0  0  0  0  0  0  0
    6.1451    1.5658    1.2106 H   0  0  0  0  0  0  0  0  0  0  0  0
    7.0682   -1.3173   -0.9585 H   0  0  0  0  0  0  0  0  0  0  0  0
   11.2281   -0.4107   -0.7530 H   0  0  0  0  0  0  0  0  0  0  0  0
   10.7670    1.5348    0.6941 H   0  0  0  0  0  0  0  0  0  0  0  0
   10.4384   -2.1231   -2.2151 H   0  0  0  0  0  0  0  0  0  0  0  0
    8.7341   -2.1631   -2.6628 H   0  0  0  0  0  0  0  0  0  0  0  0
    9.3028   -3.0760   -1.2411 H   0  0  0  0  0  0  0  0  0  0  0  0
  1 34  1  0  0  0  0
  2 13  1  0  0  0  0
  2 16  1  0  0  0  0
  3 30  2  0  0  0  0
  4  6  1  0  0  0  0
  4 11  1  0  0  0  0
  4 46  1  0  0  0  0
  5 15  1  0  0  0  0
  5 24  1  0  0  0  0
  5 25  1  0  0  0  0
  6 19  2  0  0  0  0
  7 19  1  0  0  0  0
  7 53  1  0  0  0  0
  7 54  1  0  0  0  0
  8 23  1  0  0  0  0
  8 30  1  0  0  0  0
  8 57  1  0  0  0  0
  9 30  1  0  0  0  0
  9 31  1  0  0  0  0
  9 58  1  0  0  0  0
 10 11  1  0  0  0  0
 10 12  2  0  0  0  0
 10 19  1  0  0  0  0
 11 13  2  0  0  0  0
 12 17  1  0  0  0  0
 12 18  1  0  0  0  0
 13 20  1  0  0  0  0
 14 15  1  0  0  0  0
 14 16  1  0  0  0  0
 14 38  1  0  0  0  0
 14 39  1  0  0  0  0
 15 40  1  0  0  0  0
 15 41  1  0  0  0  0
 16 42  1  0  0  0  0
 16 43  1  0  0  0  0
 17 21  2  0  0  0  0
 17 22  1  0  0  0  0
 18 20  2  0  0  0  0
 18 44  1  0  0  0  0
 20 45  1  0  0  0  0
 21 26  1  0  0  0  0
 21 47  1  0  0  0  0
 22 27  2  0  0  0  0
 22 48  1  0  0  0  0
 23 26  2  0  0  0  0
 23 27  1  0  0  0  0
 24 28  2  0  0  0  0
 24 49  1  0  0  0  0
 25 29  2  0  0  0  0
 25 50  1  0  0  0  0
 26 51  1  0  0  0  0
 27 52  1  0  0  0  0
 28 29  1  0  0  0  0
 28 55  1  0  0  0  0
 29 56  1  0  0  0  0
 31 32  1  0  0  0  0
 31 34  2  0  0  0  0
 32 33  2  0  0  0  0
 32 59  1  0  0  0  0
 33 35  1  0  0  0  0
 33 37  1  0  0  0  0
 34 36  1  0  0  0  0
 35 36  2  0  0  0  0
 35 60  1  0  0  0  0
 36 61  1  0  0  0  0
 37 62  1  0  0  0  0
 37 63  1  0  0  0  0
 37 64  1  0  0  0  0
M  END
> <PUBCHEM_COMPOUND_CID>
49830908

> <PUBCHEM_CONFORMER_RMSD>
1

> <PUBCHEM_CONFORMER_DIVERSEORDER>
2
42
156
70
123
61
87
121
75
141
126
162
107
81
164
77
13
63
149
68
137
154
155
127
55
138
98
112
157
33
28
132
34
133
139
43
136
73
105
83
45
117
119
50
159
92
79
122
1
111
108
101
106
96
84
94
91
89
52
140
65
12
125
131
165
104
66
93
102
129
152
36
153
53
27
147
135
60
4
48
163
71
69
120
148
144
88
128
97
90
115
21
47
26
64
25
146
116
151
16
76
3
95
143
72
150
62
6
118
114
29
130
7
99
11
103
166
49
20
15
110
35
142
145
78
46
74
57
24
39
14
109
40
160
19
17
59
134
32
41
5
22
54
113
80
51
100
44
10
124
85
38
31
82
158
58
56
67
161
86
18
23
30
37
8
9

> <PUBCHEM_MMFF94_PARTIAL_CHARGES>
51
1 -0.19
11 -0.15
13 0.08
15 0.26
16 0.28
18 -0.15
19 0.37
2 -0.36
20 -0.15
21 -0.15
22 -0.15
23 0.12
24 -0.3
25 -0.3
26 -0.15
27 -0.15
28 -0.15
29 -0.15
3 -0.57
30 0.69
31 0.12
32 -0.15
33 -0.14
34 0.19
35 -0.15
36 -0.15
37 0.14
4 0.3
44 0.15
45 0.15
46 0.27
47 0.15
48 0.15
49 0.15
5 0.05
50 0.15
51 0.15
52 0.15
53 0.4
54 0.4
55 0.15
56 0.15
57 0.37
58 0.37
59 0.15
6 -0.71
60 0.15
61 0.15
7 -0.88
8 -0.55
9 -0.55

> <PUBCHEM_EFFECTIVE_ROTOR_COUNT>
10

> <PUBCHEM_PHARMACOPHORE_FEATURES>
13
1 2 acceptor
1 3 acceptor
1 4 donor
1 5 cation
1 7 donor
1 8 donor
1 9 donor
3 6 7 19 cation
5 4 6 10 11 19 rings
5 5 24 25 28 29 rings
6 10 11 12 13 18 20 rings
6 17 21 22 23 26 27 rings
6 31 32 33 34 35 36 rings

> <PUBCHEM_HEAVY_ATOM_COUNT>
37

> <PUBCHEM_ATOM_DEF_STEREO_COUNT>
0

> <PUBCHEM_ATOM_UDEF_STEREO_COUNT>
0

> <PUBCHEM_BOND_DEF_STEREO_COUNT>
0

> <PUBCHEM_BOND_UDEF_STEREO_COUNT>
0

> <PUBCHEM_ISOTOPIC_ATOM_COUNT>
0

> <PUBCHEM_COMPONENT_COUNT>
1

> <PUBCHEM_CACTVS_TAUTO_COUNT>
124

> <PUBCHEM_CONFORMER_ID>
02F85BFC00000002

> <PUBCHEM_MMFF94_ENERGY>
101.2228

> <PUBCHEM_FEATURE_SELFOVERLAP>
66.113

> <PUBCHEM_SHAPE_FINGERPRINT>
10076449 9 18040716991098423441
10162869 55 13326852236695583664
10165383 225 18261109660839033667
10577160 183 15769774633472708309
10580692 12 18409167706555729539
10674148 151 18187645820987666393
11146346 60 15936674983858029797
12089408 11 16081084905089386858
12104220 1 18261107457990841989
13553644 42 18265051341691242966
14118638 360 17385998452219038682
15064986 266 18271246006437249733
15065858 18 18202282520177754498
15392192 104 13479131277492042832
15419008 47 18334287700455763940
15510794 2 18342177765251184150
17686467 74 8718829773674560723
20721686 146 18270398271290073933
21026386 80 17988927734398748047
21781055 127 17531538598194217406
21792961 116 17988926639039662241
21792965 68 17917160408512504105
24771293 8 18113336397830943471
335352 9 13902189300472833483
4017518 198 18409448116286612019
4173938 188 10809352151865374532
4353968 344 13326855509972483531
44280117 145 18192713564464572383
4625314 4 18342738563357275258
5028188 123 18261393390404951855
59521660 218 16773524265583193471

> <PUBCHEM_SHAPE_MULTIPOLES>
712.54
39.57
2.08
1.58
38.79
0.23
-0.55
7.74
-1.6
-2.89
0.23
-0.18
0.21
3.8

> <PUBCHEM_SHAPE_SELFOVERLAP>
1567.579

> <PUBCHEM_SHAPE_VOLUME>
386.7

> <PUBCHEM_COORDINATE_TYPE>
2
5
10

$$$$
