25165082
  -OEChem-10052115183D

 25 27  0     0  0  0  0  0  0999 V2000
   -1.6421   -1.2471    0.1424 O   0  0  0  0  0  0  0  0  0  0  0  0
   -5.4620    0.1107   -0.9700 O   0  0  0  0  0  0  0  0  0  0  0  0
    4.2756    0.5549   -0.1058 N   0  0  0  0  0  0  0  0  0  0  0  0
    4.7176   -0.7135   -0.1385 N   0  0  0  0  0  0  0  0  0  0  0  0
   -3.0295   -1.2911    0.2041 N   0  0  0  0  0  0  0  0  0  0  0  0
    0.1929    0.2542    0.0752 C   0  0  0  0  0  0  0  0  0  0  0  0
    2.4329   -0.6318   -0.0345 C   0  0  0  0  0  0  0  0  0  0  0  0
    2.9133    0.6729   -0.0431 C   0  0  0  0  0  0  0  0  0  0  0  0
    1.0471   -0.8545    0.0257 C   0  0  0  0  0  0  0  0  0  0  0  0
   -1.2345    0.0479    0.1373 C   0  0  0  0  0  0  0  0  0  0  0  0
    0.7023    1.5541    0.0652 C   0  0  0  0  0  0  0  0  0  0  0  0
    2.0793    1.7920    0.0055 C   0  0  0  0  0  0  0  0  0  0  0  0
   -2.3252    0.8746    0.1947 C   0  0  0  0  0  0  0  0  0  0  0  0
    3.5938   -1.4324   -0.0950 C   0  0  0  0  0  0  0  0  0  0  0  0
   -3.4150   -0.0122    0.2345 C   0  0  0  0  0  0  0  0  0  0  0  0
   -4.8465    0.3213    0.3024 C   0  0  0  0  0  0  0  0  0  0  0  0
    0.6791   -1.8760    0.0320 H   0  0  0  0  0  0  0  0  0  0  0  0
    0.0428    2.4185    0.1035 H   0  0  0  0  0  0  0  0  0  0  0  0
    2.4770    2.8006   -0.0024 H   0  0  0  0  0  0  0  0  0  0  0  0
   -2.3417    1.9547    0.2063 H   0  0  0  0  0  0  0  0  0  0  0  0
    3.6656   -2.5108   -0.1091 H   0  0  0  0  0  0  0  0  0  0  0  0
    4.9603    1.3002   -0.1293 H   0  0  0  0  0  0  0  0  0  0  0  0
   -5.3593   -0.3043    1.0409 H   0  0  0  0  0  0  0  0  0  0  0  0
   -4.9938    1.3697    0.5818 H   0  0  0  0  0  0  0  0  0  0  0  0
   -6.4012    0.3432   -0.8722 H   0  0  0  0  0  0  0  0  0  0  0  0
  1  5  1  0  0  0  0
  1 10  1  0  0  0  0
  2 16  1  0  0  0  0
  2 25  1  0  0  0  0
  3  4  1  0  0  0  0
  3  8  1  0  0  0  0
  3 22  1  0  0  0  0
  4 14  2  0  0  0  0
  5 15  2  0  0  0  0
  6  9  2  0  0  0  0
  6 10  1  0  0  0  0
  6 11  1  0  0  0  0
  7  8  2  0  0  0  0
  7  9  1  0  0  0  0
  7 14  1  0  0  0  0
  8 12  1  0  0  0  0
  9 17  1  0  0  0  0
 10 13  2  0  0  0  0
 11 12  2  0  0  0  0
 11 18  1  0  0  0  0
 12 19  1  0  0  0  0
 13 15  1  0  0  0  0
 13 20  1  0  0  0  0
 14 21  1  0  0  0  0
 15 16  1  0  0  0  0
 16 23  1  0  0  0  0
 16 24  1  0  0  0  0
M  END
> <PUBCHEM_COMPOUND_CID>
25165082

> <PUBCHEM_CONFORMER_RMSD>
0.6

> <PUBCHEM_CONFORMER_DIVERSEORDER>
1
5
3
6
4
2

> <PUBCHEM_MMFF94_PARTIAL_CHARGES>
22
1 -0.02
10 0.09
11 -0.15
12 -0.15
13 -0.15
14 0.14
15 0.11
16 0.46
17 0.15
18 0.15
19 0.15
2 -0.68
20 0.15
21 0.15
22 0.27
25 0.4
3 0.3
4 -0.71
5 -0.41
6 0.05
8 -0.15
9 -0.15

> <PUBCHEM_EFFECTIVE_ROTOR_COUNT>
2

> <PUBCHEM_PHARMACOPHORE_FEATURES>
8
1 2 acceptor
1 2 donor
1 3 donor
1 4 acceptor
1 5 acceptor
5 1 5 10 13 15 rings
5 3 4 7 8 14 rings
6 6 7 8 9 11 12 rings

> <PUBCHEM_HEAVY_ATOM_COUNT>
16

> <PUBCHEM_ATOM_DEF_STEREO_COUNT>
0

> <PUBCHEM_ATOM_UDEF_STEREO_COUNT>
0

> <PUBCHEM_BOND_DEF_STEREO_COUNT>
0

> <PUBCHEM_BOND_UDEF_STEREO_COUNT>
0

> <PUBCHEM_ISOTOPIC_ATOM_COUNT>
0

> <PUBCHEM_COMPONENT_COUNT>
1

> <PUBCHEM_CACTVS_TAUTO_COUNT>
3

> <PUBCHEM_CONFORMER_ID>
017FFD1A00000001

> <PUBCHEM_MMFF94_ENERGY>
22.9591

> <PUBCHEM_FEATURE_SELFOVERLAP>
40.688

> <PUBCHEM_SHAPE_FINGERPRINT>
11401426 45 18411697698946320458
11471102 20 18410573993957761036
12032990 46 18411706456912203062
12236239 1 17632577145397107197
124424 183 18409169913424815697
12555020 224 18411693284374568399
13571099 22 18412547617224169448
13690532 89 18413108338179085467
13862211 1 18339640049480480182
14115302 16 17822305594826229990
14252887 29 18060147505335643774
14911166 2 18407758127594077079
15099037 51 18410009923276383879
15196674 1 18338518641697641291
15242433 33 18408889542170498910
15242439 84 18113617880875147675
15442244 35 18340211773856733232
15536298 74 18343022228851625104
17802600 8 18411134727729461921
17834072 33 18272930565898978623
18186145 218 17676762158304526763
18522853 276 18343303660525306472
200 152 17989202651382338053
20645477 70 18412263917428311662
21267235 1 18339654368500284618
21501925 9 18413669106568779824
221490 88 18191596452023251298
22485316 2 18410011048209694714
23402539 116 17989202617123177293
23402655 69 18411419522541539877
23463225 33 18411422808523720156
23559900 14 18341047518805666120
26918003 58 18408885143944529554
2871803 45 18261392209161974618
29717793 49 17846499214519299269
34934 24 18340199786956249394
3545911 37 18410577305219251753
42 15 18409172107894615097
4214541 1 18410857642525683033
5104073 3 18339082691247009403
522135 26 18334576841283550156
633830 44 17240761838990738905
69090 78 18342454850776411023
7364860 26 18270400624130337600
77779 3 18409452513614392609
8809292 202 18260555553548340506
9709674 26 18339088180205312787
9981440 41 17474664434992152800

> <PUBCHEM_SHAPE_MULTIPOLES>
302.59
9.86
1.48
0.65
6.04
0.19
0.03
-1.18
1.09
-0.89
-0.03
0.3
0.01
0.05

> <PUBCHEM_SHAPE_SELFOVERLAP>
675.444

> <PUBCHEM_SHAPE_VOLUME>
164

> <PUBCHEM_COORDINATE_TYPE>
2
5
10

$$$$
