44340969
  -OEChem-10062121583D

 71 77  0     1  0  0  0  0  0999 V2000
   -3.9506   -1.2405    0.7569 O   0  0  0  0  0  0  0  0  0  0  0  0
   -3.0301    1.0574   -1.9731 O   0  0  0  0  0  0  0  0  0  0  0  0
   -5.1913    1.8014   -0.4148 O   0  0  0  0  0  0  0  0  0  0  0  0
   -7.3162    0.0207   -0.0065 O   0  0  0  0  0  0  0  0  0  0  0  0
   -5.2452   -2.0895    3.0245 O   0  0  0  0  0  0  0  0  0  0  0  0
    3.3951   -2.6800   -0.7575 O   0  0  0  0  0  0  0  0  0  0  0  0
    4.1723    1.8772   -0.3509 O   0  0  0  0  0  0  0  0  0  0  0  0
   -0.8054    6.6587    0.5631 O   0  0  0  0  0  0  0  0  0  0  0  0
    7.7977    0.7719    0.0096 O   0  0  0  0  0  0  0  0  0  0  0  0
    6.4673   -2.4916    2.3393 O   0  0  0  0  0  0  0  0  0  0  0  0
   -1.7693   -0.9086   -0.1399 N   0  0  0  0  0  0  0  0  0  0  0  0
   -1.3039    1.8233    0.1043 N   0  0  0  0  0  0  0  0  0  0  0  0
    4.1643   -0.4631   -0.5928 N   0  0  0  0  0  0  0  0  0  0  0  0
    5.5132   -0.6808   -0.7288 N   0  0  0  0  0  0  0  0  0  0  0  0
   -3.1450   -0.2964    0.0382 C   0  0  1  0  0  0  0  0  0  0  0  0
   -3.7956    0.0543   -1.3127 C   0  0  1  0  0  0  0  0  0  0  0  0
   -0.5119   -0.4142   -0.1943 C   0  0  0  0  0  0  0  0  0  0  0  0
   -5.2297    0.5514   -1.1094 C   0  0  1  0  0  0  0  0  0  0  0  0
   -6.0103   -0.4709   -0.2807 C   0  0  1  0  0  0  0  0  0  0  0  0
   -5.2746   -0.7726    1.0316 C   0  0  1  0  0  0  0  0  0  0  0  0
    0.6419   -1.2479   -0.3777 C   0  0  0  0  0  0  0  0  0  0  0  0
   -1.5244   -2.2640   -0.3011 C   0  0  0  0  0  0  0  0  0  0  0  0
   -0.2778    0.9604   -0.0714 C   0  0  0  0  0  0  0  0  0  0  0  0
   -0.1166   -2.5058   -0.4444 C   0  0  0  0  0  0  0  0  0  0  0  0
    1.9618   -0.8096   -0.4432 C   0  0  0  0  0  0  0  0  0  0  0  0
    1.0907    1.3872   -0.1423 C   0  0  0  0  0  0  0  0  0  0  0  0
    2.1945    0.5577   -0.3211 C   0  0  0  0  0  0  0  0  0  0  0  0
    0.7901    2.8159    0.0308 C   0  0  0  0  0  0  0  0  0  0  0  0
   -5.9824   -1.8570    1.8382 C   0  0  0  0  0  0  0  0  0  0  0  0
   -0.6226    3.0294    0.1718 C   0  0  0  0  0  0  0  0  0  0  0  0
    3.2408   -1.4826   -0.6207 C   0  0  0  0  0  0  0  0  0  0  0  0
   -2.4603   -3.3092   -0.3308 C   0  0  0  0  0  0  0  0  0  0  0  0
    3.6281    0.7929   -0.4175 C   0  0  0  0  0  0  0  0  0  0  0  0
    0.2930   -3.8500   -0.6180 C   0  0  0  0  0  0  0  0  0  0  0  0
   -2.0036   -4.6162   -0.5047 C   0  0  0  0  0  0  0  0  0  0  0  0
   -0.6486   -4.8845   -0.6462 C   0  0  0  0  0  0  0  0  0  0  0  0
    1.6236    3.9595    0.0788 C   0  0  0  0  0  0  0  0  0  0  0  0
   -1.1617    4.3126    0.3498 C   0  0  0  0  0  0  0  0  0  0  0  0
    6.1259   -0.8727    0.5789 C   0  0  0  0  0  0  0  0  0  0  0  0
    1.0755    5.2345    0.2567 C   0  0  0  0  0  0  0  0  0  0  0  0
   -0.2960    5.4061    0.3899 C   0  0  0  0  0  0  0  0  0  0  0  0
    7.6186   -0.5579    0.4813 C   0  0  0  0  0  0  0  0  0  0  0  0
    5.8787   -2.3071    1.0568 C   0  0  0  0  0  0  0  0  0  0  0  0
   -3.0394    0.4921    0.7746 H   0  0  0  0  0  0  0  0  0  0  0  0
   -3.8139   -0.8351   -1.9548 H   0  0  0  0  0  0  0  0  0  0  0  0
   -5.7227    0.7479   -2.0671 H   0  0  0  0  0  0  0  0  0  0  0  0
   -6.1101   -1.3954   -0.8636 H   0  0  0  0  0  0  0  0  0  0  0  0
   -5.2064    0.1151    1.6729 H   0  0  0  0  0  0  0  0  0  0  0  0
   -6.0188   -2.7977    1.2786 H   0  0  0  0  0  0  0  0  0  0  0  0
   -6.9990   -1.5574    2.1096 H   0  0  0  0  0  0  0  0  0  0  0  0
   -2.2944    1.7640   -0.0102 H   0  0  0  0  0  0  0  0  0  0  0  0
   -3.5310   -3.1571   -0.2795 H   0  0  0  0  0  0  0  0  0  0  0  0
    1.3429   -4.0995   -0.7325 H   0  0  0  0  0  0  0  0  0  0  0  0
   -3.4730    1.2564   -2.8155 H   0  0  0  0  0  0  0  0  0  0  0  0
   -4.7003    1.7058    0.4152 H   0  0  0  0  0  0  0  0  0  0  0  0
   -7.7452    0.2043   -0.8596 H   0  0  0  0  0  0  0  0  0  0  0  0
   -2.7198   -5.4330   -0.5418 H   0  0  0  0  0  0  0  0  0  0  0  0
   -0.3134   -5.9091   -0.7835 H   0  0  0  0  0  0  0  0  0  0  0  0
    2.7000    3.8657   -0.0214 H   0  0  0  0  0  0  0  0  0  0  0  0
   -2.2352    4.4447    0.4536 H   0  0  0  0  0  0  0  0  0  0  0  0
    5.9089    0.1425   -1.1825 H   0  0  0  0  0  0  0  0  0  0  0  0
    5.7107   -0.1645    1.3103 H   0  0  0  0  0  0  0  0  0  0  0  0
   -5.7095   -2.7863    3.5190 H   0  0  0  0  0  0  0  0  0  0  0  0
    1.7387    6.0955    0.2900 H   0  0  0  0  0  0  0  0  0  0  0  0
    8.1257   -1.2405   -0.2100 H   0  0  0  0  0  0  0  0  0  0  0  0
    8.1008   -0.6361    1.4613 H   0  0  0  0  0  0  0  0  0  0  0  0
    4.8171   -2.5181    1.1897 H   0  0  0  0  0  0  0  0  0  0  0  0
    6.3088   -3.0421    0.3677 H   0  0  0  0  0  0  0  0  0  0  0  0
   -1.7734    6.5985    0.6384 H   0  0  0  0  0  0  0  0  0  0  0  0
    8.7558    0.9315   -0.0368 H   0  0  0  0  0  0  0  0  0  0  0  0
    6.2972   -3.4123    2.6023 H   0  0  0  0  0  0  0  0  0  0  0  0
  1 15  1  0  0  0  0
  1 20  1  0  0  0  0
  2 16  1  0  0  0  0
  2 54  1  0  0  0  0
  3 18  1  0  0  0  0
  3 55  1  0  0  0  0
  4 19  1  0  0  0  0
  4 56  1  0  0  0  0
  5 29  1  0  0  0  0
  5 63  1  0  0  0  0
  6 31  2  0  0  0  0
  7 33  2  0  0  0  0
  8 41  1  0  0  0  0
  8 69  1  0  0  0  0
  9 42  1  0  0  0  0
  9 70  1  0  0  0  0
 10 43  1  0  0  0  0
 10 71  1  0  0  0  0
 11 15  1  0  0  0  0
 11 17  1  0  0  0  0
 11 22  1  0  0  0  0
 12 23  1  0  0  0  0
 12 30  1  0  0  0  0
 12 51  1  0  0  0  0
 13 14  1  0  0  0  0
 13 31  1  0  0  0  0
 13 33  1  0  0  0  0
 14 39  1  0  0  0  0
 14 61  1  0  0  0  0
 15 16  1  0  0  0  0
 15 44  1  0  0  0  0
 16 18  1  0  0  0  0
 16 45  1  0  0  0  0
 17 21  1  0  0  0  0
 17 23  2  0  0  0  0
 18 19  1  0  0  0  0
 18 46  1  0  0  0  0
 19 20  1  0  0  0  0
 19 47  1  0  0  0  0
 20 29  1  0  0  0  0
 20 48  1  0  0  0  0
 21 24  1  0  0  0  0
 21 25  2  0  0  0  0
 22 24  1  0  0  0  0
 22 32  2  0  0  0  0
 23 26  1  0  0  0  0
 24 34  2  0  0  0  0
 25 27  1  0  0  0  0
 25 31  1  0  0  0  0
 26 27  2  0  0  0  0
 26 28  1  0  0  0  0
 27 33  1  0  0  0  0
 28 30  2  0  0  0  0
 28 37  1  0  0  0  0
 29 49  1  0  0  0  0
 29 50  1  0  0  0  0
 30 38  1  0  0  0  0
 32 35  1  0  0  0  0
 32 52  1  0  0  0  0
 34 36  1  0  0  0  0
 34 53  1  0  0  0  0
 35 36  2  0  0  0  0
 35 57  1  0  0  0  0
 36 58  1  0  0  0  0
 37 40  2  0  0  0  0
 37 59  1  0  0  0  0
 38 41  2  0  0  0  0
 38 60  1  0  0  0  0
 39 42  1  0  0  0  0
 39 43  1  0  0  0  0
 39 62  1  0  0  0  0
 40 41  1  0  0  0  0
 40 64  1  0  0  0  0
 42 65  1  0  0  0  0
 42 66  1  0  0  0  0
 43 67  1  0  0  0  0
 43 68  1  0  0  0  0
M  END
> <PUBCHEM_COMPOUND_CID>
44340969

> <PUBCHEM_CONFORMER_RMSD>
1

> <PUBCHEM_CONFORMER_DIVERSEORDER>
2
22
24
17
14
9
26
18
25
12
19
20
3
10
8
23
11
13
21
5
1
16
7
15
6
4

> <PUBCHEM_MMFF94_PARTIAL_CHARGES>
57
1 -0.56
10 -0.68
11 -0.04
12 -0.05
13 -0.11
14 -0.64
15 0.54
16 0.28
17 -0.05
18 0.28
19 0.28
2 -0.68
20 0.28
21 -0.01
22 -0.15
23 -0.05
25 0.09
26 -0.01
27 0.09
29 0.28
3 -0.68
30 -0.15
31 0.54
32 -0.15
33 0.54
34 -0.15
35 -0.15
36 -0.15
37 -0.15
38 -0.15
39 0.27
4 -0.68
40 -0.15
41 0.08
42 0.28
43 0.28
5 -0.68
51 0.27
52 0.15
53 0.15
54 0.4
55 0.4
56 0.4
57 0.15
58 0.15
59 0.15
6 -0.57
60 0.15
61 0.36
63 0.4
64 0.15
69 0.45
7 -0.57
70 0.4
71 0.4
8 -0.53
9 -0.68

> <PUBCHEM_EFFECTIVE_ROTOR_COUNT>
7.4

> <PUBCHEM_PHARMACOPHORE_FEATURES>
27
1 1 acceptor
1 10 acceptor
1 10 donor
1 11 cation
1 12 cation
1 12 donor
1 14 donor
1 2 acceptor
1 2 donor
1 3 acceptor
1 3 donor
1 4 acceptor
1 4 donor
1 5 acceptor
1 5 donor
1 6 acceptor
1 7 acceptor
1 8 donor
1 9 acceptor
1 9 donor
5 11 17 21 22 24 rings
5 12 23 26 28 30 rings
5 13 25 27 31 33 rings
6 1 15 16 18 19 20 rings
6 17 21 23 25 26 27 rings
6 22 24 32 34 35 36 rings
6 28 30 37 38 40 41 rings

> <PUBCHEM_HEAVY_ATOM_COUNT>
43

> <PUBCHEM_ATOM_DEF_STEREO_COUNT>
0

> <PUBCHEM_ATOM_UDEF_STEREO_COUNT>
5

> <PUBCHEM_BOND_DEF_STEREO_COUNT>
0

> <PUBCHEM_BOND_UDEF_STEREO_COUNT>
0

> <PUBCHEM_ISOTOPIC_ATOM_COUNT>
0

> <PUBCHEM_COMPONENT_COUNT>
1

> <PUBCHEM_CACTVS_TAUTO_COUNT>
29

> <PUBCHEM_CONFORMER_ID>
02A496E900000002

> <PUBCHEM_MMFF94_ENERGY>
162.4456

> <PUBCHEM_FEATURE_SELFOVERLAP>
137.541

> <PUBCHEM_SHAPE_FINGERPRINT>
10050765 1 17979917434346807023
102385 1 17764585817093067047
10675989 125 17181645175338593069
10930396 42 18126253468891986194
1100329 8 18339924934265338303
11456790 92 18262248750949405377
12058002 1 17199991922121374391
12788726 201 18335704893348862106
13140716 1 18410564115712776550
13782708 43 17821729468034795259
13911987 19 18337097982828375951
14028597 1 17895747384225855834
140371 6 18341621421015330596
14068700 675 18060696213214805273
14068700 686 18055632820176155934
14117953 113 18342179959989840470
14394314 77 18411417341035945674
14790565 3 18412271605767976589
14937079 2 18339924913186582301
14955137 171 18408889563682037937
15131766 46 14619357915476170546
15320467 1 18412266108389101301
15324884 4 17824526699363395021
15439362 3 18197209468106796805
15684970 41 18191004893551180466
15815584 197 18269573654047608287
15927050 60 17836651094679723148
16087824 20 18339927018052905773
16728300 4 17752465582867299970
18681886 176 18341041995572662515
19301679 30 18337954459769776826
19841028 212 17313657137285171266
20642791 105 18194674866144749496
20775438 99 17191176192788284519
21796203 349 18120403027143729763
22223350 30 18057032730090453754
22311459 1 18412543207157841974
23559900 14 18197771300977720432
24771293 8 18131636681293630523
24771750 20 17975992173498676988
283562 15 18198058084259741349
3178227 256 18337966653234210059
335352 9 18411699919645126430
42626532 9 16662073532307077353
469060 322 18269850726128640881
6004065 56 18341885316780582639
6086070 43 18265031678876911143
653340 110 18124874560814182456
9896288 288 18049438146164773714

> <PUBCHEM_SHAPE_MULTIPOLES>
806.3
14.99
7.35
1.28
10.08
8.95
0.75
-8.28
4.98
-0.49
0.62
-1.12
-0.86
0.19

> <PUBCHEM_SHAPE_SELFOVERLAP>
1817.839

> <PUBCHEM_SHAPE_VOLUME>
421.3

> <PUBCHEM_COORDINATE_TYPE>
2
5
10

$$$$
