49831025
  -OEChem-10052115183D

 26 27  0     0  0  0  0  0  0999 V2000
    1.5674    2.2892   -0.5301 Cl  0  0  0  0  0  0  0  0  0  0  0  0
    4.5725    1.2113   -0.1246 Cl  0  0  0  0  0  0  0  0  0  0  0  0
   -0.4029   -2.5247    0.1966 S   0  0  0  0  0  0  0  0  0  0  0  0
   -3.5656   -0.3688   -0.4304 O   0  0  0  0  0  0  0  0  0  0  0  0
   -1.6287    2.1053    1.6097 O   0  0  0  0  0  0  0  0  0  0  0  0
   -1.2224    1.1986   -0.5312 N   0  0  0  0  0  0  0  0  0  0  0  0
   -3.3205   -2.6066    0.0062 N   0  0  0  0  0  0  0  0  0  0  0  0
    0.7954   -0.2565   -0.1274 C   0  0  0  0  0  0  0  0  0  0  0  0
   -0.6127   -0.0164   -0.2697 C   0  0  0  0  0  0  0  0  0  0  0  0
    1.0547   -1.6056    0.1333 C   0  0  0  0  0  0  0  0  0  0  0  0
   -1.3676   -1.1550   -0.1178 C   0  0  0  0  0  0  0  0  0  0  0  0
    1.8942    0.6327   -0.2097 C   0  0  0  0  0  0  0  0  0  0  0  0
    2.3686   -2.0821    0.3110 C   0  0  0  0  0  0  0  0  0  0  0  0
    3.1986    0.1634   -0.0333 C   0  0  0  0  0  0  0  0  0  0  0  0
    3.4309   -1.1804    0.2240 C   0  0  0  0  0  0  0  0  0  0  0  0
   -2.7852   -1.3235   -0.1871 C   0  0  0  0  0  0  0  0  0  0  0  0
   -1.6843    2.1621    0.3856 C   0  0  0  0  0  0  0  0  0  0  0  0
   -2.2924    3.3571   -0.3051 C   0  0  0  0  0  0  0  0  0  0  0  0
    2.5596   -3.1323    0.5130 H   0  0  0  0  0  0  0  0  0  0  0  0
   -1.1628    1.4856   -1.5057 H   0  0  0  0  0  0  0  0  0  0  0  0
    4.4428   -1.5548    0.3624 H   0  0  0  0  0  0  0  0  0  0  0  0
   -2.8888    3.0414   -1.1660 H   0  0  0  0  0  0  0  0  0  0  0  0
   -1.4945    4.0249   -0.6405 H   0  0  0  0  0  0  0  0  0  0  0  0
   -2.9441    3.8916    0.3915 H   0  0  0  0  0  0  0  0  0  0  0  0
   -2.7335   -3.4121    0.1982 H   0  0  0  0  0  0  0  0  0  0  0  0
   -4.3213   -2.7657   -0.0416 H   0  0  0  0  0  0  0  0  0  0  0  0
  1 12  1  0  0  0  0
  2 14  1  0  0  0  0
  3 10  1  0  0  0  0
  3 11  1  0  0  0  0
  4 16  2  0  0  0  0
  5 17  2  0  0  0  0
  6  9  1  0  0  0  0
  6 17  1  0  0  0  0
  6 20  1  0  0  0  0
  7 16  1  0  0  0  0
  7 25  1  0  0  0  0
  7 26  1  0  0  0  0
  8  9  1  0  0  0  0
  8 10  2  0  0  0  0
  8 12  1  0  0  0  0
  9 11  2  0  0  0  0
 10 13  1  0  0  0  0
 11 16  1  0  0  0  0
 12 14  2  0  0  0  0
 13 15  2  0  0  0  0
 13 19  1  0  0  0  0
 14 15  1  0  0  0  0
 15 21  1  0  0  0  0
 17 18  1  0  0  0  0
 18 22  1  0  0  0  0
 18 23  1  0  0  0  0
 18 24  1  0  0  0  0
M  END
> <PUBCHEM_COMPOUND_CID>
49831025

> <PUBCHEM_CONFORMER_RMSD>
0.6

> <PUBCHEM_CONFORMER_DIVERSEORDER>
1
4
6
5
3
2

> <PUBCHEM_MMFF94_PARTIAL_CHARGES>
22
1 -0.18
10 0.04
11 -0.05
12 0.18
13 -0.15
14 0.18
15 -0.15
16 0.71
17 0.57
18 0.06
19 0.15
2 -0.18
20 0.37
21 0.15
25 0.37
26 0.37
3 -0.08
4 -0.57
5 -0.57
6 -0.49
7 -0.8
9 0.06

> <PUBCHEM_EFFECTIVE_ROTOR_COUNT>
3

> <PUBCHEM_PHARMACOPHORE_FEATURES>
6
1 4 acceptor
1 5 acceptor
1 6 donor
1 7 donor
5 3 8 9 10 11 rings
6 8 10 12 13 14 15 rings

> <PUBCHEM_HEAVY_ATOM_COUNT>
18

> <PUBCHEM_ATOM_DEF_STEREO_COUNT>
0

> <PUBCHEM_ATOM_UDEF_STEREO_COUNT>
0

> <PUBCHEM_BOND_DEF_STEREO_COUNT>
0

> <PUBCHEM_BOND_UDEF_STEREO_COUNT>
0

> <PUBCHEM_ISOTOPIC_ATOM_COUNT>
0

> <PUBCHEM_COMPONENT_COUNT>
1

> <PUBCHEM_CACTVS_TAUTO_COUNT>
7

> <PUBCHEM_CONFORMER_ID>
02F85C7100000001

> <PUBCHEM_MMFF94_ENERGY>
66.0656

> <PUBCHEM_FEATURE_SELFOVERLAP>
30.505

> <PUBCHEM_SHAPE_FINGERPRINT>
108231 29 18121781900587623187
10967382 1 18049160274069109102
12954195 1 18198926793710042108
13027679 85 18123189275528997247
13132413 78 18124319565050503253
13140716 1 17975976789099453674
14178342 30 18265037073228558898
14223421 5 18411982451136162638
14787075 74 17899978527733330282
15196674 1 18335980956255712590
15309172 13 17690567385842963353
15442244 35 18265329500298410754
16945 1 18336834194484999206
19591789 44 16754097836298291974
20510252 161 18341612641811845234
21029758 11 18195521721862678327
21501502 16 18336827485830342466
21524375 3 17768802070602502341
23388829 49 18409168852298887830
23402539 116 18270675501625539342
23557571 272 18199758092603231174
23558518 356 18261399918480694938
23559900 14 18412819210071774240
238 59 16888322998691522981
2748010 2 18266177240842984166
3312278 4 18336545018494815743
350125 39 18338239267186700728
353137 74 18408599283785188403
394222 165 16810098665320286784
5104073 3 18408320012311551610
6992083 37 18190748526879506148
7364860 26 17548134893134479859
7832392 63 18194399983646854366
81228 2 18338531818694098923

> <PUBCHEM_SHAPE_MULTIPOLES>
356.32
6.19
3.62
0.79
2.84
1.27
0.17
0.18
-0.19
-2.32
0.2
-0.19
0.29
-0.57

> <PUBCHEM_SHAPE_SELFOVERLAP>
739.617

> <PUBCHEM_SHAPE_VOLUME>
205.6

> <PUBCHEM_COORDINATE_TYPE>
2
5
10

$$$$
