49830387
  -OEChem-10052115183D

 45 47  0     0  0  0  0  0  0999 V2000
   -2.4394    1.0452    0.3652 O   0  0  0  0  0  0  0  0  0  0  0  0
    5.9190    2.8754   -0.5941 O   0  0  0  0  0  0  0  0  0  0  0  0
   -1.7230   -1.1065   -0.2233 N   0  0  0  0  0  0  0  0  0  0  0  0
   -3.9818   -0.6256   -0.1807 N   0  0  0  0  0  0  0  0  0  0  0  0
    7.9555    1.8942   -0.2080 N   0  0  0  0  0  0  0  0  0  0  0  0
    2.4443   -0.8238    0.0345 C   0  0  0  0  0  0  0  0  0  0  0  0
    3.8850   -0.7261    0.1235 C   0  0  0  0  0  0  0  0  0  0  0  0
   -0.3337   -1.0123   -0.1373 C   0  0  0  0  0  0  0  0  0  0  0  0
    1.8486   -2.0291   -0.3374 C   0  0  0  0  0  0  0  0  0  0  0  0
    1.6508    0.2871    0.3206 C   0  0  0  0  0  0  0  0  0  0  0  0
    4.5180    0.4909   -0.1288 C   0  0  0  0  0  0  0  0  0  0  0  0
    0.4597   -2.1234   -0.4234 C   0  0  0  0  0  0  0  0  0  0  0  0
    0.2619    0.1930    0.2347 C   0  0  0  0  0  0  0  0  0  0  0  0
    4.6409   -1.8487    0.4616 C   0  0  0  0  0  0  0  0  0  0  0  0
    5.9070    0.5854   -0.0431 C   0  0  0  0  0  0  0  0  0  0  0  0
   -5.2224    0.0404   -0.0417 C   0  0  0  0  0  0  0  0  0  0  0  0
    6.0298   -1.7541    0.5472 C   0  0  0  0  0  0  0  0  0  0  0  0
    6.6629   -0.5371    0.2947 C   0  0  0  0  0  0  0  0  0  0  0  0
   -7.6359    0.0134   -0.1461 C   0  0  0  0  0  0  0  0  0  0  0  0
   -6.4133   -0.6435   -0.2857 C   0  0  0  0  0  0  0  0  0  0  0  0
   -2.6939   -0.1054    0.0235 C   0  0  0  0  0  0  0  0  0  0  0  0
   -5.2540    1.3811    0.3420 C   0  0  0  0  0  0  0  0  0  0  0  0
   -7.6675    1.3542    0.2376 C   0  0  0  0  0  0  0  0  0  0  0  0
   -6.4767    2.0380    0.4815 C   0  0  0  0  0  0  0  0  0  0  0  0
   -8.9095   -0.7167   -0.4104 C   0  0  0  0  0  0  0  0  0  0  0  0
    6.5677    1.8541   -0.3066 C   0  0  0  0  0  0  0  0  0  0  0  0
    2.4263   -2.9114   -0.5991 H   0  0  0  0  0  0  0  0  0  0  0  0
    2.0684    1.2361    0.6459 H   0  0  0  0  0  0  0  0  0  0  0  0
    3.9511    1.3691   -0.4266 H   0  0  0  0  0  0  0  0  0  0  0  0
    0.0087   -3.0668   -0.7209 H   0  0  0  0  0  0  0  0  0  0  0  0
   -0.2823    1.0940    0.4792 H   0  0  0  0  0  0  0  0  0  0  0  0
    4.1902   -2.8090    0.6968 H   0  0  0  0  0  0  0  0  0  0  0  0
   -2.0828   -2.0165   -0.5003 H   0  0  0  0  0  0  0  0  0  0  0  0
    6.6175   -2.6268    0.8175 H   0  0  0  0  0  0  0  0  0  0  0  0
    7.7427   -0.5368    0.3817 H   0  0  0  0  0  0  0  0  0  0  0  0
   -6.3899   -1.6885   -0.5868 H   0  0  0  0  0  0  0  0  0  0  0  0
   -4.0406   -1.6007   -0.4629 H   0  0  0  0  0  0  0  0  0  0  0  0
   -4.3783    1.9794    0.5486 H   0  0  0  0  0  0  0  0  0  0  0  0
   -8.6135    1.8778    0.3474 H   0  0  0  0  0  0  0  0  0  0  0  0
   -6.5026    3.0822    0.7796 H   0  0  0  0  0  0  0  0  0  0  0  0
   -9.7336   -0.3032    0.1810 H   0  0  0  0  0  0  0  0  0  0  0  0
   -8.8207   -1.7743   -0.1397 H   0  0  0  0  0  0  0  0  0  0  0  0
   -9.1699   -0.6457   -1.4711 H   0  0  0  0  0  0  0  0  0  0  0  0
    8.4400    2.7697   -0.3804 H   0  0  0  0  0  0  0  0  0  0  0  0
    8.5583    1.1154    0.0234 H   0  0  0  0  0  0  0  0  0  0  0  0
  1 21  2  0  0  0  0
  2 26  2  0  0  0  0
  3  8  1  0  0  0  0
  3 21  1  0  0  0  0
  3 33  1  0  0  0  0
  4 16  1  0  0  0  0
  4 21  1  0  0  0  0
  4 37  1  0  0  0  0
  5 26  1  0  0  0  0
  5 44  1  0  0  0  0
  5 45  1  0  0  0  0
  6  7  1  0  0  0  0
  6  9  2  0  0  0  0
  6 10  1  0  0  0  0
  7 11  2  0  0  0  0
  7 14  1  0  0  0  0
  8 12  2  0  0  0  0
  8 13  1  0  0  0  0
  9 12  1  0  0  0  0
  9 27  1  0  0  0  0
 10 13  2  0  0  0  0
 10 28  1  0  0  0  0
 11 15  1  0  0  0  0
 11 29  1  0  0  0  0
 12 30  1  0  0  0  0
 13 31  1  0  0  0  0
 14 17  2  0  0  0  0
 14 32  1  0  0  0  0
 15 18  2  0  0  0  0
 15 26  1  0  0  0  0
 16 20  1  0  0  0  0
 16 22  2  0  0  0  0
 17 18  1  0  0  0  0
 17 34  1  0  0  0  0
 18 35  1  0  0  0  0
 19 20  2  0  0  0  0
 19 23  1  0  0  0  0
 19 25  1  0  0  0  0
 20 36  1  0  0  0  0
 22 24  1  0  0  0  0
 22 38  1  0  0  0  0
 23 24  2  0  0  0  0
 23 39  1  0  0  0  0
 24 40  1  0  0  0  0
 25 41  1  0  0  0  0
 25 42  1  0  0  0  0
 25 43  1  0  0  0  0
M  END
> <PUBCHEM_COMPOUND_CID>
49830387

> <PUBCHEM_CONFORMER_RMSD>
0.8

> <PUBCHEM_CONFORMER_DIVERSEORDER>
1
49
34
17
54
43
24
13
21
11
48
55
15
38
26
20
36
22
5
16
29
9
52
35
19
53
47
12
51
37
18
27
41
10
25
3
44
32
8
50
40
23
14
4
28
45
30
6
46
31
2
42
33
7
39

> <PUBCHEM_MMFF94_PARTIAL_CHARGES>
40
1 -0.57
10 -0.15
11 -0.15
12 -0.15
13 -0.15
14 -0.15
15 0.09
16 0.12
17 -0.15
18 -0.15
19 -0.14
2 -0.57
20 -0.15
21 0.69
22 -0.15
23 -0.15
24 -0.15
25 0.14
26 0.54
27 0.15
28 0.15
29 0.15
3 -0.55
30 0.15
31 0.15
32 0.15
33 0.37
34 0.15
35 0.15
36 0.15
37 0.37
38 0.15
39 0.15
4 -0.55
40 0.15
44 0.37
45 0.37
5 -0.8
8 0.12
9 -0.15

> <PUBCHEM_EFFECTIVE_ROTOR_COUNT>
6

> <PUBCHEM_PHARMACOPHORE_FEATURES>
8
1 1 acceptor
1 2 acceptor
1 3 donor
1 4 donor
1 5 donor
6 16 19 20 22 23 24 rings
6 6 8 9 10 12 13 rings
6 7 11 14 15 17 18 rings

> <PUBCHEM_HEAVY_ATOM_COUNT>
26

> <PUBCHEM_ATOM_DEF_STEREO_COUNT>
0

> <PUBCHEM_ATOM_UDEF_STEREO_COUNT>
0

> <PUBCHEM_BOND_DEF_STEREO_COUNT>
0

> <PUBCHEM_BOND_UDEF_STEREO_COUNT>
0

> <PUBCHEM_ISOTOPIC_ATOM_COUNT>
0

> <PUBCHEM_COMPONENT_COUNT>
1

> <PUBCHEM_CACTVS_TAUTO_COUNT>
6

> <PUBCHEM_CONFORMER_ID>
02F859F300000001

> <PUBCHEM_MMFF94_ENERGY>
93.2256

> <PUBCHEM_FEATURE_SELFOVERLAP>
40.646

> <PUBCHEM_SHAPE_FINGERPRINT>
10 15 18040998453184944418
10299344 5 18343018883230239979
10319688 140 14117253693383176724
10411042 1 17904762177680147098
10595046 47 18342176614579373691
10835480 77 18261113001637891674
11315181 36 18411136927881248177
11719270 70 18060134297821274014
12089408 11 18342455925166912483
12236239 1 18411980247691488643
125118 31 18410575054635744464
12539765 74 18059864934630830327
12925494 130 18192432089951780328
13167372 99 18411137992031025632
13533116 47 17096080273799496306
14142895 15 18337673126209637935
14170010 4 17822012016847872852
14251757 52 18409166627965011328
14251764 18 18412261731817004279
14251764 46 15985101908282753854
14849402 71 18411420652493219089
14933364 13 18409730647106559913
15183329 4 17704076187512450601
15419008 145 18116140083688871384
15419008 47 16081082680375092549
15461852 350 17775001319766970487
1577012 14 18342452660053043902
15840311 113 18334016095049291884
16120349 18 18335416893631253780
16989713 51 17130976733431082471
17686467 74 18114463453252728589
20157964 124 18408323272756074906
20281389 69 18186800257748756253
21049683 271 18272931652922045393
21130935 74 18186523176798585139
21150785 3 17989488537195483717
21315763 28 18410572847080186779
21792934 111 18341038650167549200
22224240 67 17821446859286867323
22956985 138 12542346215222868024
23576562 1 17915735581726477613
24771293 8 18335989705331084741
255183 451 17842003187648077750
34797466 226 18060144228011638902
395649 100 18262516013990758559
397830 11 16589168175616775312
4073 2 18260833721843838739
4169191 19 18410293605935207309
4325135 7 18342454833981533983
4340502 62 16877941633836226106
444735 82 18114185246045089092
445580 167 18412257355282474165
445580 37 17346323670141660825
5758199 1 18333450941350645763
59682541 35 17894918442837337689
6328613 192 18411982468310783209
6438161 24 10952055529184148300
67123 10 18409448103284496183
999808 66 11527652125689023077

> <PUBCHEM_SHAPE_MULTIPOLES>
508.39
27.38
2.26
0.69
23.75
0.7
-0.01
10.42
0.6
-3.1
0.17
-0.07
0
-1.66

> <PUBCHEM_SHAPE_SELFOVERLAP>
1108.902

> <PUBCHEM_SHAPE_VOLUME>
275.1

> <PUBCHEM_COORDINATE_TYPE>
2
5
10

$$$$
