24905221
  -OEChem-10052115143D

 41 44  0     0  0  0  0  0  0999 V2000
    2.6645    1.0351   -0.0039 N   0  0  0  0  0  0  0  0  0  0  0  0
    1.3726    1.4027    0.0829 N   0  0  0  0  0  0  0  0  0  0  0  0
   -4.8378    0.1926    0.1950 N   0  0  0  0  0  0  0  0  0  0  0  0
    4.0141   -0.9717   -0.1227 N   0  0  0  0  0  0  0  0  0  0  0  0
    2.6404   -2.9867   -0.0722 N   0  0  0  0  0  0  0  0  0  0  0  0
    0.2591   -2.9212    0.0759 N   0  0  0  0  0  0  0  0  0  0  0  0
    3.6914    2.0488   -0.0503 C   0  0  0  0  0  0  0  0  0  0  0  0
    0.7178    0.2364    0.1035 C   0  0  0  0  0  0  0  0  0  0  0  0
    1.5809   -0.8727    0.0305 C   0  0  0  0  0  0  0  0  0  0  0  0
    2.8457   -0.3156   -0.0386 C   0  0  0  0  0  0  0  0  0  0  0  0
   -0.7164    0.2242    0.1927 C   0  0  0  0  0  0  0  0  0  0  0  0
   -2.8859    0.2272   -0.8849 C   0  0  0  0  0  0  0  0  0  0  0  0
   -3.4738    0.1999    0.3816 C   0  0  0  0  0  0  0  0  0  0  0  0
   -1.4801    0.2394   -0.9800 C   0  0  0  0  0  0  0  0  0  0  0  0
    3.7073    2.8929    1.2266 C   0  0  0  0  0  0  0  0  0  0  0  0
    3.5504    2.9367   -1.2890 C   0  0  0  0  0  0  0  0  0  0  0  0
   -1.3304    0.1975    1.4433 C   0  0  0  0  0  0  0  0  0  0  0  0
   -2.7231    0.1845    1.5624 C   0  0  0  0  0  0  0  0  0  0  0  0
    1.4995   -2.2611    0.0114 C   0  0  0  0  0  0  0  0  0  0  0  0
   -3.9440    0.2364   -1.8364 C   0  0  0  0  0  0  0  0  0  0  0  0
   -5.1316    0.2145   -1.1420 C   0  0  0  0  0  0  0  0  0  0  0  0
   -5.8308    0.1667    1.2474 C   0  0  0  0  0  0  0  0  0  0  0  0
    3.8102   -2.3066   -0.1331 C   0  0  0  0  0  0  0  0  0  0  0  0
    4.6568    1.5330   -0.1195 H   0  0  0  0  0  0  0  0  0  0  0  0
   -1.0042    0.2600   -1.9574 H   0  0  0  0  0  0  0  0  0  0  0  0
    2.7828    3.4695    1.3428 H   0  0  0  0  0  0  0  0  0  0  0  0
    4.5442    3.5991    1.2126 H   0  0  0  0  0  0  0  0  0  0  0  0
    3.8166    2.2575    2.1124 H   0  0  0  0  0  0  0  0  0  0  0  0
    2.6200    3.5150   -1.2695 H   0  0  0  0  0  0  0  0  0  0  0  0
    3.5474    2.3327   -2.2031 H   0  0  0  0  0  0  0  0  0  0  0  0
    4.3842    3.6438   -1.3547 H   0  0  0  0  0  0  0  0  0  0  0  0
   -0.7322    0.1853    2.3526 H   0  0  0  0  0  0  0  0  0  0  0  0
   -3.1949    0.1632    2.5391 H   0  0  0  0  0  0  0  0  0  0  0  0
   -3.8480    0.2567   -2.9133 H   0  0  0  0  0  0  0  0  0  0  0  0
   -6.1546    0.2130   -1.4939 H   0  0  0  0  0  0  0  0  0  0  0  0
   -5.6853   -0.7426    1.8362 H   0  0  0  0  0  0  0  0  0  0  0  0
   -5.6987    1.0565    1.8681 H   0  0  0  0  0  0  0  0  0  0  0  0
   -6.8318    0.1670    0.8085 H   0  0  0  0  0  0  0  0  0  0  0  0
    4.7036   -2.9181   -0.1993 H   0  0  0  0  0  0  0  0  0  0  0  0
   -0.6075   -2.4074    0.1377 H   0  0  0  0  0  0  0  0  0  0  0  0
    0.2450   -3.9321    0.0584 H   0  0  0  0  0  0  0  0  0  0  0  0
  1  2  1  0  0  0  0
  1  7  1  0  0  0  0
  1 10  1  0  0  0  0
  2  8  2  0  0  0  0
  3 13  1  0  0  0  0
  3 21  1  0  0  0  0
  3 22  1  0  0  0  0
  4 10  2  0  0  0  0
  4 23  1  0  0  0  0
  5 19  1  0  0  0  0
  5 23  2  0  0  0  0
  6 19  1  0  0  0  0
  6 40  1  0  0  0  0
  6 41  1  0  0  0  0
  7 15  1  0  0  0  0
  7 16  1  0  0  0  0
  7 24  1  0  0  0  0
  8  9  1  0  0  0  0
  8 11  1  0  0  0  0
  9 10  1  0  0  0  0
  9 19  2  0  0  0  0
 11 14  2  0  0  0  0
 11 17  1  0  0  0  0
 12 13  2  0  0  0  0
 12 14  1  0  0  0  0
 12 20  1  0  0  0  0
 13 18  1  0  0  0  0
 14 25  1  0  0  0  0
 15 26  1  0  0  0  0
 15 27  1  0  0  0  0
 15 28  1  0  0  0  0
 16 29  1  0  0  0  0
 16 30  1  0  0  0  0
 16 31  1  0  0  0  0
 17 18  2  0  0  0  0
 17 32  1  0  0  0  0
 18 33  1  0  0  0  0
 20 21  2  0  0  0  0
 20 34  1  0  0  0  0
 21 35  1  0  0  0  0
 22 36  1  0  0  0  0
 22 37  1  0  0  0  0
 22 38  1  0  0  0  0
 23 39  1  0  0  0  0
M  END
> <PUBCHEM_COMPOUND_CID>
24905221

> <PUBCHEM_CONFORMER_RMSD>
0.6

> <PUBCHEM_CONFORMER_DIVERSEORDER>
2
5
4
3
6
1

> <PUBCHEM_MMFF94_PARTIAL_CHARGES>
27
1 0.31
10 0.11
11 0.05
13 -0.15
14 -0.15
17 -0.15
18 -0.15
19 0.41
2 -0.71
20 -0.15
21 -0.3
22 0.26
23 0.47
25 0.15
3 0.05
32 0.15
33 0.15
34 0.15
35 0.15
39 0.15
4 -0.57
40 0.4
41 0.4
5 -0.62
6 -0.9
7 0.26
8 0.23

> <PUBCHEM_EFFECTIVE_ROTOR_COUNT>
2

> <PUBCHEM_PHARMACOPHORE_FEATURES>
11
1 2 acceptor
1 3 cation
1 6 cation
1 6 donor
3 1 4 10 cation
3 4 5 23 cation
3 7 15 16 hydrophobe
5 1 2 8 9 10 rings
5 3 12 13 20 21 rings
6 11 12 13 14 17 18 rings
6 4 5 9 10 19 23 rings

> <PUBCHEM_HEAVY_ATOM_COUNT>
23

> <PUBCHEM_ATOM_DEF_STEREO_COUNT>
0

> <PUBCHEM_ATOM_UDEF_STEREO_COUNT>
0

> <PUBCHEM_BOND_DEF_STEREO_COUNT>
0

> <PUBCHEM_BOND_UDEF_STEREO_COUNT>
0

> <PUBCHEM_ISOTOPIC_ATOM_COUNT>
0

> <PUBCHEM_COMPONENT_COUNT>
1

> <PUBCHEM_CACTVS_TAUTO_COUNT>
5

> <PUBCHEM_CONFORMER_ID>
017C060500000002

> <PUBCHEM_MMFF94_ENERGY>
49.3977

> <PUBCHEM_FEATURE_SELFOVERLAP>
56.193

> <PUBCHEM_SHAPE_FINGERPRINT>
12236239 1 17632294549386505027
12403259 415 17822013095053468861
12616971 3 18060420188397982101
12730499 353 18335991959671397920
13009979 54 17415567510628870322
13140716 1 18338513162116028402
13533116 47 18341337729877433337
13631057 29 17840856701492954167
13760787 5 18202560670918070485
13911987 19 18120101825092948332
13955234 65 18411416207127552570
15342168 16 18262806309685187164
15375358 24 17749102318483704989
15961568 22 16588595321621887676
17138139 8 17556266769617700655
17818456 19 17271454491400722921
17844677 252 18336831897057369237
1813 80 17914346675729746486
19784866 34 18199744915569830880
200 152 18271803467691063523
204376 136 18264771132684548204
20600515 1 16153422895940744437
20645477 70 18334859402644458730
21033648 29 17749383754927081493
21065201 7 16515687715106635227
2255824 54 18342459214537121294
23557571 272 17167871841952573839
23559900 14 16660365844472306314
312423 11 18129956584724629809
341906 21 15647047153732559365
4340502 62 18341329002008061019
469060 322 17758401051586904603
474 4 18270675489009760104
495365 180 18408881862848036744
5104073 3 18410292549272915931
5281201 14 18187926136328585725
6034566 193 17828493800881408356
633830 44 18129681754051659517
7471813 234 18059286557418449984
7615 1 17917152697595676337
77492 1 17703791392578572355
8272917 22 18412550889983896373

> <PUBCHEM_SHAPE_MULTIPOLES>
443.44
10.71
2.88
1.33
10.01
0.66
-0.02
-2.92
-0.3
-6.17
-0.09
1.41
-0.55
0.13

> <PUBCHEM_SHAPE_SELFOVERLAP>
989.957

> <PUBCHEM_SHAPE_VOLUME>
235.5

> <PUBCHEM_COORDINATE_TYPE>
2
5
10

$$$$
