44219632
  -OEChem-10062122023D

 43 46  0     0  0  0  0  0  0999 V2000
    3.5659   -3.5585    0.1633 F   0  0  0  0  0  0  0  0  0  0  0  0
    3.0806   -2.5012    2.0003 F   0  0  0  0  0  0  0  0  0  0  0  0
    1.4922   -3.1492    0.6733 F   0  0  0  0  0  0  0  0  0  0  0  0
   -4.4169   -2.9331    0.3729 N   0  0  0  0  0  0  0  0  0  0  0  0
   -3.0236    0.3791   -0.4071 N   0  0  0  0  0  0  0  0  0  0  0  0
   -0.0254    2.1052    0.1026 N   0  0  0  0  0  0  0  0  0  0  0  0
   -0.8415    1.0748   -0.2301 N   0  0  0  0  0  0  0  0  0  0  0  0
    0.6952    4.0719    0.7623 N   0  0  0  0  0  0  0  0  0  0  0  0
    1.7877    3.2854    0.4584 N   0  0  0  0  0  0  0  0  0  0  0  0
   -2.6456   -0.9439   -0.8629 C   0  0  0  0  0  0  0  0  0  0  0  0
   -3.8120   -1.5903   -1.6129 C   0  0  0  0  0  0  0  0  0  0  0  0
   -2.2114   -1.8110    0.3214 C   0  0  0  0  0  0  0  0  0  0  0  0
   -4.9283   -2.0471   -0.6723 C   0  0  0  0  0  0  0  0  0  0  0  0
   -3.3921   -2.2711    1.1791 C   0  0  0  0  0  0  0  0  0  0  0  0
   -2.1242    1.3284   -0.1050 C   0  0  0  0  0  0  0  0  0  0  0  0
   -2.6419    2.6599    0.3704 C   0  0  0  0  0  0  0  0  0  0  0  0
   -0.3871    3.3552    0.5455 C   0  0  0  0  0  0  0  0  0  0  0  0
    1.3388    2.1145    0.0664 C   0  0  0  0  0  0  0  0  0  0  0  0
   -1.7626    3.6203    0.6772 C   0  0  0  0  0  0  0  0  0  0  0  0
    2.1430    0.9898   -0.3460 C   0  0  0  0  0  0  0  0  0  0  0  0
    2.0571   -0.2198    0.3434 C   0  0  0  0  0  0  0  0  0  0  0  0
    3.0041    1.1115   -1.4367 C   0  0  0  0  0  0  0  0  0  0  0  0
    2.8323   -1.3078   -0.0579 C   0  0  0  0  0  0  0  0  0  0  0  0
    3.7793    0.0236   -1.8378 C   0  0  0  0  0  0  0  0  0  0  0  0
    3.6936   -1.1861   -1.1484 C   0  0  0  0  0  0  0  0  0  0  0  0
    2.7429   -2.6004    0.6805 C   0  0  0  0  0  0  0  0  0  0  0  0
   -1.8124   -0.8572   -1.5719 H   0  0  0  0  0  0  0  0  0  0  0  0
   -3.4378   -2.4629   -2.1646 H   0  0  0  0  0  0  0  0  0  0  0  0
   -4.2225   -0.8980   -2.3582 H   0  0  0  0  0  0  0  0  0  0  0  0
   -1.4855   -1.2911    0.9569 H   0  0  0  0  0  0  0  0  0  0  0  0
   -1.6984   -2.7004   -0.0690 H   0  0  0  0  0  0  0  0  0  0  0  0
   -5.4385   -1.1868   -0.2235 H   0  0  0  0  0  0  0  0  0  0  0  0
   -5.6812   -2.5900   -1.2544 H   0  0  0  0  0  0  0  0  0  0  0  0
   -3.0295   -2.9751    1.9362 H   0  0  0  0  0  0  0  0  0  0  0  0
   -3.8269   -1.4207    1.7183 H   0  0  0  0  0  0  0  0  0  0  0  0
   -5.1866   -3.2197    0.9770 H   0  0  0  0  0  0  0  0  0  0  0  0
   -4.0147    0.5620   -0.2769 H   0  0  0  0  0  0  0  0  0  0  0  0
   -3.7114    2.8108    0.4538 H   0  0  0  0  0  0  0  0  0  0  0  0
   -2.0954    4.5921    1.0231 H   0  0  0  0  0  0  0  0  0  0  0  0
    1.3927   -0.3238    1.1990 H   0  0  0  0  0  0  0  0  0  0  0  0
    3.0815    2.0467   -1.9860 H   0  0  0  0  0  0  0  0  0  0  0  0
    4.4495    0.1182   -2.6873 H   0  0  0  0  0  0  0  0  0  0  0  0
    4.3061   -2.0210   -1.4769 H   0  0  0  0  0  0  0  0  0  0  0  0
  1 26  1  0  0  0  0
  2 26  1  0  0  0  0
  3 26  1  0  0  0  0
  4 13  1  0  0  0  0
  4 14  1  0  0  0  0
  4 36  1  0  0  0  0
  5 10  1  0  0  0  0
  5 15  1  0  0  0  0
  5 37  1  0  0  0  0
  6  7  1  0  0  0  0
  6 17  1  0  0  0  0
  6 18  1  0  0  0  0
  7 15  2  0  0  0  0
  8  9  1  0  0  0  0
  8 17  2  0  0  0  0
  9 18  2  0  0  0  0
 10 11  1  0  0  0  0
 10 12  1  0  0  0  0
 10 27  1  0  0  0  0
 11 13  1  0  0  0  0
 11 28  1  0  0  0  0
 11 29  1  0  0  0  0
 12 14  1  0  0  0  0
 12 30  1  0  0  0  0
 12 31  1  0  0  0  0
 13 32  1  0  0  0  0
 13 33  1  0  0  0  0
 14 34  1  0  0  0  0
 14 35  1  0  0  0  0
 15 16  1  0  0  0  0
 16 19  2  0  0  0  0
 16 38  1  0  0  0  0
 17 19  1  0  0  0  0
 18 20  1  0  0  0  0
 19 39  1  0  0  0  0
 20 21  2  0  0  0  0
 20 22  1  0  0  0  0
 21 23  1  0  0  0  0
 21 40  1  0  0  0  0
 22 24  2  0  0  0  0
 22 41  1  0  0  0  0
 23 25  2  0  0  0  0
 23 26  1  0  0  0  0
 24 25  1  0  0  0  0
 24 42  1  0  0  0  0
 25 43  1  0  0  0  0
M  END
> <PUBCHEM_COMPOUND_CID>
44219632

> <PUBCHEM_CONFORMER_RMSD>
0.8

> <PUBCHEM_CONFORMER_DIVERSEORDER>
1
46
39
29
11
32
47
40
7
55
22
13
54
31
17
49
18
5
34
45
43
53
21
15
50
51
33
28
42
6
20
37
41
48
30
24
38
12
35
9
19
44
27
2
16
8
52
36
26
23
25
4
10
14
3

> <PUBCHEM_MMFF94_PARTIAL_CHARGES>
32
1 -0.34
10 0.37
13 0.27
14 0.27
15 0.49
16 -0.14
17 0.14
18 0.13
19 -0.11
2 -0.34
20 0.05
21 -0.15
22 -0.15
23 -0.14
24 -0.15
25 -0.15
26 1.16
3 -0.34
36 0.36
37 0.4
38 0.15
39 0.15
4 -0.9
40 0.15
41 0.15
42 0.15
43 0.15
5 -0.82
6 0.51
7 -0.65
8 -0.34
9 -0.34

> <PUBCHEM_EFFECTIVE_ROTOR_COUNT>
5.2

> <PUBCHEM_PHARMACOPHORE_FEATURES>
10
1 4 cation
1 4 donor
1 5 donor
3 5 7 15 cation
3 6 8 17 cation
3 6 9 18 cation
5 6 8 9 17 18 rings
6 20 21 22 23 24 25 rings
6 4 10 11 12 13 14 rings
6 6 7 15 16 17 19 rings

> <PUBCHEM_HEAVY_ATOM_COUNT>
26

> <PUBCHEM_ATOM_DEF_STEREO_COUNT>
0

> <PUBCHEM_ATOM_UDEF_STEREO_COUNT>
0

> <PUBCHEM_BOND_DEF_STEREO_COUNT>
0

> <PUBCHEM_BOND_UDEF_STEREO_COUNT>
0

> <PUBCHEM_ISOTOPIC_ATOM_COUNT>
0

> <PUBCHEM_COMPONENT_COUNT>
1

> <PUBCHEM_CACTVS_TAUTO_COUNT>
2

> <PUBCHEM_CONFORMER_ID>
02A2BCF000000001

> <PUBCHEM_MMFF94_ENERGY>
44.275

> <PUBCHEM_FEATURE_SELFOVERLAP>
53.363

> <PUBCHEM_SHAPE_FINGERPRINT>
10616163 171 18268437840923268302
1100329 8 18266171726516387153
114674 6 18050287269203090377
11578080 2 17489582389919791841
12156800 1 14532039932197787284
12553582 1 18412547574321884713
12788726 201 18269000778065705377
13140716 1 18339921494133502370
13402501 40 17686344573844438555
13533116 47 17840877592609455299
13631057 29 18412270532257943084
138480 1 14593211008326807107
14863182 85 17834114521370807229
14866123 147 18197221343806395073
14931854 50 18334582364474843902
15003188 105 18193825162056167934
15403338 16 15583450022571424921
15635459 17 18046623679601471739
19026451 147 18267563866571238431
19930381 70 18121777494236241531
20600515 1 17031851176396063240
20645477 70 17983571090274489885
20775530 9 18333729091838072495
21279426 13 18337663214269092317
21315764 21 17097754786842440271
229767 44 16894816649967493250
23559900 14 18116989095242850101
23728640 28 17836084468376597721
238 59 18117003380072019770
312425 83 16878215390302869727
345986 75 17988650743969430371
4017518 198 16755206148145460822
463206 1 18264770960901466451
5309563 4 18195817481916602135
57527585 21 15648210428191832478
58807428 26 17191234024164552857
70251023 43 18200605803146395335
86090 222 17319585978301039467
9795274 37 18333447655399945139

> <PUBCHEM_SHAPE_MULTIPOLES>
483.36
8.3
5.51
1.32
4.88
2.49
0.18
-8.09
2.15
-0.45
-2.32
-0.52
-0.69
-0.95

> <PUBCHEM_SHAPE_SELFOVERLAP>
1057.178

> <PUBCHEM_SHAPE_VOLUME>
262.2

> <PUBCHEM_COORDINATE_TYPE>
2
5
10

$$$$
