49830863
  -OEChem-10062121553D

 29 31  0     0  0  0  0  0  0999 V2000
   -1.6445   -2.2201   -1.1965 F   0  0  0  0  0  0  0  0  0  0  0  0
    2.1911    0.3696   -0.1222 N   0  0  0  0  0  0  0  0  0  0  0  0
    4.0753   -0.5909    0.4947 N   0  0  0  0  0  0  0  0  0  0  0  0
    4.3749    0.5877   -0.1588 N   0  0  0  0  0  0  0  0  0  0  0  0
    3.0367    2.3079   -1.1832 N   0  0  0  0  0  0  0  0  0  0  0  0
   -0.0275   -0.3816    0.2141 C   0  0  0  0  0  0  0  0  0  0  0  0
   -1.4814   -0.1968    0.0420 C   0  0  0  0  0  0  0  0  0  0  0  0
    0.8216    0.5472   -0.2775 C   0  0  0  0  0  0  0  0  0  0  0  0
    2.7655   -0.7172    0.5135 C   0  0  0  0  0  0  0  0  0  0  0  0
    0.5571   -1.5471    0.8926 C   0  0  0  0  0  0  0  0  0  0  0  0
   -2.1060    0.9240    0.5889 C   0  0  0  0  0  0  0  0  0  0  0  0
    1.8877   -1.7041    1.0343 C   0  0  0  0  0  0  0  0  0  0  0  0
   -3.4800    1.1040    0.4294 C   0  0  0  0  0  0  0  0  0  0  0  0
   -2.2306   -1.1375   -0.6646 C   0  0  0  0  0  0  0  0  0  0  0  0
    3.2414    1.1468   -0.5199 C   0  0  0  0  0  0  0  0  0  0  0  0
   -4.2293    0.1634   -0.2775 C   0  0  0  0  0  0  0  0  0  0  0  0
   -3.6047   -0.9574   -0.8244 C   0  0  0  0  0  0  0  0  0  0  0  0
   -4.1475    2.3022    1.0150 C   0  0  0  0  0  0  0  0  0  0  0  0
    0.4816    1.4345   -0.7992 H   0  0  0  0  0  0  0  0  0  0  0  0
   -0.1203   -2.2960    1.2917 H   0  0  0  0  0  0  0  0  0  0  0  0
   -1.5306    1.6589    1.1483 H   0  0  0  0  0  0  0  0  0  0  0  0
    2.2965   -2.5713    1.5404 H   0  0  0  0  0  0  0  0  0  0  0  0
   -5.3007    0.2910   -0.4073 H   0  0  0  0  0  0  0  0  0  0  0  0
   -4.1877   -1.6902   -1.3743 H   0  0  0  0  0  0  0  0  0  0  0  0
   -4.4187    2.1090    2.0577 H   0  0  0  0  0  0  0  0  0  0  0  0
   -3.4883    3.1762    0.9780 H   0  0  0  0  0  0  0  0  0  0  0  0
   -5.0556    2.5626    0.4607 H   0  0  0  0  0  0  0  0  0  0  0  0
    2.1176    2.6650   -1.4208 H   0  0  0  0  0  0  0  0  0  0  0  0
    3.8166    2.8866   -1.4789 H   0  0  0  0  0  0  0  0  0  0  0  0
  1 14  1  0  0  0  0
  2  8  1  0  0  0  0
  2  9  1  0  0  0  0
  2 15  1  0  0  0  0
  3  4  1  0  0  0  0
  3  9  2  0  0  0  0
  4 15  2  0  0  0  0
  5 15  1  0  0  0  0
  5 28  1  0  0  0  0
  5 29  1  0  0  0  0
  6  7  1  0  0  0  0
  6  8  2  0  0  0  0
  6 10  1  0  0  0  0
  7 11  1  0  0  0  0
  7 14  2  0  0  0  0
  8 19  1  0  0  0  0
  9 12  1  0  0  0  0
 10 12  2  0  0  0  0
 10 20  1  0  0  0  0
 11 13  2  0  0  0  0
 11 21  1  0  0  0  0
 12 22  1  0  0  0  0
 13 16  1  0  0  0  0
 13 18  1  0  0  0  0
 14 17  1  0  0  0  0
 16 17  2  0  0  0  0
 16 23  1  0  0  0  0
 17 24  1  0  0  0  0
 18 25  1  0  0  0  0
 18 26  1  0  0  0  0
 18 27  1  0  0  0  0
M  END
> <PUBCHEM_COMPOUND_CID>
49830863

> <PUBCHEM_CONFORMER_RMSD>
0.6

> <PUBCHEM_CONFORMER_DIVERSEORDER>
1
5
2
3
4
6

> <PUBCHEM_MMFF94_PARTIAL_CHARGES>
26
1 -0.19
10 -0.15
11 -0.15
12 -0.11
13 -0.14
14 0.19
15 0.27
16 -0.15
17 -0.15
18 0.14
19 0.15
2 0.33
20 0.15
21 0.15
22 0.15
23 0.15
24 0.15
28 0.4
29 0.4
3 -0.34
4 -0.34
5 -0.88
6 -0.03
7 0.03
8 -0.18
9 0.14

> <PUBCHEM_EFFECTIVE_ROTOR_COUNT>
1

> <PUBCHEM_PHARMACOPHORE_FEATURES>
5
1 5 donor
4 2 4 5 15 cation
5 2 3 4 9 15 rings
6 2 6 8 9 10 12 rings
6 7 11 13 14 16 17 rings

> <PUBCHEM_HEAVY_ATOM_COUNT>
18

> <PUBCHEM_ATOM_DEF_STEREO_COUNT>
0

> <PUBCHEM_ATOM_UDEF_STEREO_COUNT>
0

> <PUBCHEM_BOND_DEF_STEREO_COUNT>
0

> <PUBCHEM_BOND_UDEF_STEREO_COUNT>
0

> <PUBCHEM_ISOTOPIC_ATOM_COUNT>
0

> <PUBCHEM_COMPONENT_COUNT>
1

> <PUBCHEM_CACTVS_TAUTO_COUNT>
2

> <PUBCHEM_CONFORMER_ID>
02F85BCF00000001

> <PUBCHEM_MMFF94_ENERGY>
45.5312

> <PUBCHEM_FEATURE_SELFOVERLAP>
25.484

> <PUBCHEM_SHAPE_FINGERPRINT>
10646746 165 18060413621055623528
10980938 120 18261390005669600634
11471102 20 18040712559124742394
11640471 11 18410299107434573601
11796584 16 16773804645549088598
12173636 292 18201710756824445159
12236239 1 18410288099691778883
12644460 14 17676201330407893610
12788726 201 18268697480803983419
13583140 156 14707476062153115104
14739800 52 17986650732297615128
14787075 74 18043816605199704619
15279307 12 18411412908403186867
15342168 16 17531820180313138996
15669948 3 18130497617739534007
15775835 57 18410858737399367761
16752209 62 17916852587272819791
16945 1 17822002104211163458
1813 80 17902223417525229634
18186145 218 18187082862623547646
19422 9 18410852157488559547
200 152 18336256921047617943
20233049 118 17917987244148357384
20279233 1 15697998548159390422
20645476 183 18342172267724719791
20645477 70 17386831846929745579
21033648 29 16081355380411960756
21267235 1 18410299111735036555
21618674 53 18411991256045947211
2255824 54 18187362095712206706
22854114 111 18187085039982140520
23366157 5 17981051812904499871
23402539 116 17846210025427916221
23402655 69 18411140247073368444
23557571 272 17560799957084257832
23559900 14 17417817175938404086
23598291 2 18410285900346952119
2838139 119 17533475873975768893
4409770 3 15742198520364613935
474 4 18113620126937536012
5104073 3 18407757027834458978
57096353 35 18340197600569995807
633830 44 18334304166689658526
77492 1 18410566275986036667
7832392 63 18411981351693178144
84936 182 18268147746195588568
90525 40 18272366464820832847
9971528 1 18408880716692953768
9981440 41 17472691902953301648

> <PUBCHEM_SHAPE_MULTIPOLES>
343.23
8.6
2.09
1.04
0.12
0.34
-0.02
3.29
-0.04
-0.31
-0.11
-0.19
-0.06
-2.06

> <PUBCHEM_SHAPE_SELFOVERLAP>
762.923

> <PUBCHEM_SHAPE_VOLUME>
185.8

> <PUBCHEM_COORDINATE_TYPE>
2
5
10

$$$$
