459567
  -OEChem-10062121543D

 21 22  0     0  0  0  0  0  0999 V2000
   -3.6000   -1.4606    0.3698 O   0  0  0  0  0  0  0  0  0  0  0  0
   -0.5555    0.0331   -0.1121 N   0  0  0  0  0  0  0  0  0  0  0  0
   -1.2962   -1.1063    0.1059 N   0  0  0  0  0  0  0  0  0  0  0  0
   -1.0948    2.4258   -0.4965 N   0  0  0  0  0  0  0  0  0  0  0  0
    1.5610    0.9630    0.5557 N   0  0  0  0  0  0  0  0  0  0  0  0
   -1.4122    1.1263   -0.2177 C   0  0  0  0  0  0  0  0  0  0  0  0
    0.8531   -0.0507   -0.0272 C   0  0  0  0  0  0  0  0  0  0  0  0
   -2.6863    0.7133   -0.0525 C   0  0  0  0  0  0  0  0  0  0  0  0
   -2.6289   -0.7515    0.1708 C   0  0  0  0  0  0  0  0  0  0  0  0
    1.4842   -1.1855   -0.5502 C   0  0  0  0  0  0  0  0  0  0  0  0
    2.8692   -1.2825   -0.4739 C   0  0  0  0  0  0  0  0  0  0  0  0
    2.9055    0.8335    0.6114 C   0  0  0  0  0  0  0  0  0  0  0  0
    3.6009   -0.2580    0.1164 C   0  0  0  0  0  0  0  0  0  0  0  0
   -0.8723   -2.0143    0.2430 H   0  0  0  0  0  0  0  0  0  0  0  0
   -3.5919    1.2949   -0.0880 H   0  0  0  0  0  0  0  0  0  0  0  0
    0.9298   -1.9843   -1.0334 H   0  0  0  0  0  0  0  0  0  0  0  0
   -1.8235    3.1246   -0.5683 H   0  0  0  0  0  0  0  0  0  0  0  0
   -0.1257    2.6781   -0.6412 H   0  0  0  0  0  0  0  0  0  0  0  0
    3.3782   -2.1523   -0.8782 H   0  0  0  0  0  0  0  0  0  0  0  0
    3.4295    1.6595    1.0808 H   0  0  0  0  0  0  0  0  0  0  0  0
    4.6813   -0.3116    0.1856 H   0  0  0  0  0  0  0  0  0  0  0  0
  1  9  2  0  0  0  0
  2  3  1  0  0  0  0
  2  6  1  0  0  0  0
  2  7  1  0  0  0  0
  3  9  1  0  0  0  0
  3 14  1  0  0  0  0
  4  6  1  0  0  0  0
  4 17  1  0  0  0  0
  4 18  1  0  0  0  0
  5  7  1  0  0  0  0
  5 12  2  0  0  0  0
  6  8  2  0  0  0  0
  7 10  2  0  0  0  0
  8  9  1  0  0  0  0
  8 15  1  0  0  0  0
 10 11  1  0  0  0  0
 10 16  1  0  0  0  0
 11 13  2  0  0  0  0
 11 19  1  0  0  0  0
 12 13  1  0  0  0  0
 12 20  1  0  0  0  0
 13 21  1  0  0  0  0
M  END
> <PUBCHEM_COMPOUND_CID>
459567

> <PUBCHEM_CONFORMER_RMSD>
0.4

> <PUBCHEM_CONFORMER_DIVERSEORDER>
1
6
3
5
2
4

> <PUBCHEM_MMFF94_PARTIAL_CHARGES>
21
1 -0.57
10 -0.15
11 -0.15
12 0.16
13 -0.15
14 0.37
15 0.15
16 0.15
17 0.4
18 0.4
19 0.15
2 -0.22
20 0.15
21 0.15
3 -0.41
4 -0.9
5 -0.62
6 0.2
7 0.41
8 -0.14
9 0.62

> <PUBCHEM_EFFECTIVE_ROTOR_COUNT>
1

> <PUBCHEM_PHARMACOPHORE_FEATURES>
7
1 1 acceptor
1 3 donor
1 4 cation
1 4 donor
1 5 acceptor
5 2 3 6 8 9 rings
6 5 7 10 11 12 13 rings

> <PUBCHEM_HEAVY_ATOM_COUNT>
13

> <PUBCHEM_ATOM_DEF_STEREO_COUNT>
0

> <PUBCHEM_ATOM_UDEF_STEREO_COUNT>
0

> <PUBCHEM_BOND_DEF_STEREO_COUNT>
0

> <PUBCHEM_BOND_UDEF_STEREO_COUNT>
0

> <PUBCHEM_ISOTOPIC_ATOM_COUNT>
0

> <PUBCHEM_COMPONENT_COUNT>
1

> <PUBCHEM_CACTVS_TAUTO_COUNT>
5

> <PUBCHEM_CONFORMER_ID>
0007032F00000001

> <PUBCHEM_MMFF94_ENERGY>
49.4878

> <PUBCHEM_FEATURE_SELFOVERLAP>
35.52

> <PUBCHEM_SHAPE_FINGERPRINT>
10608611 8 18341044138534626056
10857977 72 18336823177777548193
12032990 46 18336551602827289195
12932764 1 18114748105560869354
13296908 3 18410575080405249279
14144814 61 18412543180660115802
14252887 29 18339091496162483459
14325111 11 18413106152077661544
15219456 202 18343580733249955952
15309172 13 17131834261214053206
15501101 241 18200032970425577617
16945 1 18265050241155189396
17844478 74 18412267233074141481
18175812 5 18342174462099190437
18380122 1 18341889714462901532
19049666 15 18125721180114003934
19973954 147 18411981321665512172
200 152 17560506353214731861
20201158 50 18271805679314416734
20279233 1 18412540985689143382
20281407 28 18410581681775258051
20645477 70 17916579839105289031
20871998 184 18343303660841726791
20871998 22 18337399343619769251
21501502 16 18411422765436988056
23402539 116 18335689576815242630
23559900 14 18266735784529224702
2748010 2 18340764862332939485
57812782 119 18412820270443490618
6333449 129 18410570648283726093
7364860 26 18193843866865634020
81228 2 18187933833158081361
8809292 202 18337678499098018218

> <PUBCHEM_SHAPE_MULTIPOLES>
241.74
5.87
1.75
0.71
0.56
0.49
-0.01
-1.39
0.56
-0.68
-0.17
0.14
0.03
0.73

> <PUBCHEM_SHAPE_SELFOVERLAP>
520.362

> <PUBCHEM_SHAPE_VOLUME>
132

> <PUBCHEM_COORDINATE_TYPE>
2
5
10

$$$$
