135947976
  -OEChem-10052115163D

 39 42  0     0  0  0  0  0  0999 V2000
    3.4015    0.3229    2.6196 O   0  0  0  0  0  0  0  0  0  0  0  0
   -2.7867    1.0403    0.0254 N   0  0  0  0  0  0  0  0  0  0  0  0
   -1.5086    1.3922   -0.2083 N   0  0  0  0  0  0  0  0  0  0  0  0
   -4.1282   -0.9479    0.3564 N   0  0  0  0  0  0  0  0  0  0  0  0
   -2.7790   -2.9767    0.2367 N   0  0  0  0  0  0  0  0  0  0  0  0
   -0.4259   -2.9392   -0.1606 N   0  0  0  0  0  0  0  0  0  0  0  0
    4.6948    0.1029   -1.2581 N   0  0  0  0  0  0  0  0  0  0  0  0
    5.1067    0.2213    1.0677 N   0  0  0  0  0  0  0  0  0  0  0  0
   -3.7980    2.0644    0.1373 C   0  0  0  0  0  0  0  0  0  0  0  0
   -1.7236   -0.8777   -0.0520 C   0  0  0  0  0  0  0  0  0  0  0  0
   -2.9712   -0.3065    0.1278 C   0  0  0  0  0  0  0  0  0  0  0  0
   -0.8664    0.2198   -0.2543 C   0  0  0  0  0  0  0  0  0  0  0  0
    0.5493    0.1905   -0.4949 C   0  0  0  0  0  0  0  0  0  0  0  0
   -3.9378    2.8623   -1.1615 C   0  0  0  0  0  0  0  0  0  0  0  0
   -3.5283    2.9951    1.3222 C   0  0  0  0  0  0  0  0  0  0  0  0
   -1.6488   -2.2653    0.0089 C   0  0  0  0  0  0  0  0  0  0  0  0
    1.4391    0.2367    0.5771 C   0  0  0  0  0  0  0  0  0  0  0  0
    1.0312    0.1158   -1.8012 C   0  0  0  0  0  0  0  0  0  0  0  0
    2.8149    0.2080    0.3316 C   0  0  0  0  0  0  0  0  0  0  0  0
    3.3145    0.1331   -0.9786 C   0  0  0  0  0  0  0  0  0  0  0  0
    2.4063    0.0871   -2.0416 C   0  0  0  0  0  0  0  0  0  0  0  0
   -3.9320   -2.2837    0.3941 C   0  0  0  0  0  0  0  0  0  0  0  0
    3.7777    0.2569    1.4554 C   0  0  0  0  0  0  0  0  0  0  0  0
    5.4986    0.1475   -0.2490 C   0  0  0  0  0  0  0  0  0  0  0  0
   -4.7544    1.5605    0.3219 H   0  0  0  0  0  0  0  0  0  0  0  0
   -3.0268    3.4261   -1.3910 H   0  0  0  0  0  0  0  0  0  0  0  0
   -4.1389    2.1964   -2.0081 H   0  0  0  0  0  0  0  0  0  0  0  0
   -4.7654    3.5758   -1.0895 H   0  0  0  0  0  0  0  0  0  0  0  0
   -4.3471    3.7119    1.4449 H   0  0  0  0  0  0  0  0  0  0  0  0
   -3.4370    2.4244    2.2531 H   0  0  0  0  0  0  0  0  0  0  0  0
   -2.6011    3.5634    1.1884 H   0  0  0  0  0  0  0  0  0  0  0  0
    1.0617    0.2944    1.5955 H   0  0  0  0  0  0  0  0  0  0  0  0
    0.3478    0.0786   -2.6466 H   0  0  0  0  0  0  0  0  0  0  0  0
    2.7651    0.0286   -3.0664 H   0  0  0  0  0  0  0  0  0  0  0  0
   -4.8173   -2.8837    0.5749 H   0  0  0  0  0  0  0  0  0  0  0  0
    0.4325   -2.4363   -0.3312 H   0  0  0  0  0  0  0  0  0  0  0  0
   -0.4160   -3.9490   -0.1085 H   0  0  0  0  0  0  0  0  0  0  0  0
    5.8202    0.2516    1.7901 H   0  0  0  0  0  0  0  0  0  0  0  0
    6.5912    0.1286   -0.3788 H   0  0  0  0  0  0  0  0  0  0  0  0
  1 23  2  0  0  0  0
  2  3  1  0  0  0  0
  2  9  1  0  0  0  0
  2 11  1  0  0  0  0
  3 12  2  0  0  0  0
  4 11  2  0  0  0  0
  4 22  1  0  0  0  0
  5 16  1  0  0  0  0
  5 22  2  0  0  0  0
  6 16  1  0  0  0  0
  6 36  1  0  0  0  0
  6 37  1  0  0  0  0
  7 20  1  0  0  0  0
  7 24  2  0  0  0  0
  8 23  1  0  0  0  0
  8 24  1  0  0  0  0
  8 38  1  0  0  0  0
  9 14  1  0  0  0  0
  9 15  1  0  0  0  0
  9 25  1  0  0  0  0
 10 11  1  0  0  0  0
 10 12  1  0  0  0  0
 10 16  2  0  0  0  0
 12 13  1  0  0  0  0
 13 17  2  0  0  0  0
 13 18  1  0  0  0  0
 14 26  1  0  0  0  0
 14 27  1  0  0  0  0
 14 28  1  0  0  0  0
 15 29  1  0  0  0  0
 15 30  1  0  0  0  0
 15 31  1  0  0  0  0
 17 19  1  0  0  0  0
 17 32  1  0  0  0  0
 18 21  2  0  0  0  0
 18 33  1  0  0  0  0
 19 20  2  0  0  0  0
 19 23  1  0  0  0  0
 20 21  1  0  0  0  0
 21 34  1  0  0  0  0
 22 35  1  0  0  0  0
 24 39  1  0  0  0  0
M  END
> <PUBCHEM_COMPOUND_CID>
135947976

> <PUBCHEM_CONFORMER_RMSD>
0.6

> <PUBCHEM_CONFORMER_DIVERSEORDER>
2
4
5
6
3
1

> <PUBCHEM_MMFF94_PARTIAL_CHARGES>
29
1 -0.57
11 0.11
12 0.23
13 0.05
16 0.41
17 -0.15
18 -0.15
19 0.09
2 0.31
20 0.18
21 -0.15
22 0.47
23 0.54
24 0.45
3 -0.71
32 0.15
33 0.15
34 0.15
35 0.15
36 0.4
37 0.4
38 0.37
39 0.06
4 -0.57
5 -0.62
6 -0.9
7 -0.63
8 -0.49
9 0.26

> <PUBCHEM_EFFECTIVE_ROTOR_COUNT>
2

> <PUBCHEM_PHARMACOPHORE_FEATURES>
12
1 1 acceptor
1 3 acceptor
1 6 cation
1 6 donor
1 8 donor
3 2 4 11 cation
3 4 5 22 cation
3 9 14 15 hydrophobe
5 2 3 10 11 12 rings
6 13 17 18 19 20 21 rings
6 4 5 10 11 16 22 rings
6 7 8 19 20 23 24 rings

> <PUBCHEM_HEAVY_ATOM_COUNT>
24

> <PUBCHEM_ATOM_DEF_STEREO_COUNT>
0

> <PUBCHEM_ATOM_UDEF_STEREO_COUNT>
0

> <PUBCHEM_BOND_DEF_STEREO_COUNT>
0

> <PUBCHEM_BOND_UDEF_STEREO_COUNT>
0

> <PUBCHEM_ISOTOPIC_ATOM_COUNT>
0

> <PUBCHEM_COMPONENT_COUNT>
1

> <PUBCHEM_CACTVS_TAUTO_COUNT>
-1

> <PUBCHEM_CONFORMER_ID>
081A66C800000002

> <PUBCHEM_MMFF94_ENERGY>
59.6608

> <PUBCHEM_FEATURE_SELFOVERLAP>
61.205

> <PUBCHEM_SHAPE_FINGERPRINT>
10319926 262 18342446033699033378
11049842 53 18119558473322738342
11545043 162 18272937120156228690
11582403 64 17627760090567046685
11725454 13 17773857736577839261
12107183 9 17972308513397994834
12236239 1 17603867835822980798
12403259 415 17846784018132470248
12422481 6 17824812361500747754
12500047 106 18412262813784889638
12788726 201 18117574026617358915
13140716 1 18122355833310399771
13583140 156 17989197149392270334
14178342 30 18408608037070994991
14294032 229 18262237708641682789
15042514 8 18193564582770838523
15842332 3 17604445096638964428
16752209 62 18408322215777434207
17844677 252 18340492257070622912
1813 80 16805602530546309854
200 152 16443338814727272126
20511986 3 17531232989759587964
20554085 129 18197762324849623465
20645477 70 14851592302706630770
21033648 29 17489579065704463160
21065201 7 18411989056959537318
212916 134 18339634538710190465
21792961 116 17561095683712035492
22182313 1 17774738496957383742
23402539 116 18341047514732199663
23557571 272 18272942621508467421
23559900 14 18199480878777189646
23598291 2 17531821254302597070
312423 11 17823151170760105244
469060 322 18265637475661006537
495365 180 17702935916755863646
5104073 3 18411419467129153658
5265222 85 18198639894569815510
573450 72 18187081767206375028
602551 16 18411421752067546194
7064713 232 18261379028081559834
7615 1 17822296832966397933
77492 1 17603589659396880350
9849439 229 17907299845541663449
9862522 239 17750507387075426413

> <PUBCHEM_SHAPE_MULTIPOLES>
453.17
10.44
2.82
1.57
7.72
0.63
-0.17
-2.85
-1.6
-6.14
-0.27
1.84
-0.56
0.36

> <PUBCHEM_SHAPE_SELFOVERLAP>
1012.993

> <PUBCHEM_SHAPE_VOLUME>
238.5

> <PUBCHEM_COORDINATE_TYPE>
2
5
10

$$$$
