24905342
  -OEChem-10052115143D

 35 37  0     0  0  0  0  0  0999 V2000
    4.0806    0.3357    2.3723 F   0  0  0  0  0  0  0  0  0  0  0  0
    4.0962    0.3376   -2.3823 O   0  0  0  0  0  0  0  0  0  0  0  0
   -2.0915    0.9952   -0.0005 N   0  0  0  0  0  0  0  0  0  0  0  0
   -0.8077    1.3999    0.0007 N   0  0  0  0  0  0  0  0  0  0  0  0
   -3.3876   -1.0499   -0.0023 N   0  0  0  0  0  0  0  0  0  0  0  0
   -1.9560   -3.0251   -0.0017 N   0  0  0  0  0  0  0  0  0  0  0  0
    0.4271   -2.8908    0.0014 N   0  0  0  0  0  0  0  0  0  0  0  0
   -3.1480    1.9791   -0.0009 C   0  0  0  0  0  0  0  0  0  0  0  0
   -2.2357   -0.3604   -0.0011 C   0  0  0  0  0  0  0  0  0  0  0  0
   -0.9535   -0.8809   -0.0002 C   0  0  0  0  0  0  0  0  0  0  0  0
   -0.1197    0.2529    0.0008 C   0  0  0  0  0  0  0  0  0  0  0  0
   -3.1085    2.8471   -1.2612 C   0  0  0  0  0  0  0  0  0  0  0  0
   -3.1102    2.8464    1.2598 C   0  0  0  0  0  0  0  0  0  0  0  0
    1.3212    0.2820    0.0017 C   0  0  0  0  0  0  0  0  0  0  0  0
   -0.8335   -2.2667   -0.0005 C   0  0  0  0  0  0  0  0  0  0  0  0
    2.0196    0.2967   -1.2056 C   0  0  0  0  0  0  0  0  0  0  0  0
    2.0173    0.2953    1.2104 C   0  0  0  0  0  0  0  0  0  0  0  0
   -3.1464   -2.3787   -0.0025 C   0  0  0  0  0  0  0  0  0  0  0  0
    3.4142    0.3243   -1.2043 C   0  0  0  0  0  0  0  0  0  0  0  0
    3.4119    0.3231    1.2117 C   0  0  0  0  0  0  0  0  0  0  0  0
    4.1103    0.3376    0.0044 C   0  0  0  0  0  0  0  0  0  0  0  0
   -4.1007    1.4357   -0.0017 H   0  0  0  0  0  0  0  0  0  0  0  0
   -2.1956    3.4511   -1.3089 H   0  0  0  0  0  0  0  0  0  0  0  0
   -3.9647    3.5294   -1.2874 H   0  0  0  0  0  0  0  0  0  0  0  0
   -3.1440    2.2261   -2.1632 H   0  0  0  0  0  0  0  0  0  0  0  0
   -2.1974    3.4505    1.3091 H   0  0  0  0  0  0  0  0  0  0  0  0
   -3.1469    2.2250    2.1614 H   0  0  0  0  0  0  0  0  0  0  0  0
   -3.9664    3.5287    1.2852 H   0  0  0  0  0  0  0  0  0  0  0  0
    1.4794    0.2857   -2.1500 H   0  0  0  0  0  0  0  0  0  0  0  0
    1.4882    0.2836    2.1602 H   0  0  0  0  0  0  0  0  0  0  0  0
   -4.0243   -3.0157   -0.0034 H   0  0  0  0  0  0  0  0  0  0  0  0
    1.2807   -2.3522    0.0019 H   0  0  0  0  0  0  0  0  0  0  0  0
    0.4692   -3.9012    0.0010 H   0  0  0  0  0  0  0  0  0  0  0  0
    5.1966    0.3590    0.0122 H   0  0  0  0  0  0  0  0  0  0  0  0
    3.4582    0.3251   -3.1163 H   0  0  0  0  0  0  0  0  0  0  0  0
  1 20  1  0  0  0  0
  2 19  1  0  0  0  0
  2 35  1  0  0  0  0
  3  4  1  0  0  0  0
  3  8  1  0  0  0  0
  3  9  1  0  0  0  0
  4 11  2  0  0  0  0
  5  9  2  0  0  0  0
  5 18  1  0  0  0  0
  6 15  1  0  0  0  0
  6 18  2  0  0  0  0
  7 15  1  0  0  0  0
  7 32  1  0  0  0  0
  7 33  1  0  0  0  0
  8 12  1  0  0  0  0
  8 13  1  0  0  0  0
  8 22  1  0  0  0  0
  9 10  1  0  0  0  0
 10 11  1  0  0  0  0
 10 15  2  0  0  0  0
 11 14  1  0  0  0  0
 12 23  1  0  0  0  0
 12 24  1  0  0  0  0
 12 25  1  0  0  0  0
 13 26  1  0  0  0  0
 13 27  1  0  0  0  0
 13 28  1  0  0  0  0
 14 16  2  0  0  0  0
 14 17  1  0  0  0  0
 16 19  1  0  0  0  0
 16 29  1  0  0  0  0
 17 20  2  0  0  0  0
 17 30  1  0  0  0  0
 18 31  1  0  0  0  0
 19 21  2  0  0  0  0
 20 21  1  0  0  0  0
 21 34  1  0  0  0  0
M  END
> <PUBCHEM_COMPOUND_CID>
24905342

> <PUBCHEM_CONFORMER_RMSD>
0.6

> <PUBCHEM_CONFORMER_DIVERSEORDER>
1
6
3
5
4
2

> <PUBCHEM_MMFF94_PARTIAL_CHARGES>
25
1 -0.19
11 0.23
14 0.05
15 0.41
16 -0.15
17 -0.15
18 0.47
19 0.08
2 -0.53
20 0.19
21 -0.15
29 0.15
3 0.31
30 0.15
31 0.15
32 0.4
33 0.4
34 0.15
35 0.45
4 -0.71
5 -0.57
6 -0.62
7 -0.9
8 0.26
9 0.11

> <PUBCHEM_EFFECTIVE_ROTOR_COUNT>
2

> <PUBCHEM_PHARMACOPHORE_FEATURES>
10
1 2 donor
1 4 acceptor
1 7 cation
1 7 donor
3 3 5 9 cation
3 5 6 18 cation
3 8 12 13 hydrophobe
5 3 4 9 10 11 rings
6 14 16 17 19 20 21 rings
6 5 6 9 10 15 18 rings

> <PUBCHEM_HEAVY_ATOM_COUNT>
21

> <PUBCHEM_ATOM_DEF_STEREO_COUNT>
0

> <PUBCHEM_ATOM_UDEF_STEREO_COUNT>
0

> <PUBCHEM_BOND_DEF_STEREO_COUNT>
0

> <PUBCHEM_BOND_UDEF_STEREO_COUNT>
0

> <PUBCHEM_ISOTOPIC_ATOM_COUNT>
0

> <PUBCHEM_COMPONENT_COUNT>
1

> <PUBCHEM_CACTVS_TAUTO_COUNT>
15

> <PUBCHEM_CONFORMER_ID>
017C067E00000001

> <PUBCHEM_MMFF94_ENERGY>
47.0791

> <PUBCHEM_FEATURE_SELFOVERLAP>
51.025

> <PUBCHEM_SHAPE_FINGERPRINT>
10165383 225 18124339128426777841
10319926 262 18198600260447694552
11582403 64 16910821369091316352
11725454 13 17128132175815117120
12160290 23 18410574011406720495
12173636 292 18337951182287308237
12236239 1 17676482891299695790
12500047 106 18412259506849910612
12553582 1 18192437595830821739
12788726 201 18189060961172272483
13140716 1 18122626317291687787
13583140 156 17916566722892052810
13878862 14 16968298112181010801
14022347 108 17974861862454627347
14178342 30 18410284801009202746
15042514 8 18265335186956832851
15842332 3 17749106716651288472
16752209 62 18408882966443771407
16945 1 18410856607306669827
173720 79 18041544850957041909
1741750 31 18341329981524530545
18186145 218 17917438592236029136
19049666 15 17917718972075142018
20510252 161 18271526497950469313
20693207 138 17631191816992031126
20871999 31 18340505442440698412
21065201 7 18413110571910446886
21524375 3 18188207581451514961
22112679 90 17967527991348717572
22149856 69 17976267834161196161
22907989 373 18260823839112878933
22943178 12 17846502543203174004
2334 1 18338517418201739047
23366157 5 17825389578992946579
23402539 116 18270103734689795791
23419403 2 17057217146605201913
23526113 38 17418083304648819752
23557571 272 18201161048345361728
23559900 14 18200881674008040054
23598291 2 17603866702415649974
2748010 2 18193849145754538903
312423 11 17676490566364049378
350125 39 18266468594444974491
458136 41 17979654337767128057
57527295 17 17201926929315413828
6049 1 17774733051202790880
633830 44 17702379559440604665
7615 1 17749382702554553324
77492 1 17676203602366308804
81228 2 18338802337604824403
84936 182 17624125006394463153
88987 49 18409727370231304852
90525 40 18187368730977366159
9862522 239 17896307022485568253

> <PUBCHEM_SHAPE_MULTIPOLES>
394.12
7.59
3.14
1.46
4.91
1.14
0
-2.99
0.09
-4.97
0.02
1.96
-0.73
-0.02

> <PUBCHEM_SHAPE_SELFOVERLAP>
867.547

> <PUBCHEM_SHAPE_VOLUME>
213.8

> <PUBCHEM_COORDINATE_TYPE>
2
5
10

$$$$
