44410869
  -OEChem-10062121563D

 55 58  0     1  0  0  0  0  0999 V2000
   -6.5776    2.7900   -1.4672 Cl  0  0  0  0  0  0  0  0  0  0  0  0
   -4.2003    1.1834   -2.1731 F   0  0  0  0  0  0  0  0  0  0  0  0
    5.6065    1.8271    0.5776 O   0  0  0  0  0  0  0  0  0  0  0  0
    2.5135    0.3202    1.7162 O   0  0  0  0  0  0  0  0  0  0  0  0
    3.4408   -2.3610   -0.7682 O   0  0  0  0  0  0  0  0  0  0  0  0
    3.2233    0.8554   -0.7958 N   0  0  2  0  0  0  0  0  0  0  0  0
    0.8088    1.8638    1.6459 N   0  0  0  0  0  0  0  0  0  0  0  0
   -0.8066   -3.7879    0.8379 N   0  0  0  0  0  0  0  0  0  0  0  0
   -2.6012   -0.2927   -0.4628 N   0  0  0  0  0  0  0  0  0  0  0  0
   -2.7556   -2.3935    0.5851 N   0  0  0  0  0  0  0  0  0  0  0  0
    2.4891    1.8981   -0.0740 C   0  0  2  0  0  0  0  0  0  0  0  0
    4.8129    2.5024   -0.3917 C   0  0  2  0  0  0  0  0  0  0  0  0
    3.5135    2.9937    0.2334 C   0  0  0  0  0  0  0  0  0  0  0  0
    4.3573    1.5144   -1.4508 C   0  0  0  0  0  0  0  0  0  0  0  0
    2.3945    0.1181   -1.7400 C   0  0  0  0  0  0  0  0  0  0  0  0
    1.9613    1.2772    1.1791 C   0  0  0  0  0  0  0  0  0  0  0  0
    1.5518   -0.9197   -1.0566 C   0  0  0  0  0  0  0  0  0  0  0  0
    2.1118   -2.1089   -0.6030 C   0  0  0  0  0  0  0  0  0  0  0  0
    0.1920   -0.6881   -0.8749 C   0  0  0  0  0  0  0  0  0  0  0  0
    6.3108    2.7440    1.4029 C   0  0  0  0  0  0  0  0  0  0  0  0
   -0.6063   -1.6533   -0.2364 C   0  0  0  0  0  0  0  0  0  0  0  0
    1.3112   -3.0637    0.0309 C   0  0  0  0  0  0  0  0  0  0  0  0
   -0.0524   -2.8581    0.2260 C   0  0  0  0  0  0  0  0  0  0  0  0
   -1.9715   -1.4839   -0.0235 C   0  0  0  0  0  0  0  0  0  0  0  0
    3.9300   -3.6057   -0.2726 C   0  0  0  0  0  0  0  0  0  0  0  0
   -2.1170   -3.5052    0.9843 C   0  0  0  0  0  0  0  0  0  0  0  0
   -3.7084    0.4253    0.0159 C   0  0  0  0  0  0  0  0  0  0  0  0
   -4.4993    1.1628   -0.8651 C   0  0  0  0  0  0  0  0  0  0  0  0
   -4.0159    0.4014    1.3763 C   0  0  0  0  0  0  0  0  0  0  0  0
   -5.5977    1.8764   -0.3857 C   0  0  0  0  0  0  0  0  0  0  0  0
   -5.1143    1.1150    1.8556 C   0  0  0  0  0  0  0  0  0  0  0  0
   -5.9052    1.8526    0.9746 C   0  0  0  0  0  0  0  0  0  0  0  0
    1.6727    2.3260   -0.6700 H   0  0  0  0  0  0  0  0  0  0  0  0
    5.3888    3.3165   -0.8477 H   0  0  0  0  0  0  0  0  0  0  0  0
    3.2019    3.9152   -0.2741 H   0  0  0  0  0  0  0  0  0  0  0  0
    3.5902    3.2054    1.3034 H   0  0  0  0  0  0  0  0  0  0  0  0
    4.0372    2.0491   -2.3539 H   0  0  0  0  0  0  0  0  0  0  0  0
    5.1373    0.7908   -1.7078 H   0  0  0  0  0  0  0  0  0  0  0  0
    3.0303   -0.4105   -2.4645 H   0  0  0  0  0  0  0  0  0  0  0  0
    1.7778    0.7898   -2.3526 H   0  0  0  0  0  0  0  0  0  0  0  0
   -0.2273    0.2506   -1.2274 H   0  0  0  0  0  0  0  0  0  0  0  0
    6.9134    2.1672    2.1102 H   0  0  0  0  0  0  0  0  0  0  0  0
    5.6341    3.3815    1.9772 H   0  0  0  0  0  0  0  0  0  0  0  0
    6.9882    3.3600    0.8030 H   0  0  0  0  0  0  0  0  0  0  0  0
    0.3726    2.6538    1.1812 H   0  0  0  0  0  0  0  0  0  0  0  0
    0.3533    1.5222    2.4856 H   0  0  0  0  0  0  0  0  0  0  0  0
    1.7005   -4.0072    0.4028 H   0  0  0  0  0  0  0  0  0  0  0  0
   -2.3314   -0.0271   -1.4062 H   0  0  0  0  0  0  0  0  0  0  0  0
    3.4777   -4.4555   -0.7952 H   0  0  0  0  0  0  0  0  0  0  0  0
    3.8254   -3.6771    0.8154 H   0  0  0  0  0  0  0  0  0  0  0  0
    5.0031   -3.6374   -0.4889 H   0  0  0  0  0  0  0  0  0  0  0  0
   -2.7190   -4.2581    1.4781 H   0  0  0  0  0  0  0  0  0  0  0  0
   -3.4071   -0.1531    2.0854 H   0  0  0  0  0  0  0  0  0  0  0  0
   -5.3518    1.0993    2.9153 H   0  0  0  0  0  0  0  0  0  0  0  0
   -6.7573    2.4045    1.3628 H   0  0  0  0  0  0  0  0  0  0  0  0
  1 30  1  0  0  0  0
  2 28  1  0  0  0  0
  3 12  1  0  0  0  0
  3 20  1  0  0  0  0
  4 16  2  0  0  0  0
  5 18  1  0  0  0  0
  5 25  1  0  0  0  0
  6 11  1  0  0  0  0
  6 14  1  0  0  0  0
  6 15  1  0  0  0  0
  7 16  1  0  0  0  0
  7 45  1  0  0  0  0
  7 46  1  0  0  0  0
  8 23  1  0  0  0  0
  8 26  2  0  0  0  0
  9 24  1  0  0  0  0
  9 27  1  0  0  0  0
  9 48  1  0  0  0  0
 10 24  2  0  0  0  0
 10 26  1  0  0  0  0
 11 13  1  0  0  0  0
 11 16  1  0  0  0  0
 11 33  1  0  0  0  0
 12 13  1  0  0  0  0
 12 14  1  0  0  0  0
 12 34  1  0  0  0  0
 13 35  1  0  0  0  0
 13 36  1  0  0  0  0
 14 37  1  0  0  0  0
 14 38  1  0  0  0  0
 15 17  1  0  0  0  0
 15 39  1  0  0  0  0
 15 40  1  0  0  0  0
 17 18  1  0  0  0  0
 17 19  2  0  0  0  0
 18 22  2  0  0  0  0
 19 21  1  0  0  0  0
 19 41  1  0  0  0  0
 20 42  1  0  0  0  0
 20 43  1  0  0  0  0
 20 44  1  0  0  0  0
 21 23  2  0  0  0  0
 21 24  1  0  0  0  0
 22 23  1  0  0  0  0
 22 47  1  0  0  0  0
 25 49  1  0  0  0  0
 25 50  1  0  0  0  0
 25 51  1  0  0  0  0
 26 52  1  0  0  0  0
 27 28  2  0  0  0  0
 27 29  1  0  0  0  0
 28 30  1  0  0  0  0
 29 31  2  0  0  0  0
 29 53  1  0  0  0  0
 30 32  2  0  0  0  0
 31 32  1  0  0  0  0
 31 54  1  0  0  0  0
 32 55  1  0  0  0  0
M  END
> <PUBCHEM_COMPOUND_CID>
44410869

> <PUBCHEM_CONFORMER_RMSD>
1

> <PUBCHEM_CONFORMER_DIVERSEORDER>
1
200
103
118
15
33
177
22
168
201
30
74
155
28
102
119
157
31
72
191
135
129
58
110
71
194
63
29
128
26
34
163
146
123
183
98
90
125
179
46
166
141
156
66
84
95
39
153
173
42
76
16
62
105
151
178
93
91
134
38
73
79
150
9
78
133
81
195
130
197
187
189
144
97
171
60
32
185
70
186
51
100
167
19
61
55
111
41
132
140
65
107
165
196
59
162
115
158
48
87
117
67
108
149
190
52
2
21
37
169
36
64
104
139
49
181
75
99
56
138
40
50
80
35
8
11
77
164
192
142
152
54
17
113
182
126
176
4
24
47
20
127
131
198
175
89
85
45
148
57
53
5
121
180
10
124
199
161
14
109
145
96
82
27
116
13
120
154
3
23
68
143
114
136
137
12
147
122
43
83
106
94
7
101
69
174
193
44
6
172
160
170
188
25
112
86
184
159
92
18
88

> <PUBCHEM_MMFF94_PARTIAL_CHARGES>
39
1 -0.18
10 -0.62
11 0.33
12 0.28
14 0.27
15 0.41
16 0.57
17 -0.14
18 0.08
19 -0.15
2 -0.19
20 0.28
22 -0.15
23 0.31
24 0.41
25 0.28
26 0.47
27 0.1
28 0.19
29 -0.15
3 -0.56
30 0.18
31 -0.15
32 -0.15
4 -0.57
41 0.15
45 0.37
46 0.37
47 0.15
48 0.4
5 -0.36
52 0.15
53 0.15
54 0.15
55 0.15
6 -0.81
7 -0.8
8 -0.62
9 -0.6

> <PUBCHEM_EFFECTIVE_ROTOR_COUNT>
8

> <PUBCHEM_PHARMACOPHORE_FEATURES>
12
1 3 acceptor
1 4 acceptor
1 5 acceptor
1 6 cation
1 7 donor
1 9 donor
3 8 10 26 cation
3 9 10 24 cation
5 6 11 12 13 14 rings
6 17 18 19 21 22 23 rings
6 27 28 29 30 31 32 rings
6 8 10 21 23 24 26 rings

> <PUBCHEM_HEAVY_ATOM_COUNT>
32

> <PUBCHEM_ATOM_DEF_STEREO_COUNT>
2

> <PUBCHEM_ATOM_UDEF_STEREO_COUNT>
0

> <PUBCHEM_BOND_DEF_STEREO_COUNT>
0

> <PUBCHEM_BOND_UDEF_STEREO_COUNT>
0

> <PUBCHEM_ISOTOPIC_ATOM_COUNT>
0

> <PUBCHEM_COMPONENT_COUNT>
1

> <PUBCHEM_CACTVS_TAUTO_COUNT>
6

> <PUBCHEM_CONFORMER_ID>
02A5A7F500000001

> <PUBCHEM_MMFF94_ENERGY>
114.3885

> <PUBCHEM_FEATURE_SELFOVERLAP>
61.069

> <PUBCHEM_SHAPE_FINGERPRINT>
10165383 225 18190202164142218093
10319926 262 16660653908218869673
105312 117 18336262435648657769
10675989 125 18268150846850655585
1100329 8 17981060621813182778
11456790 92 17391924652341645001
11578080 2 18264508297855443750
12107183 9 18260817216658274080
12403259 415 18188220806014314199
12422481 6 18114165463868185248
12788726 201 18049148162800177763
12925494 130 18410574019901813786
13140716 1 18334867099284570403
13540713 4 18338817687660600806
13726171 33 18050586323835443512
13878862 14 18262787459458535605
13965767 371 17822002112320875062
14178342 30 17971201553849164462
144659 39 17967527991069162513
14466204 15 18268146646878749768
14848178 96 18412827971573209329
14932701 244 18057033838882762087
15081414 286 17979925908096151719
18608769 82 18198346350460611291
21033648 144 18411699876990612335
21033648 29 18040437655638178565
21279426 13 18200047217549276636
21859007 373 17605265186464076845
22122407 14 17981625771159768537
23559900 14 18341618062467560102
469060 322 17829352498525805339
474 4 18341609283574694043
508706 21 18194974160465582439
5104073 3 18261402143532607403
513532 50 16056586656535595136
5252454 2 18336559277996904103
5265222 85 17833844038433524244
7808743 9 18261962971523906901
9981440 41 18267022932688579754

> <PUBCHEM_SHAPE_MULTIPOLES>
610.63
14.04
4.9
1.63
9.51
3.39
0.03
-16.28
0.03
-3.18
0.71
0.65
-0.83
2.34

> <PUBCHEM_SHAPE_SELFOVERLAP>
1321.859

> <PUBCHEM_SHAPE_VOLUME>
336.5

> <PUBCHEM_COORDINATE_TYPE>
2
5
10

$$$$
