11442386
  -OEChem-10062121533D

 65 70  0     0  0  0  0  0  0999 V2000
   -3.6261    0.0852    0.2456 O   0  0  0  0  0  0  0  0  0  0  0  0
    4.3944    3.5677   -0.0257 N   0  0  0  0  0  0  0  0  0  0  0  0
    2.5805   -2.5376   -0.4285 N   0  0  0  0  0  0  0  0  0  0  0  0
    1.8636   -0.8978    0.8838 N   0  0  0  0  0  0  0  0  0  0  0  0
    1.3520   -4.7626   -1.5413 N   0  0  0  0  0  0  0  0  0  0  0  0
   -0.7050   -4.2731   -0.5901 N   0  0  0  0  0  0  0  0  0  0  0  0
    4.0288    1.2108   -0.5707 C   0  0  0  0  0  0  0  0  0  0  0  0
    4.3118   -0.7301    0.2529 C   0  0  0  0  0  0  0  0  0  0  0  0
    4.6937   -0.0799   -1.0930 C   0  0  0  0  0  0  0  0  0  0  0  0
    4.3164    0.6911    0.8534 C   0  0  0  0  0  0  0  0  0  0  0  0
    4.7478    2.4915   -0.9393 C   0  0  0  0  0  0  0  0  0  0  0  0
    2.8982   -1.3919    0.2404 C   0  0  0  0  0  0  0  0  0  0  0  0
    5.0975    4.8133   -0.3314 C   0  0  0  0  0  0  0  0  0  0  0  0
    2.9735    3.9088   -0.0878 C   0  0  0  0  0  0  0  0  0  0  0  0
    4.3103    5.8514    0.4548 C   0  0  0  0  0  0  0  0  0  0  0  0
    2.9155    5.2554    0.6180 C   0  0  0  0  0  0  0  0  0  0  0  0
    1.2504   -2.7911   -0.1945 C   0  0  0  0  0  0  0  0  0  0  0  0
    0.8295   -1.7653    0.6182 C   0  0  0  0  0  0  0  0  0  0  0  0
    3.3182   -3.3910   -1.2223 C   0  0  0  0  0  0  0  0  0  0  0  0
    0.6219   -3.9631   -0.7860 C   0  0  0  0  0  0  0  0  0  0  0  0
   -0.4865   -1.5727    1.1456 C   0  0  0  0  0  0  0  0  0  0  0  0
    2.6888   -4.4579   -1.7440 C   0  0  0  0  0  0  0  0  0  0  0  0
   -1.4282   -0.8277    0.4308 C   0  0  0  0  0  0  0  0  0  0  0  0
   -0.8371   -2.1289    2.3788 C   0  0  0  0  0  0  0  0  0  0  0  0
   -2.7110   -0.6401    0.9451 C   0  0  0  0  0  0  0  0  0  0  0  0
   -2.1201   -1.9413    2.8931 C   0  0  0  0  0  0  0  0  0  0  0  0
   -3.0570   -1.1970    2.1763 C   0  0  0  0  0  0  0  0  0  0  0  0
   -4.9189    0.2361    0.8298 C   0  0  0  0  0  0  0  0  0  0  0  0
   -5.7667    1.0864   -0.0700 C   0  0  0  0  0  0  0  0  0  0  0  0
   -5.7779    2.4668    0.0970 C   0  0  0  0  0  0  0  0  0  0  0  0
   -6.5334    0.4867   -1.0628 C   0  0  0  0  0  0  0  0  0  0  0  0
   -6.5659    3.2575   -0.7394 C   0  0  0  0  0  0  0  0  0  0  0  0
   -7.3214    1.2775   -1.8992 C   0  0  0  0  0  0  0  0  0  0  0  0
   -7.3378    2.6627   -1.7375 C   0  0  0  0  0  0  0  0  0  0  0  0
    2.9568    1.2452   -0.8114 H   0  0  0  0  0  0  0  0  0  0  0  0
    5.0675   -1.4021    0.6726 H   0  0  0  0  0  0  0  0  0  0  0  0
    4.2471   -0.5010   -1.9984 H   0  0  0  0  0  0  0  0  0  0  0  0
    5.7782   -0.0155   -1.2459 H   0  0  0  0  0  0  0  0  0  0  0  0
    5.2962    0.9771    1.2579 H   0  0  0  0  0  0  0  0  0  0  0  0
    3.5619    0.9258    1.6095 H   0  0  0  0  0  0  0  0  0  0  0  0
    4.5231    2.7551   -1.9810 H   0  0  0  0  0  0  0  0  0  0  0  0
    5.8330    2.3358   -0.8834 H   0  0  0  0  0  0  0  0  0  0  0  0
    5.0569    5.0513   -1.4022 H   0  0  0  0  0  0  0  0  0  0  0  0
    6.1464    4.7829   -0.0204 H   0  0  0  0  0  0  0  0  0  0  0  0
    2.3367    3.1793    0.4223 H   0  0  0  0  0  0  0  0  0  0  0  0
    2.6242    4.0183   -1.1227 H   0  0  0  0  0  0  0  0  0  0  0  0
    4.7603    6.0172    1.4407 H   0  0  0  0  0  0  0  0  0  0  0  0
    4.2817    6.8132   -0.0673 H   0  0  0  0  0  0  0  0  0  0  0  0
    2.1451    5.9024    0.1865 H   0  0  0  0  0  0  0  0  0  0  0  0
    2.6897    5.1279    1.6833 H   0  0  0  0  0  0  0  0  0  0  0  0
    4.3649   -3.1762   -1.3938 H   0  0  0  0  0  0  0  0  0  0  0  0
    3.2337   -5.1537   -2.3730 H   0  0  0  0  0  0  0  0  0  0  0  0
   -1.1690   -0.3889   -0.5307 H   0  0  0  0  0  0  0  0  0  0  0  0
   -0.1190   -2.7123    2.9505 H   0  0  0  0  0  0  0  0  0  0  0  0
   -1.1086   -5.0991   -1.0192 H   0  0  0  0  0  0  0  0  0  0  0  0
   -1.3258   -3.7073   -0.0245 H   0  0  0  0  0  0  0  0  0  0  0  0
   -2.3887   -2.3762    3.8515 H   0  0  0  0  0  0  0  0  0  0  0  0
   -4.0337   -1.0959    2.6365 H   0  0  0  0  0  0  0  0  0  0  0  0
   -4.8515    0.7311    1.8078 H   0  0  0  0  0  0  0  0  0  0  0  0
   -5.4066   -0.7401    0.9529 H   0  0  0  0  0  0  0  0  0  0  0  0
   -5.1788    2.9413    0.8693 H   0  0  0  0  0  0  0  0  0  0  0  0
   -6.5267   -0.5911   -1.1996 H   0  0  0  0  0  0  0  0  0  0  0  0
   -6.5781    4.3363   -0.6140 H   0  0  0  0  0  0  0  0  0  0  0  0
   -7.9218    0.8145   -2.6770 H   0  0  0  0  0  0  0  0  0  0  0  0
   -7.9511    3.2784   -2.3890 H   0  0  0  0  0  0  0  0  0  0  0  0
  1 25  1  0  0  0  0
  1 28  1  0  0  0  0
  2 11  1  0  0  0  0
  2 13  1  0  0  0  0
  2 14  1  0  0  0  0
  3 12  1  0  0  0  0
  3 17  1  0  0  0  0
  3 19  1  0  0  0  0
  4 12  2  0  0  0  0
  4 18  1  0  0  0  0
  5 20  2  0  0  0  0
  5 22  1  0  0  0  0
  6 20  1  0  0  0  0
  6 55  1  0  0  0  0
  6 56  1  0  0  0  0
  7  9  1  0  0  0  0
  7 10  1  0  0  0  0
  7 11  1  0  0  0  0
  7 35  1  0  0  0  0
  8  9  1  0  0  0  0
  8 10  1  0  0  0  0
  8 12  1  0  0  0  0
  8 36  1  0  0  0  0
  9 37  1  0  0  0  0
  9 38  1  0  0  0  0
 10 39  1  0  0  0  0
 10 40  1  0  0  0  0
 11 41  1  0  0  0  0
 11 42  1  0  0  0  0
 13 15  1  0  0  0  0
 13 43  1  0  0  0  0
 13 44  1  0  0  0  0
 14 16  1  0  0  0  0
 14 45  1  0  0  0  0
 14 46  1  0  0  0  0
 15 16  1  0  0  0  0
 15 47  1  0  0  0  0
 15 48  1  0  0  0  0
 16 49  1  0  0  0  0
 16 50  1  0  0  0  0
 17 18  2  0  0  0  0
 17 20  1  0  0  0  0
 18 21  1  0  0  0  0
 19 22  2  0  0  0  0
 19 51  1  0  0  0  0
 21 23  2  0  0  0  0
 21 24  1  0  0  0  0
 22 52  1  0  0  0  0
 23 25  1  0  0  0  0
 23 53  1  0  0  0  0
 24 26  2  0  0  0  0
 24 54  1  0  0  0  0
 25 27  2  0  0  0  0
 26 27  1  0  0  0  0
 26 57  1  0  0  0  0
 27 58  1  0  0  0  0
 28 29  1  0  0  0  0
 28 59  1  0  0  0  0
 28 60  1  0  0  0  0
 29 30  2  0  0  0  0
 29 31  1  0  0  0  0
 30 32  1  0  0  0  0
 30 61  1  0  0  0  0
 31 33  2  0  0  0  0
 31 62  1  0  0  0  0
 32 34  2  0  0  0  0
 32 63  1  0  0  0  0
 33 34  1  0  0  0  0
 33 64  1  0  0  0  0
 34 65  1  0  0  0  0
M  END
> <PUBCHEM_COMPOUND_CID>
11442386

> <PUBCHEM_CONFORMER_RMSD>
1

> <PUBCHEM_CONFORMER_DIVERSEORDER>
1
82
131
149
71
42
142
125
12
183
168
167
103
29
95
80
41
180
96
172
7
58
137
175
33
88
178
134
52
92
126
65
132
154
91
35
102
165
140
106
73
181
138
57
135
176
152
78
59
118
158
104
151
124
105
128
27
94
49
25
67
117
182
66
74
116
51
85
99
169
98
177
56
179
13
100
155
184
53
68
147
148
130
145
139
97
115
133
101
156
10
69
79
47
122
123
89
32
173
54
3
113
163
159
112
93
39
90
21
162
84
144
174
164
153
160
146
171
55
70
19
157
16
30
120
114
45
22
40
18
72
60
61
109
75
81
34
129
170
11
2
37
63
150
4
6
64
24
5
20
44
166
23
127
161
76
87
15
17
111
108
83
143
86
14
77
50
141
9
38
26
48
28
36
8
43
31
46
62
136
110
107
119
121

> <PUBCHEM_MMFF94_PARTIAL_CHARGES>
42
1 -0.36
11 0.27
12 0.03
13 0.27
14 0.27
17 -0.24
18 0.17
19 -0.18
2 -0.81
20 0.58
21 0.05
22 0.02
23 -0.15
24 -0.15
25 0.08
26 -0.15
27 -0.15
28 0.42
29 -0.14
3 0.33
30 -0.15
31 -0.15
32 -0.15
33 -0.15
34 -0.15
4 -0.57
5 -0.62
51 0.15
52 0.15
53 0.15
54 0.15
55 0.4
56 0.4
57 0.15
58 0.15
6 -0.85
61 0.15
62 0.15
63 0.15
64 0.15
65 0.15
8 0.16

> <PUBCHEM_EFFECTIVE_ROTOR_COUNT>
8.8

> <PUBCHEM_PHARMACOPHORE_FEATURES>
11
1 1 acceptor
1 2 cation
1 6 donor
3 3 4 12 cation
3 5 6 20 cation
4 7 8 9 10 rings
5 2 13 14 15 16 rings
5 3 4 12 17 18 rings
6 21 23 24 25 26 27 rings
6 29 30 31 32 33 34 rings
6 3 5 17 19 20 22 rings

> <PUBCHEM_HEAVY_ATOM_COUNT>
34

> <PUBCHEM_ATOM_DEF_STEREO_COUNT>
0

> <PUBCHEM_ATOM_UDEF_STEREO_COUNT>
0

> <PUBCHEM_BOND_DEF_STEREO_COUNT>
0

> <PUBCHEM_BOND_UDEF_STEREO_COUNT>
0

> <PUBCHEM_ISOTOPIC_ATOM_COUNT>
0

> <PUBCHEM_COMPONENT_COUNT>
1

> <PUBCHEM_CACTVS_TAUTO_COUNT>
2

> <PUBCHEM_CONFORMER_ID>
00AE98D200000001

> <PUBCHEM_MMFF94_ENERGY>
100.516

> <PUBCHEM_FEATURE_SELFOVERLAP>
55.925

> <PUBCHEM_SHAPE_FINGERPRINT>
10258939 38 17899711342577200731
10556698 54 17900811661943723093
10673678 19 18413106186521789583
10811444 77 18408037416227355305
10864689 126 18338527455841776716
11146346 40 18272073995551621761
11374522 363 18120377806838142261
11386260 185 18268990882265552412
11479125 193 18268422602643357661
11621639 179 18261681450326267876
12857493 111 17977103466358589802
13944108 23 18335987446036206252
14117953 113 18341050736279138996
14747282 140 17477516521173909289
14747282 540 18260554390456937484
15082195 135 18342172246260140489
15274700 147 17471865074546152133
15324884 4 17972634097405051067
15530120 55 18058993031349095949
15705408 1 17484266070842698838
15721738 15 18271803566175645065
15979999 66 17982737364066363446
16988056 13 18267309725113760452
16992828 155 17401497433742520225
19246450 95 18194104443523351056
19304152 47 17395586442684685176
20505436 4 12975617619010879562
21049683 118 17095516293090542209
21857420 4 18193570960896902940
23522609 53 17488760986858112201
23576562 1 18343591720125382142
27425 322 18260541200496143959
2838139 119 18334292097847530395
312425 54 9078244775139815751
376196 1 18333733558514409538
437795 171 17545884188179993689
5109719 28 18261399927809290265
5223283 242 17693670221111271575
5951187 136 18260824847960818282
6036956 94 17396703550324364197
6086070 43 18116725010220040963

> <PUBCHEM_SHAPE_MULTIPOLES>
668.93
16.93
8.45
1.91
31.66
6.2
-0.72
23.39
7.97
-13.34
2.22
1.95
-1.6
4.39

> <PUBCHEM_SHAPE_SELFOVERLAP>
1470.768

> <PUBCHEM_SHAPE_VOLUME>
361.7

> <PUBCHEM_COORDINATE_TYPE>
2
5
10

$$$$
