2813676
  -OEChem-10052115183D

 31 33  0     1  0  0  0  0  0999 V2000
    2.5496    0.0564   -2.2973 Cl  0  0  0  0  0  0  0  0  0  0  0  0
   -2.6964   -0.3420    0.6486 O   0  0  0  0  0  0  0  0  0  0  0  0
   -1.9003    2.8687   -0.0331 N   0  0  0  0  0  0  0  0  0  0  0  0
   -2.7567    1.9770    0.5100 N   0  0  0  0  0  0  0  0  0  0  0  0
   -2.7073   -2.6592    0.6757 N   0  0  0  0  0  0  0  0  0  0  0  0
    0.3068   -3.7725   -0.9790 N   0  0  0  0  0  0  0  0  0  0  0  0
   -0.0915   -0.2395   -0.7351 C   0  0  1  0  0  0  0  0  0  0  0  0
   -0.9101    0.9478   -0.3859 C   0  0  0  0  0  0  0  0  0  0  0  0
    1.1665   -0.0498    0.0485 C   0  0  0  0  0  0  0  0  0  0  0  0
   -0.8210   -1.5288   -0.3352 C   0  0  0  0  0  0  0  0  0  0  0  0
   -0.7848    2.3012   -0.5926 C   0  0  0  0  0  0  0  0  0  0  0  0
   -2.1375    0.8243    0.2747 C   0  0  0  0  0  0  0  0  0  0  0  0
   -2.0255   -1.5312    0.3053 C   0  0  0  0  0  0  0  0  0  0  0  0
    2.4051    0.0925   -0.5778 C   0  0  0  0  0  0  0  0  0  0  0  0
    1.0816   -0.0163    1.4406 C   0  0  0  0  0  0  0  0  0  0  0  0
    0.2547    3.1104   -1.2501 C   0  0  0  0  0  0  0  0  0  0  0  0
    3.5579    0.2684    0.1878 C   0  0  0  0  0  0  0  0  0  0  0  0
    2.2344    0.1594    2.2060 C   0  0  0  0  0  0  0  0  0  0  0  0
   -0.1980   -2.7685   -0.6908 C   0  0  0  0  0  0  0  0  0  0  0  0
    3.4724    0.3017    1.5796 C   0  0  0  0  0  0  0  0  0  0  0  0
    0.0388   -0.2520   -1.8213 H   0  0  0  0  0  0  0  0  0  0  0  0
   -2.1438    3.8507    0.0081 H   0  0  0  0  0  0  0  0  0  0  0  0
    0.1384   -0.1303    1.9676 H   0  0  0  0  0  0  0  0  0  0  0  0
    1.1402    3.1897   -0.6116 H   0  0  0  0  0  0  0  0  0  0  0  0
    0.5548    2.6571   -2.2000 H   0  0  0  0  0  0  0  0  0  0  0  0
   -0.0975    4.1247   -1.4650 H   0  0  0  0  0  0  0  0  0  0  0  0
    4.5302    0.3809   -0.2850 H   0  0  0  0  0  0  0  0  0  0  0  0
    2.1686    0.1840    3.2898 H   0  0  0  0  0  0  0  0  0  0  0  0
    4.3700    0.4382    2.1758 H   0  0  0  0  0  0  0  0  0  0  0  0
   -2.3334   -3.5801    0.4873 H   0  0  0  0  0  0  0  0  0  0  0  0
   -3.5975   -2.5580    1.1467 H   0  0  0  0  0  0  0  0  0  0  0  0
  1 14  1  0  0  0  0
  2 12  1  0  0  0  0
  2 13  1  0  0  0  0
  3  4  1  0  0  0  0
  3 11  1  0  0  0  0
  3 22  1  0  0  0  0
  4 12  2  0  0  0  0
  5 13  1  0  0  0  0
  5 30  1  0  0  0  0
  5 31  1  0  0  0  0
  6 19  3  0  0  0  0
  7  8  1  0  0  0  0
  7  9  1  0  0  0  0
  7 10  1  0  0  0  0
  7 21  1  0  0  0  0
  8 11  2  0  0  0  0
  8 12  1  0  0  0  0
  9 14  1  0  0  0  0
  9 15  2  0  0  0  0
 10 13  2  0  0  0  0
 10 19  1  0  0  0  0
 11 16  1  0  0  0  0
 14 17  2  0  0  0  0
 15 18  1  0  0  0  0
 15 23  1  0  0  0  0
 16 24  1  0  0  0  0
 16 25  1  0  0  0  0
 16 26  1  0  0  0  0
 17 20  1  0  0  0  0
 17 27  1  0  0  0  0
 18 20  2  0  0  0  0
 18 28  1  0  0  0  0
 20 29  1  0  0  0  0
M  END
> <PUBCHEM_COMPOUND_CID>
2813676

> <PUBCHEM_CONFORMER_RMSD>
0.6

> <PUBCHEM_CONFORMER_DIVERSEORDER>
1
4
3
2

> <PUBCHEM_MMFF94_PARTIAL_CHARGES>
27
1 -0.18
10 -0.07
11 -0.33
12 0.35
13 0.18
14 0.18
15 -0.15
16 0.18
17 -0.15
18 -0.15
19 0.49
2 -0.14
20 -0.15
22 0.27
23 0.15
27 0.15
28 0.15
29 0.15
3 0.3
30 0.4
31 0.4
4 -0.71
5 -0.9
6 -0.56
7 0.46
8 -0.18
9 -0.14

> <PUBCHEM_EFFECTIVE_ROTOR_COUNT>
1.4

> <PUBCHEM_PHARMACOPHORE_FEATURES>
7
1 3 donor
1 5 cation
1 5 donor
1 6 acceptor
5 3 4 8 11 12 rings
6 2 7 8 10 12 13 rings
6 9 14 15 17 18 20 rings

> <PUBCHEM_HEAVY_ATOM_COUNT>
20

> <PUBCHEM_ATOM_DEF_STEREO_COUNT>
0

> <PUBCHEM_ATOM_UDEF_STEREO_COUNT>
1

> <PUBCHEM_BOND_DEF_STEREO_COUNT>
0

> <PUBCHEM_BOND_UDEF_STEREO_COUNT>
0

> <PUBCHEM_ISOTOPIC_ATOM_COUNT>
0

> <PUBCHEM_COMPONENT_COUNT>
1

> <PUBCHEM_CACTVS_TAUTO_COUNT>
4

> <PUBCHEM_CONFORMER_ID>
002AEEEC00000001

> <PUBCHEM_MMFF94_ENERGY>
46.06

> <PUBCHEM_FEATURE_SELFOVERLAP>
35.638

> <PUBCHEM_SHAPE_FINGERPRINT>
10165383 225 17910704001737786920
11112241 14 16698317666492419946
12553582 1 17978512258365352382
12716301 132 18343014493488892186
13140716 1 18266188412385035705
13538477 17 18113330908076690528
13583140 156 17626057093785688656
14817 1 9405726972767282638
15375462 175 18339094751494226150
15852999 172 17902481849553159741
16945 1 18409177601331996397
19049666 15 17774451477394275106
20600515 1 18124860511411739229
21421861 104 16608568212297065067
21524375 3 17980737377757266089
22112679 90 18113903783752403932
22149856 69 17615422359931457409
2334 1 17978524353351395301
23419403 2 16190802017966364879
23526113 38 17631461064154911638
23557571 272 18270410519951076908
23598288 3 18114728417526054850
23598294 1 18335703875193660292
2748010 2 18341342106096108863
34934 24 17618512424683064117
350125 39 17834685889802318209
427121 178 18055927497987959689
5845 1 12782315602092618250
7097593 13 17825086148501381426
7364860 26 17550941494963198855
77492 1 17603589642501841164
81228 2 18125699408835369566
90316 7 18114451284571675160
90525 40 18334290929484335946

> <PUBCHEM_SHAPE_MULTIPOLES>
387.67
4.58
3.49
1.68
1.87
0.63
-0.03
-0.1
-1.49
-2.73
1.32
1.7
0.01
0.08

> <PUBCHEM_SHAPE_SELFOVERLAP>
850.297

> <PUBCHEM_SHAPE_VOLUME>
211

> <PUBCHEM_COORDINATE_TYPE>
2
5
10

$$$$
