49830929
  -OEChem-10052120443D

 56 59  0     0  0  0  0  0  0999 V2000
   -6.5319    0.1813    1.5685 F   0  0  0  0  0  0  0  0  0  0  0  0
   -8.1714    2.3419    1.3588 F   0  0  0  0  0  0  0  0  0  0  0  0
    1.8631   -2.3302    0.2866 O   0  0  0  0  0  0  0  0  0  0  0  0
    5.9837    0.6952    0.5197 N   0  0  0  0  0  0  0  0  0  0  0  0
    8.7758    1.0742   -0.1274 N   0  0  0  0  0  0  0  0  0  0  0  0
    0.0329   -0.8709    0.0934 N   0  0  0  0  0  0  0  0  0  0  0  0
   -0.9382   -3.0821    0.0634 N   0  0  0  0  0  0  0  0  0  0  0  0
   -2.2047   -3.5273   -0.0351 N   0  0  0  0  0  0  0  0  0  0  0  0
   -4.4551   -2.6536   -0.2503 N   0  0  0  0  0  0  0  0  0  0  0  0
   -5.1464   -1.5263   -0.3371 N   0  0  0  0  0  0  0  0  0  0  0  0
    6.5330    0.2595   -0.7701 C   0  0  0  0  0  0  0  0  0  0  0  0
    6.7360    1.8460    1.0340 C   0  0  0  0  0  0  0  0  0  0  0  0
    8.0231   -0.0756   -0.6435 C   0  0  0  0  0  0  0  0  0  0  0  0
    8.2258    1.5104    1.1620 C   0  0  0  0  0  0  0  0  0  0  0  0
    4.5631    1.0162    0.3972 C   0  0  0  0  0  0  0  0  0  0  0  0
   10.1960    0.7516   -0.0034 C   0  0  0  0  0  0  0  0  0  0  0  0
    3.7284   -0.2627    0.3969 C   0  0  0  0  0  0  0  0  0  0  0  0
    2.2389    0.0495    0.2610 C   0  0  0  0  0  0  0  0  0  0  0  0
   10.7914    0.3688   -1.3478 C   0  0  0  0  0  0  0  0  0  0  0  0
    1.3783   -1.2057    0.2175 C   0  0  0  0  0  0  0  0  0  0  0  0
   -1.0721   -1.7518    0.0195 C   0  0  0  0  0  0  0  0  0  0  0  0
   -2.4142   -1.3424   -0.1061 C   0  0  0  0  0  0  0  0  0  0  0  0
   -3.1237   -2.5277   -0.1385 C   0  0  0  0  0  0  0  0  0  0  0  0
   -3.1366   -0.1561   -0.1973 C   0  0  0  0  0  0  0  0  0  0  0  0
   -4.5093   -0.3261   -0.3114 C   0  0  0  0  0  0  0  0  0  0  0  0
   -5.3839    0.8181   -0.4145 C   0  0  0  0  0  0  0  0  0  0  0  0
   -6.3759    1.0308    0.5426 C   0  0  0  0  0  0  0  0  0  0  0  0
   -5.2356    1.7114   -1.4757 C   0  0  0  0  0  0  0  0  0  0  0  0
   -7.2197    2.1366    0.4388 C   0  0  0  0  0  0  0  0  0  0  0  0
   -6.0793    2.8172   -1.5795 C   0  0  0  0  0  0  0  0  0  0  0  0
   -7.0715    3.0297   -0.6223 C   0  0  0  0  0  0  0  0  0  0  0  0
    6.0253   -0.6421   -1.1284 H   0  0  0  0  0  0  0  0  0  0  0  0
    6.3969    1.0351   -1.5364 H   0  0  0  0  0  0  0  0  0  0  0  0
    6.3631    2.1216    2.0281 H   0  0  0  0  0  0  0  0  0  0  0  0
    6.6071    2.7205    0.3817 H   0  0  0  0  0  0  0  0  0  0  0  0
    8.3589   -0.3521   -1.6483 H   0  0  0  0  0  0  0  0  0  0  0  0
    8.1520   -0.9540    0.0034 H   0  0  0  0  0  0  0  0  0  0  0  0
    8.3649    0.7366    1.9294 H   0  0  0  0  0  0  0  0  0  0  0  0
    8.7526    2.4090    1.5054 H   0  0  0  0  0  0  0  0  0  0  0  0
    4.3593    1.6235   -0.4942 H   0  0  0  0  0  0  0  0  0  0  0  0
    4.2393    1.6120    1.2610 H   0  0  0  0  0  0  0  0  0  0  0  0
   10.7337    1.6353    0.3619 H   0  0  0  0  0  0  0  0  0  0  0  0
   10.3693   -0.0554    0.7196 H   0  0  0  0  0  0  0  0  0  0  0  0
    3.9029   -0.8238    1.3242 H   0  0  0  0  0  0  0  0  0  0  0  0
    4.0185   -0.9228   -0.4281 H   0  0  0  0  0  0  0  0  0  0  0  0
    1.9076    0.6641    1.1067 H   0  0  0  0  0  0  0  0  0  0  0  0
    2.0595    0.6168   -0.6604 H   0  0  0  0  0  0  0  0  0  0  0  0
   11.8846    0.3567   -1.2729 H   0  0  0  0  0  0  0  0  0  0  0  0
   10.5261    1.0892   -2.1291 H   0  0  0  0  0  0  0  0  0  0  0  0
   10.4891   -0.6324   -1.6696 H   0  0  0  0  0  0  0  0  0  0  0  0
   -0.2139    0.1151    0.0482 H   0  0  0  0  0  0  0  0  0  0  0  0
   -2.6589    0.8162   -0.1751 H   0  0  0  0  0  0  0  0  0  0  0  0
   -2.3665   -4.5266   -0.0249 H   0  0  0  0  0  0  0  0  0  0  0  0
   -4.4727    1.5613   -2.2361 H   0  0  0  0  0  0  0  0  0  0  0  0
   -5.9650    3.5121   -2.4063 H   0  0  0  0  0  0  0  0  0  0  0  0
   -7.7286    3.8906   -0.7029 H   0  0  0  0  0  0  0  0  0  0  0  0
  1 27  1  0  0  0  0
  2 29  1  0  0  0  0
  3 20  2  0  0  0  0
  4 11  1  0  0  0  0
  4 12  1  0  0  0  0
  4 15  1  0  0  0  0
  5 13  1  0  0  0  0
  5 14  1  0  0  0  0
  5 16  1  0  0  0  0
  6 20  1  0  0  0  0
  6 21  1  0  0  0  0
  6 51  1  0  0  0  0
  7  8  1  0  0  0  0
  7 21  2  0  0  0  0
  8 23  1  0  0  0  0
  8 53  1  0  0  0  0
  9 10  1  0  0  0  0
  9 23  2  0  0  0  0
 10 25  2  0  0  0  0
 11 13  1  0  0  0  0
 11 32  1  0  0  0  0
 11 33  1  0  0  0  0
 12 14  1  0  0  0  0
 12 34  1  0  0  0  0
 12 35  1  0  0  0  0
 13 36  1  0  0  0  0
 13 37  1  0  0  0  0
 14 38  1  0  0  0  0
 14 39  1  0  0  0  0
 15 17  1  0  0  0  0
 15 40  1  0  0  0  0
 15 41  1  0  0  0  0
 16 19  1  0  0  0  0
 16 42  1  0  0  0  0
 16 43  1  0  0  0  0
 17 18  1  0  0  0  0
 17 44  1  0  0  0  0
 17 45  1  0  0  0  0
 18 20  1  0  0  0  0
 18 46  1  0  0  0  0
 18 47  1  0  0  0  0
 19 48  1  0  0  0  0
 19 49  1  0  0  0  0
 19 50  1  0  0  0  0
 21 22  1  0  0  0  0
 22 23  1  0  0  0  0
 22 24  2  0  0  0  0
 24 25  1  0  0  0  0
 24 52  1  0  0  0  0
 25 26  1  0  0  0  0
 26 27  2  0  0  0  0
 26 28  1  0  0  0  0
 27 29  1  0  0  0  0
 28 30  2  0  0  0  0
 28 54  1  0  0  0  0
 29 31  2  0  0  0  0
 30 31  1  0  0  0  0
 30 55  1  0  0  0  0
 31 56  1  0  0  0  0
M  END
> <PUBCHEM_COMPOUND_CID>
49830929

> <PUBCHEM_CONFORMER_RMSD>
1.2

> <PUBCHEM_CONFORMER_DIVERSEORDER>
1
38
95
39
86
85
113
37
99
56
35
51
103
91
14
78
49
48
30
8
102
107
52
81
97
50
84
90
66
93
15
114
98
108
94
76
62
43
23
111
29
2
47
65
68
64
17
115
58
122
100
45
77
106
72
19
36
69
63
79
110
27
22
92
34
80
74
104
96
25
119
53
46
24
55
75
101
73
21
33
42
88
61
87
12
82
18
28
83
11
117
71
112
44
20
105
109
10
57
70
116
121
67
3
16
118
7
60
54
31
40
13
123
59
32
4
41
6
9
120
26
5
89

> <PUBCHEM_MMFF94_PARTIAL_CHARGES>
33
1 -0.19
10 -0.31
11 0.27
12 0.27
13 0.27
14 0.27
15 0.27
16 0.27
18 0.06
2 -0.19
20 0.57
21 0.35
23 0.11
24 -0.15
25 0.31
27 0.19
28 -0.15
29 0.19
3 -0.57
30 -0.15
31 -0.15
4 -0.81
5 -0.81
51 0.37
52 0.15
53 0.27
54 0.15
55 0.15
56 0.15
6 -0.49
7 -0.71
8 0.3
9 -0.26

> <PUBCHEM_EFFECTIVE_ROTOR_COUNT>
9.2

> <PUBCHEM_PHARMACOPHORE_FEATURES>
11
1 10 acceptor
1 3 acceptor
1 4 cation
1 5 cation
1 6 donor
1 8 donor
3 8 9 23 cation
5 7 8 21 22 23 rings
6 26 27 28 29 30 31 rings
6 4 5 11 12 13 14 rings
6 9 10 22 23 24 25 rings

> <PUBCHEM_HEAVY_ATOM_COUNT>
31

> <PUBCHEM_ATOM_DEF_STEREO_COUNT>
0

> <PUBCHEM_ATOM_UDEF_STEREO_COUNT>
0

> <PUBCHEM_BOND_DEF_STEREO_COUNT>
0

> <PUBCHEM_BOND_UDEF_STEREO_COUNT>
0

> <PUBCHEM_ISOTOPIC_ATOM_COUNT>
0

> <PUBCHEM_COMPONENT_COUNT>
1

> <PUBCHEM_CACTVS_TAUTO_COUNT>
15

> <PUBCHEM_CONFORMER_ID>
02F85C1100000001

> <PUBCHEM_MMFF94_ENERGY>
61.3804

> <PUBCHEM_FEATURE_SELFOVERLAP>
55.937

> <PUBCHEM_SHAPE_FINGERPRINT>
10 15 18113618955007368569
10369192 42 18342175545353965999
10411042 1 17832985332584937719
10674148 151 18334289908363522224
10930396 42 16660645134350244597
11061554 47 18341323483967596768
11135609 99 9799395737813565984
11181472 205 18186520995967287924
11408170 132 18337678620591973068
11475781 23 18272937124614629238
11578821 258 18196086875826166088
12089408 11 18040712598560091914
14294032 229 17968089773530549148
14671636 106 8934997075673117304
14918687 75 13984674684295431881
14919807 6 18340495487402553054
15065858 18 17918273191557529646
15152005 290 18411133620186672677
15419008 91 17916291905526328936
15439362 3 18340487764208511126
15444296 121 17822576121910256098
15604295 49 18268141136689546744
1577012 14 18335411366404138730
15778101 99 18411136952659664835
15890870 6 18337387150593023685
16126227 98 18411419497552457809
19302320 297 17967536774610085924
19304152 47 17167856427531460341
20105231 36 12613027268305831464
21095123 293 17821731637605320356
21585482 111 18261669277323535052
21756936 100 18409444808976372327
23389318 12 11743832600051778106
23516275 100 17608922089847420293
23522609 53 17313678152216492422
23523766 6 17190650704136737183
306946 40 17417796380450835480
44280117 145 18056475277594963983
44880568 143 18266458892583260424
5719381 82 11455883685570401557
58083652 198 15792010133687173670
59521270 166 18410293632406469014
6009941 240 18342739646005382534
636775 72 18339636857961213376
9511036 111 13551772785129230169
9896288 288 18115027540492705059
9962374 69 10953755429615365760
9980921 7 18040988528671097701

> <PUBCHEM_SHAPE_MULTIPOLES>
582.68
34.59
3.4
1.1
70.3
1.33
0.05
-28.2
2.21
-7.87
0.25
-0.18
-0.68
1.16

> <PUBCHEM_SHAPE_SELFOVERLAP>
1249.935

> <PUBCHEM_SHAPE_VOLUME>
322.6

> <PUBCHEM_COORDINATE_TYPE>
2
5
10

$$$$
