49830742
  -OEChem-10052120433D

 49 54  0     0  0  0  0  0  0999 V2000
    3.3123    1.2773    0.6860 S   0  0  0  0  0  0  0  0  0  0  0  0
   -6.3247   -0.8976    0.0441 O   0  0  0  0  0  0  0  0  0  0  0  0
   -3.9496    0.0170   -1.1091 N   0  0  0  0  0  0  0  0  0  0  0  0
    2.7447   -2.9967    0.9761 N   0  0  0  0  0  0  0  0  0  0  0  0
   -1.9965    1.7465    1.2582 N   0  0  0  0  0  0  0  0  0  0  0  0
    2.3325   -4.1889    1.4384 N   0  0  0  0  0  0  0  0  0  0  0  0
   -4.0393    3.0415    0.9866 N   0  0  0  0  0  0  0  0  0  0  0  0
   -2.3501    3.7238    2.4559 N   0  0  0  0  0  0  0  0  0  0  0  0
   -7.4002   -0.9368   -1.9868 N   0  0  0  0  0  0  0  0  0  0  0  0
   -1.9524   -0.3117   -0.1787 C   0  0  0  0  0  0  0  0  0  0  0  0
   -0.6943   -0.9492    0.0978 C   0  0  0  0  0  0  0  0  0  0  0  0
   -2.5053    0.8816    0.3463 C   0  0  0  0  0  0  0  0  0  0  0  0
    1.7383   -0.8516    0.1086 C   0  0  0  0  0  0  0  0  0  0  0  0
   -3.7500    1.0658   -0.2484 C   0  0  0  0  0  0  0  0  0  0  0  0
    1.7289   -2.1505    0.6214 C   0  0  0  0  0  0  0  0  0  0  0  0
   -2.8660   -0.8241   -1.0740 C   0  0  0  0  0  0  0  0  0  0  0  0
    0.4961   -0.2628   -0.1490 C   0  0  0  0  0  0  0  0  0  0  0  0
    0.5586   -2.8566    0.8765 C   0  0  0  0  0  0  0  0  0  0  0  0
   -0.6815   -2.2516    0.6126 C   0  0  0  0  0  0  0  0  0  0  0  0
    2.9863   -0.1824   -0.1314 C   0  0  0  0  0  0  0  0  0  0  0  0
   -5.1183   -0.1844   -1.9371 C   0  0  0  0  0  0  0  0  0  0  0  0
    4.0186   -0.5505   -0.9612 C   0  0  0  0  0  0  0  0  0  0  0  0
   -4.5243    2.1644    0.0810 C   0  0  0  0  0  0  0  0  0  0  0  0
    1.0020   -4.0999    1.3764 C   0  0  0  0  0  0  0  0  0  0  0  0
    5.1130    0.3778   -0.9369 C   0  0  0  0  0  0  0  0  0  0  0  0
    4.8557    1.4407   -0.0653 C   0  0  0  0  0  0  0  0  0  0  0  0
   -2.8214    2.7824    1.5129 C   0  0  0  0  0  0  0  0  0  0  0  0
   -6.3145   -0.7053   -1.1685 C   0  0  0  0  0  0  0  0  0  0  0  0
    6.3458    0.3667   -1.6334 C   0  0  0  0  0  0  0  0  0  0  0  0
    5.7881    2.4795    0.1248 C   0  0  0  0  0  0  0  0  0  0  0  0
    7.2727    1.3956   -1.4471 C   0  0  0  0  0  0  0  0  0  0  0  0
    6.9947    2.4400   -0.5767 C   0  0  0  0  0  0  0  0  0  0  0  0
   -2.8377   -1.7141   -1.6901 H   0  0  0  0  0  0  0  0  0  0  0  0
    0.4583    0.7456   -0.5607 H   0  0  0  0  0  0  0  0  0  0  0  0
   -1.6027   -2.7923    0.8125 H   0  0  0  0  0  0  0  0  0  0  0  0
   -5.3692    0.7730   -2.4069 H   0  0  0  0  0  0  0  0  0  0  0  0
   -4.8602   -0.8954   -2.7300 H   0  0  0  0  0  0  0  0  0  0  0  0
    3.7412   -2.8241    0.9304 H   0  0  0  0  0  0  0  0  0  0  0  0
    4.0046   -1.4465   -1.5709 H   0  0  0  0  0  0  0  0  0  0  0  0
   -5.4988    2.3699   -0.3401 H   0  0  0  0  0  0  0  0  0  0  0  0
    0.4088   -4.9444    1.6978 H   0  0  0  0  0  0  0  0  0  0  0  0
    6.5779   -0.4449   -2.3187 H   0  0  0  0  0  0  0  0  0  0  0  0
    5.5790    3.3010    0.8042 H   0  0  0  0  0  0  0  0  0  0  0  0
    8.2150    1.3758   -1.9874 H   0  0  0  0  0  0  0  0  0  0  0  0
    7.7217    3.2357   -0.4383 H   0  0  0  0  0  0  0  0  0  0  0  0
   -2.9233    4.5229    2.6889 H   0  0  0  0  0  0  0  0  0  0  0  0
   -1.4457    3.5863    2.8853 H   0  0  0  0  0  0  0  0  0  0  0  0
   -8.2738   -1.2869   -1.6080 H   0  0  0  0  0  0  0  0  0  0  0  0
   -7.3709   -0.7688   -2.9874 H   0  0  0  0  0  0  0  0  0  0  0  0
  1 20  1  0  0  0  0
  1 26  1  0  0  0  0
  2 28  2  0  0  0  0
  3 14  1  0  0  0  0
  3 16  1  0  0  0  0
  3 21  1  0  0  0  0
  4  6  1  0  0  0  0
  4 15  1  0  0  0  0
  4 38  1  0  0  0  0
  5 12  2  0  0  0  0
  5 27  1  0  0  0  0
  6 24  2  0  0  0  0
  7 23  1  0  0  0  0
  7 27  2  0  0  0  0
  8 27  1  0  0  0  0
  8 46  1  0  0  0  0
  8 47  1  0  0  0  0
  9 28  1  0  0  0  0
  9 48  1  0  0  0  0
  9 49  1  0  0  0  0
 10 11  1  0  0  0  0
 10 12  1  0  0  0  0
 10 16  2  0  0  0  0
 11 17  1  0  0  0  0
 11 19  2  0  0  0  0
 12 14  1  0  0  0  0
 13 15  1  0  0  0  0
 13 17  2  0  0  0  0
 13 20  1  0  0  0  0
 14 23  2  0  0  0  0
 15 18  2  0  0  0  0
 16 33  1  0  0  0  0
 17 34  1  0  0  0  0
 18 19  1  0  0  0  0
 18 24  1  0  0  0  0
 19 35  1  0  0  0  0
 20 22  2  0  0  0  0
 21 28  1  0  0  0  0
 21 36  1  0  0  0  0
 21 37  1  0  0  0  0
 22 25  1  0  0  0  0
 22 39  1  0  0  0  0
 23 40  1  0  0  0  0
 24 41  1  0  0  0  0
 25 26  1  0  0  0  0
 25 29  2  0  0  0  0
 26 30  2  0  0  0  0
 29 31  1  0  0  0  0
 29 42  1  0  0  0  0
 30 32  1  0  0  0  0
 30 43  1  0  0  0  0
 31 32  2  0  0  0  0
 31 44  1  0  0  0  0
 32 45  1  0  0  0  0
M  END
> <PUBCHEM_COMPOUND_CID>
49830742

> <PUBCHEM_CONFORMER_RMSD>
0.8

> <PUBCHEM_CONFORMER_DIVERSEORDER>
1
37
58
50
52
46
73
26
89
77
34
55
39
47
45
93
7
66
14
49
68
79
48
16
64
84
31
85
80
75
78
13
83
15
25
19
86
8
35
81
69
76
54
56
33
23
5
36
65
67
72
57
44
3
59
43
87
74
70
10
29
82
88
42
40
53
63
28
32
9
18
27
60
71
90
62
92
30
38
12
61
2
17
41
20
24
51
4
91
11
6
21
22

> <PUBCHEM_MMFF94_PARTIAL_CHARGES>
45
1 -0.08
10 -0.05
11 0.05
12 0.26
13 0.05
14 -0.15
15 -0.15
16 -0.3
17 -0.15
19 -0.15
2 -0.57
20 -0.01
21 0.32
22 -0.15
23 0.16
24 0.14
26 0.04
27 0.72
28 0.57
29 -0.15
3 0.05
30 -0.15
31 -0.15
32 -0.15
33 0.15
34 0.15
35 0.15
38 0.27
39 0.15
4 0.3
40 0.15
41 0.15
42 0.15
43 0.15
44 0.15
45 0.15
46 0.4
47 0.4
48 0.37
49 0.37
5 -0.57
6 -0.71
7 -0.62
8 -0.9
9 -0.8

> <PUBCHEM_EFFECTIVE_ROTOR_COUNT>
4

> <PUBCHEM_PHARMACOPHORE_FEATURES>
14
1 2 acceptor
1 3 cation
1 4 donor
1 5 acceptor
1 6 acceptor
1 8 donor
1 9 donor
4 5 7 8 27 cation
5 1 20 22 25 26 rings
5 3 10 12 14 16 rings
5 4 6 15 18 24 rings
6 11 13 15 17 18 19 rings
6 25 26 29 30 31 32 rings
6 5 7 12 14 23 27 rings

> <PUBCHEM_HEAVY_ATOM_COUNT>
32

> <PUBCHEM_ATOM_DEF_STEREO_COUNT>
0

> <PUBCHEM_ATOM_UDEF_STEREO_COUNT>
0

> <PUBCHEM_BOND_DEF_STEREO_COUNT>
0

> <PUBCHEM_BOND_UDEF_STEREO_COUNT>
0

> <PUBCHEM_ISOTOPIC_ATOM_COUNT>
0

> <PUBCHEM_COMPONENT_COUNT>
1

> <PUBCHEM_CACTVS_TAUTO_COUNT>
12

> <PUBCHEM_CONFORMER_ID>
02F85B5600000001

> <PUBCHEM_MMFF94_ENERGY>
77.9646

> <PUBCHEM_FEATURE_SELFOVERLAP>
71.315

> <PUBCHEM_SHAPE_FINGERPRINT>
10670039 82 18342177752429793460
11049842 53 16984907450292275503
11062273 23 17753904010554353138
11135609 187 18260541226027921437
11578080 2 17970616403890311693
12107698 1 17846218890446527028
12218070 45 11242833572673168600
12390115 104 18261971725178919898
12788726 201 18130499752744494247
13540713 5 18196932167552513203
13673619 4 14189577459497702095
13726171 33 17775295915426029281
13782708 43 14548724132380779237
14664723 55 18115323288499509660
14767858 380 18340480153746891613
14790565 3 18335710399629109320
14931854 50 18342734126392535653
15064981 194 18120390992582166556
15183329 4 18202572770067913780
15351339 4 18413103953439944440
15685185 35 18190183579877426252
16991971 28 17559942398993571959
18365409 1 18118684550404873143
18608769 82 18265621055394690187
19319366 153 18337657690066436855
20554085 129 18266441257215272522
20642791 35 17916289693232977721
21033648 144 18040999509715523751
21033648 29 18118396479059157568
21049683 271 18338789144198904141
21792964 463 18116169783235223405
221357 26 17775004622090710792
23569917 315 18334012787783270402
249057 25 18268139877619881882
25147074 1 18268143154542895355
283562 15 18117563039943972778
3103668 31 17829328334639682675
312425 54 11891333192661346892
3552219 110 18341619213987871481
38570 142 18196113070165831664
4098825 35 17417545626288171316
4258327 124 17314804098925025932
4516262 110 18335704892753373717
469060 322 17970088801269160419
5171179 24 17550381182811372131
563151 74 15285622323032745856
57527295 17 17986695687799423182
5912855 24 18341335496938096899
6058803 2 18052813646761520163
7970288 3 10592041341427017828
9981440 41 18334013921432038506

> <PUBCHEM_SHAPE_MULTIPOLES>
621.66
17.45
4.3
1.67
4.07
2.31
0.01
-10.87
10.88
1.17
-3.57
-1.28
-0.36
-3.22

> <PUBCHEM_SHAPE_SELFOVERLAP>
1410.085

> <PUBCHEM_SHAPE_VOLUME>
328.9

> <PUBCHEM_COORDINATE_TYPE>
2
5
10

$$$$
