1568886
  -OEChem-10052115183D

 28 32  0     0  0  0  0  0  0999 V2000
   -1.7530   -2.0483   -0.0347 S   0  0  0  0  0  0  0  0  0  0  0  0
    1.0379   -4.1238    0.0114 S   0  0  0  0  0  0  0  0  0  0  0  0
    3.8427    2.4269    0.0268 S   0  0  0  0  0  0  0  0  0  0  0  0
    0.8874   -1.3360   -0.0001 N   0  0  0  0  0  0  0  0  0  0  0  0
    1.4846    0.9683   -0.0008 N   0  0  0  0  0  0  0  0  0  0  0  0
   -0.0247    2.6616   -0.0286 N   0  0  0  0  0  0  0  0  0  0  0  0
    3.0789   -0.8423    0.0283 N   0  0  0  0  0  0  0  0  0  0  0  0
    1.2389    3.1828   -0.0135 N   0  0  0  0  0  0  0  0  0  0  0  0
    2.9140   -2.1990    0.0310 N   0  0  0  0  0  0  0  0  0  0  0  0
   -2.2434    0.4652   -0.0480 C   0  0  0  0  0  0  0  0  0  0  0  0
   -0.8398    0.3703   -0.0295 C   0  0  0  0  0  0  0  0  0  0  0  0
   -3.2596    1.5444   -0.0680 C   0  0  0  0  0  0  0  0  0  0  0  0
   -2.8333   -0.7703   -0.0526 C   0  0  0  0  0  0  0  0  0  0  0  0
   -4.5732    0.7681    0.2656 C   0  0  0  0  0  0  0  0  0  0  0  0
   -4.3132   -0.7325   -0.0748 C   0  0  0  0  0  0  0  0  0  0  0  0
   -0.4417   -0.9620   -0.0192 C   0  0  0  0  0  0  0  0  0  0  0  0
    0.1771    1.3815   -0.0205 C   0  0  0  0  0  0  0  0  0  0  0  0
    1.8654   -0.3770    0.0099 C   0  0  0  0  0  0  0  0  0  0  0  0
    1.5508   -2.5440    0.0133 C   0  0  0  0  0  0  0  0  0  0  0  0
    2.2040    2.1660    0.0042 C   0  0  0  0  0  0  0  0  0  0  0  0
   -3.0651    2.3261    0.6714 H   0  0  0  0  0  0  0  0  0  0  0  0
   -3.3229    1.9931   -1.0648 H   0  0  0  0  0  0  0  0  0  0  0  0
   -4.7762    0.8590    1.3411 H   0  0  0  0  0  0  0  0  0  0  0  0
   -5.4404    1.1710   -0.2667 H   0  0  0  0  0  0  0  0  0  0  0  0
   -4.6941   -0.9710   -1.0731 H   0  0  0  0  0  0  0  0  0  0  0  0
   -4.7759   -1.3923    0.6639 H   0  0  0  0  0  0  0  0  0  0  0  0
    1.3811    4.1849   -0.0154 H   0  0  0  0  0  0  0  0  0  0  0  0
    3.7175   -2.8143    0.0441 H   0  0  0  0  0  0  0  0  0  0  0  0
  1 13  1  0  0  0  0
  1 16  1  0  0  0  0
  2 19  2  0  0  0  0
  3 20  2  0  0  0  0
  4 16  1  0  0  0  0
  4 18  1  0  0  0  0
  4 19  1  0  0  0  0
  5 17  1  0  0  0  0
  5 18  1  0  0  0  0
  5 20  1  0  0  0  0
  6  8  1  0  0  0  0
  6 17  2  0  0  0  0
  7  9  1  0  0  0  0
  7 18  2  0  0  0  0
  8 20  1  0  0  0  0
  8 27  1  0  0  0  0
  9 19  1  0  0  0  0
  9 28  1  0  0  0  0
 10 11  1  0  0  0  0
 10 12  1  0  0  0  0
 10 13  2  0  0  0  0
 11 16  2  0  0  0  0
 11 17  1  0  0  0  0
 12 14  1  0  0  0  0
 12 21  1  0  0  0  0
 12 22  1  0  0  0  0
 13 15  1  0  0  0  0
 14 15  1  0  0  0  0
 14 23  1  0  0  0  0
 14 24  1  0  0  0  0
 15 25  1  0  0  0  0
 15 26  1  0  0  0  0
M  END
> <PUBCHEM_COMPOUND_CID>
1568886

> <PUBCHEM_CONFORMER_RMSD>
0.6

> <PUBCHEM_CONFORMER_DIVERSEORDER>
1

> <PUBCHEM_MMFF94_PARTIAL_CHARGES>
21
1 -0.08
10 -0.18
11 -0.09
12 0.18
13 -0.14
15 0.18
16 0.1
17 0.6
18 0.57
19 0.5
2 -0.38
20 0.5
27 0.37
28 0.37
3 -0.38
4 -0.18
5 -0.18
6 -0.51
7 -0.51
8 -0.37
9 -0.37

> <PUBCHEM_EFFECTIVE_ROTOR_COUNT>
0.6

> <PUBCHEM_PHARMACOPHORE_FEATURES>
10
1 2 acceptor
1 3 acceptor
1 8 donor
1 9 donor
4 4 5 7 18 cation
5 1 10 11 13 16 rings
5 10 12 13 14 15 rings
5 4 7 9 18 19 rings
5 5 6 8 17 20 rings
6 4 5 11 16 17 18 rings

> <PUBCHEM_HEAVY_ATOM_COUNT>
20

> <PUBCHEM_ATOM_DEF_STEREO_COUNT>
0

> <PUBCHEM_ATOM_UDEF_STEREO_COUNT>
0

> <PUBCHEM_BOND_DEF_STEREO_COUNT>
0

> <PUBCHEM_BOND_UDEF_STEREO_COUNT>
0

> <PUBCHEM_ISOTOPIC_ATOM_COUNT>
0

> <PUBCHEM_COMPONENT_COUNT>
1

> <PUBCHEM_CACTVS_TAUTO_COUNT>
4

> <PUBCHEM_CONFORMER_ID>
0017F07600000001

> <PUBCHEM_MMFF94_ENERGY>
79.6549

> <PUBCHEM_FEATURE_SELFOVERLAP>
51.22

> <PUBCHEM_SHAPE_FINGERPRINT>
10319926 262 17263547203908155352
10411042 1 17834395614443522859
10608611 8 18408038524771535701
10616163 171 18193840581315411483
10693767 8 18131070441733319734
10967382 1 18410573985156732406
10980938 120 18409730685634866417
1100329 8 18410289246664734122
11471102 20 18410289220593918701
11680986 33 18335991960035485755
116883 192 17548417003518612647
12553582 1 18194678168325662678
12592029 89 18337676445834502312
12788726 201 17397835578928018098
13140716 1 18410289229094273642
13380535 76 18191584357479566233
138480 1 18266458707097754754
14178342 30 18198042880148957603
14790565 3 18337679732012653684
15042514 8 17472136657843797442
15196674 1 18410856577373663617
15442244 35 18340489941909092433
15475509 35 16950567636588220609
15475509 8 17340438958865258501
15536298 74 18343021107453704052
16945 1 18338794498841200551
19591789 44 18266180724103334268
20510252 161 17549252636766507002
20645477 70 18335130999723811727
20739085 24 18262817201706509816
21267235 1 18339652143955404927
21501502 16 18340201998769506831
21524375 3 18044368568025012384
221490 88 18336272305525747659
2255824 54 18410294717793458799
23184049 29 17616811029118430898
2334 1 18266458883201904942
23366157 5 18113618988850141970
23419403 2 17606652796140027854
23463225 33 18339643326471565543
23558518 356 17252862162355556680
23559900 14 18267576918949912130
23598291 2 18059563707363009463
2748010 2 18337397157244025766
3091708 16 9361792304586668762
335352 9 18338798892619125021
34934 24 18194673783237789495
350125 39 18049728717491365353
352729 6 17617659199238315926
5104073 3 18409452492619617897
54173680 148 17257652214436330658
6138700 20 18411143537493097020
7364860 26 18411700993159856135
7832392 63 18340764849843858159
81228 2 17691689987066969946
8272917 22 18412269445404266109
84936 182 18129942389805248785
9709674 26 18409451427262525475

> <PUBCHEM_SHAPE_MULTIPOLES>
393.25
6.59
4.26
0.61
4.11
2.55
0
-2.8
0.18
-3.48
0.01
0.05
0.02
-0.07

> <PUBCHEM_SHAPE_SELFOVERLAP>
869.37

> <PUBCHEM_SHAPE_VOLUME>
216.5

> <PUBCHEM_COORDINATE_TYPE>
2
5
10

$$$$
