11715520
  -OEChem-10062121563D

 28 28  0     0  0  0  0  0  0999 V2000
   -1.3176   -1.7606   -0.0038 O   0  0  0  0  0  0  0  0  0  0  0  0
    3.2362   -1.1796   -0.0006 O   0  0  0  0  0  0  0  0  0  0  0  0
    0.5302   -0.3791   -0.0009 N   0  0  0  0  0  0  0  0  0  0  0  0
    2.4262    1.0333    0.0016 N   0  0  0  0  0  0  0  0  0  0  0  0
   -1.9338    3.0325    0.0015 N   0  0  0  0  0  0  0  0  0  0  0  0
   -4.2476    0.2560   -0.0009 N   0  0  0  0  0  0  0  0  0  0  0  0
   -1.1228    1.8751    0.0011 C   0  0  0  0  0  0  0  0  0  0  0  0
    1.0351    0.8750    0.0003 C   0  0  0  0  0  0  0  0  0  0  0  0
   -0.8177   -0.4836   -0.0010 C   0  0  0  0  0  0  0  0  0  0  0  0
   -1.6798    0.6012   -0.0001 C   0  0  0  0  0  0  0  0  0  0  0  0
    0.2598    2.0234    0.0012 C   0  0  0  0  0  0  0  0  0  0  0  0
   -0.3674   -2.8188   -0.0046 C   0  0  0  0  0  0  0  0  0  0  0  0
   -1.1028   -4.1419    0.0074 C   0  0  0  0  0  0  0  0  0  0  0  0
    3.4057    0.0354    0.0012 C   0  0  0  0  0  0  0  0  0  0  0  0
   -3.0991    0.4104   -0.0006 C   0  0  0  0  0  0  0  0  0  0  0  0
    4.7953    0.6213   -0.0015 C   0  0  0  0  0  0  0  0  0  0  0  0
    0.7126    3.0107    0.0021 H   0  0  0  0  0  0  0  0  0  0  0  0
    0.2570   -2.7666   -0.9047 H   0  0  0  0  0  0  0  0  0  0  0  0
    0.2685   -2.7590    0.8871 H   0  0  0  0  0  0  0  0  0  0  0  0
    2.7569    1.9962    0.0023 H   0  0  0  0  0  0  0  0  0  0  0  0
   -0.4004   -4.9802    0.0070 H   0  0  0  0  0  0  0  0  0  0  0  0
   -1.7442   -4.2187    0.8916 H   0  0  0  0  0  0  0  0  0  0  0  0
   -1.7560   -4.2279   -0.8674 H   0  0  0  0  0  0  0  0  0  0  0  0
   -2.9418    2.9595    0.0026 H   0  0  0  0  0  0  0  0  0  0  0  0
   -1.5018    3.9473    0.0032 H   0  0  0  0  0  0  0  0  0  0  0  0
    4.9439    1.2165   -0.9069 H   0  0  0  0  0  0  0  0  0  0  0  0
    5.5365   -0.1825    0.0209 H   0  0  0  0  0  0  0  0  0  0  0  0
    4.9333    1.2545    0.8794 H   0  0  0  0  0  0  0  0  0  0  0  0
  1  9  1  0  0  0  0
  1 12  1  0  0  0  0
  2 14  2  0  0  0  0
  3  8  2  0  0  0  0
  3  9  1  0  0  0  0
  4  8  1  0  0  0  0
  4 14  1  0  0  0  0
  4 20  1  0  0  0  0
  5  7  1  0  0  0  0
  5 24  1  0  0  0  0
  5 25  1  0  0  0  0
  6 15  3  0  0  0  0
  7 10  1  0  0  0  0
  7 11  2  0  0  0  0
  8 11  1  0  0  0  0
  9 10  2  0  0  0  0
 10 15  1  0  0  0  0
 11 17  1  0  0  0  0
 12 13  1  0  0  0  0
 12 18  1  0  0  0  0
 12 19  1  0  0  0  0
 13 21  1  0  0  0  0
 13 22  1  0  0  0  0
 13 23  1  0  0  0  0
 14 16  1  0  0  0  0
 16 26  1  0  0  0  0
 16 27  1  0  0  0  0
 16 28  1  0  0  0  0
M  END
> <PUBCHEM_COMPOUND_CID>
11715520

> <PUBCHEM_CONFORMER_RMSD>
0.6

> <PUBCHEM_CONFORMER_DIVERSEORDER>
1
9
11
12
6
16
14
7
10
13
15
5
4
2
3
8

> <PUBCHEM_MMFF94_PARTIAL_CHARGES>
19
1 -0.36
10 0.07
11 -0.15
12 0.28
14 0.57
15 0.48
16 0.06
17 0.15
2 -0.57
20 0.37
24 0.4
25 0.4
3 -0.62
4 -0.55
5 -0.9
6 -0.56
7 0.1
8 0.43
9 0.39

> <PUBCHEM_EFFECTIVE_ROTOR_COUNT>
4

> <PUBCHEM_PHARMACOPHORE_FEATURES>
7
1 1 acceptor
1 2 acceptor
1 4 donor
1 5 cation
1 5 donor
1 6 acceptor
6 3 7 8 9 10 11 rings

> <PUBCHEM_HEAVY_ATOM_COUNT>
16

> <PUBCHEM_ATOM_DEF_STEREO_COUNT>
0

> <PUBCHEM_ATOM_UDEF_STEREO_COUNT>
0

> <PUBCHEM_BOND_DEF_STEREO_COUNT>
0

> <PUBCHEM_BOND_UDEF_STEREO_COUNT>
0

> <PUBCHEM_ISOTOPIC_ATOM_COUNT>
0

> <PUBCHEM_COMPONENT_COUNT>
1

> <PUBCHEM_CACTVS_TAUTO_COUNT>
13

> <PUBCHEM_CONFORMER_ID>
00B2C3C000000001

> <PUBCHEM_MMFF94_ENERGY>
46.9989

> <PUBCHEM_FEATURE_SELFOVERLAP>
35.522

> <PUBCHEM_SHAPE_FINGERPRINT>
10967382 1 18410855447354185606
11680986 33 17837763792226135329
116883 192 17908702083380014847
12553582 1 17761502786705242538
13140716 1 18195805408509948952
13380535 76 18342740719219926478
14115302 16 18335147535163525724
14790565 3 18411428280265530977
15042514 8 18337112379237394330
15309172 13 18411145701370650161
16945 1 18410856598384601252
193761 8 17762055840963940325
19591789 44 18267305339509448443
20028762 73 18057891440894565599
20510252 161 18272370815491042864
20645476 183 17969522539505628542
21501502 16 17976261553709896036
22344851 341 17911246018120373025
2334 1 17834395996383706756
23402539 116 18342729724219589501
23419403 2 16461583217241318252
23557571 272 18127422356936446652
23559900 14 18342174518883610224
257057 1 17834954556912284566
266924 87 18193829345881815421
2748010 2 18193561055979644229
3071541 12 17330555341390070796
3084891 72 18411979157033435631
43471831 8 18192993720912060443
54173680 148 18194402414308317003
58807428 26 18196094335080682632
69090 78 18412259540961735602
7364860 26 17619066127382083791
81228 2 17980180209072743243
8809292 202 18340206392478670666
9709674 26 18343305881630027598

> <PUBCHEM_SHAPE_MULTIPOLES>
297.61
6.21
3.74
0.58
5.67
3.79
0
-1.2
0
-2.74
-0.01
0.01
0
0

> <PUBCHEM_SHAPE_SELFOVERLAP>
613.016

> <PUBCHEM_SHAPE_VOLUME>
168.9

> <PUBCHEM_COORDINATE_TYPE>
2
5
10

$$$$
