6540005
  -OEChem-10062122003D

 47 50  0     0  0  0  0  0  0999 V2000
   -6.7092    0.2507   -1.9418 S   0  0  0  0  0  0  0  0  0  0  0  0
    5.2671   -3.1967    0.8470 F   0  0  0  0  0  0  0  0  0  0  0  0
    7.7957    2.4573   -0.2642 F   0  0  0  0  0  0  0  0  0  0  0  0
    6.0525    2.5716   -1.5497 F   0  0  0  0  0  0  0  0  0  0  0  0
    5.8729    3.0431    0.5655 F   0  0  0  0  0  0  0  0  0  0  0  0
    2.0194    0.4983   -0.2857 O   0  0  0  0  0  0  0  0  0  0  0  0
    0.8874   -1.5178    0.0931 N   0  0  0  0  0  0  0  0  0  0  0  0
   -7.7659    1.0438    0.3718 N   0  0  0  0  0  0  0  0  0  0  0  0
   -6.3822    1.0634    2.3627 N   0  0  0  0  0  0  0  0  0  0  0  0
   -4.1048    0.4024    2.3530 N   0  0  0  0  0  0  0  0  0  0  0  0
    3.1895   -1.4492    0.2685 N   0  0  0  0  0  0  0  0  0  0  0  0
   -4.5018   -0.1223   -0.6834 C   0  0  0  0  0  0  0  0  0  0  0  0
   -5.4286    0.3523    0.2975 C   0  0  0  0  0  0  0  0  0  0  0  0
   -3.1182   -0.4803   -0.4841 C   0  0  0  0  0  0  0  0  0  0  0  0
   -5.0655   -0.2229   -1.9367 C   0  0  0  0  0  0  0  0  0  0  0  0
   -6.6723    0.5918   -0.2725 C   0  0  0  0  0  0  0  0  0  0  0  0
   -2.7853   -1.7890   -0.1490 C   0  0  0  0  0  0  0  0  0  0  0  0
   -2.1273    0.4858   -0.6283 C   0  0  0  0  0  0  0  0  0  0  0  0
   -5.3175    0.6089    1.6679 C   0  0  0  0  0  0  0  0  0  0  0  0
   -0.4502   -1.1709   -0.0996 C   0  0  0  0  0  0  0  0  0  0  0  0
   -4.4545   -0.6675   -3.2122 C   0  0  0  0  0  0  0  0  0  0  0  0
   -1.4479   -2.1351    0.0437 C   0  0  0  0  0  0  0  0  0  0  0  0
   -0.7899    0.1395   -0.4356 C   0  0  0  0  0  0  0  0  0  0  0  0
    4.5347   -1.0104    0.2775 C   0  0  0  0  0  0  0  0  0  0  0  0
   -7.5284    1.2507    1.6793 C   0  0  0  0  0  0  0  0  0  0  0  0
    2.0365   -0.6957   -0.0043 C   0  0  0  0  0  0  0  0  0  0  0  0
    6.1407    0.7498   -0.0024 C   0  0  0  0  0  0  0  0  0  0  0  0
    4.8151    0.3155   -0.0094 C   0  0  0  0  0  0  0  0  0  0  0  0
    5.5426   -1.9141    0.5708 C   0  0  0  0  0  0  0  0  0  0  0  0
    7.1672   -0.1478    0.2911 C   0  0  0  0  0  0  0  0  0  0  0  0
    6.8681   -1.4798    0.5777 C   0  0  0  0  0  0  0  0  0  0  0  0
    6.4601    2.1744   -0.3081 C   0  0  0  0  0  0  0  0  0  0  0  0
   -3.5516   -2.5516   -0.0332 H   0  0  0  0  0  0  0  0  0  0  0  0
   -2.3777    1.5114   -0.8891 H   0  0  0  0  0  0  0  0  0  0  0  0
   -4.0902   -1.6967   -3.1248 H   0  0  0  0  0  0  0  0  0  0  0  0
   -3.6069   -0.0259   -3.4757 H   0  0  0  0  0  0  0  0  0  0  0  0
   -5.1567   -0.6410   -4.0524 H   0  0  0  0  0  0  0  0  0  0  0  0
   -1.1975   -3.1601    0.3054 H   0  0  0  0  0  0  0  0  0  0  0  0
   -0.0781    0.9422   -0.5644 H   0  0  0  0  0  0  0  0  0  0  0  0
    1.0559   -2.4910    0.3355 H   0  0  0  0  0  0  0  0  0  0  0  0
   -8.3683    1.6159    2.2600 H   0  0  0  0  0  0  0  0  0  0  0  0
    4.0737    1.0643   -0.2446 H   0  0  0  0  0  0  0  0  0  0  0  0
   -4.0768    0.6037    3.3440 H   0  0  0  0  0  0  0  0  0  0  0  0
   -3.2727    0.0663    1.8964 H   0  0  0  0  0  0  0  0  0  0  0  0
    3.0525   -2.4329    0.4871 H   0  0  0  0  0  0  0  0  0  0  0  0
    8.2056    0.1715    0.3015 H   0  0  0  0  0  0  0  0  0  0  0  0
    7.6670   -2.1790    0.8061 H   0  0  0  0  0  0  0  0  0  0  0  0
  1 15  1  0  0  0  0
  1 16  1  0  0  0  0
  2 29  1  0  0  0  0
  3 32  1  0  0  0  0
  4 32  1  0  0  0  0
  5 32  1  0  0  0  0
  6 26  2  0  0  0  0
  7 20  1  0  0  0  0
  7 26  1  0  0  0  0
  7 40  1  0  0  0  0
  8 16  2  0  0  0  0
  8 25  1  0  0  0  0
  9 19  1  0  0  0  0
  9 25  2  0  0  0  0
 10 19  1  0  0  0  0
 10 43  1  0  0  0  0
 10 44  1  0  0  0  0
 11 24  1  0  0  0  0
 11 26  1  0  0  0  0
 11 45  1  0  0  0  0
 12 13  1  0  0  0  0
 12 14  1  0  0  0  0
 12 15  2  0  0  0  0
 13 16  1  0  0  0  0
 13 19  2  0  0  0  0
 14 17  2  0  0  0  0
 14 18  1  0  0  0  0
 15 21  1  0  0  0  0
 17 22  1  0  0  0  0
 17 33  1  0  0  0  0
 18 23  2  0  0  0  0
 18 34  1  0  0  0  0
 20 22  2  0  0  0  0
 20 23  1  0  0  0  0
 21 35  1  0  0  0  0
 21 36  1  0  0  0  0
 21 37  1  0  0  0  0
 22 38  1  0  0  0  0
 23 39  1  0  0  0  0
 24 28  1  0  0  0  0
 24 29  2  0  0  0  0
 25 41  1  0  0  0  0
 27 28  2  0  0  0  0
 27 30  1  0  0  0  0
 27 32  1  0  0  0  0
 28 42  1  0  0  0  0
 29 31  1  0  0  0  0
 30 31  2  0  0  0  0
 30 46  1  0  0  0  0
 31 47  1  0  0  0  0
M  END
> <PUBCHEM_COMPOUND_CID>
6540005

> <PUBCHEM_CONFORMER_RMSD>
0.8

> <PUBCHEM_CONFORMER_DIVERSEORDER>
1
17
12
20
6
15
18
9
8
19
11
7
10
14
13
16
2
3
4
5

> <PUBCHEM_MMFF94_PARTIAL_CHARGES>
43
1 -0.08
10 -0.9
11 -0.55
12 -0.05
14 0.05
15 -0.14
16 0.3
17 -0.15
18 -0.15
19 0.41
2 -0.19
20 0.12
21 0.18
22 -0.15
23 -0.15
24 0.12
25 0.47
26 0.69
27 -0.14
28 -0.15
29 0.19
3 -0.34
30 -0.15
31 -0.15
32 1.16
33 0.15
34 0.15
38 0.15
39 0.15
4 -0.34
40 0.37
41 0.15
42 0.15
43 0.4
44 0.4
45 0.37
46 0.15
47 0.15
5 -0.34
6 -0.57
7 -0.55
8 -0.57
9 -0.62

> <PUBCHEM_EFFECTIVE_ROTOR_COUNT>
6

> <PUBCHEM_PHARMACOPHORE_FEATURES>
11
1 10 cation
1 10 donor
1 11 donor
1 6 acceptor
1 7 donor
1 8 acceptor
3 8 9 25 cation
5 1 12 13 15 16 rings
6 14 17 18 20 22 23 rings
6 24 27 28 29 30 31 rings
6 8 9 13 16 19 25 rings

> <PUBCHEM_HEAVY_ATOM_COUNT>
32

> <PUBCHEM_ATOM_DEF_STEREO_COUNT>
0

> <PUBCHEM_ATOM_UDEF_STEREO_COUNT>
0

> <PUBCHEM_BOND_DEF_STEREO_COUNT>
0

> <PUBCHEM_BOND_UDEF_STEREO_COUNT>
0

> <PUBCHEM_ISOTOPIC_ATOM_COUNT>
0

> <PUBCHEM_COMPONENT_COUNT>
1

> <PUBCHEM_CACTVS_TAUTO_COUNT>
12

> <PUBCHEM_CONFORMER_ID>
0063CAE500000001

> <PUBCHEM_MMFF94_ENERGY>
88.6373

> <PUBCHEM_FEATURE_SELFOVERLAP>
55.951

> <PUBCHEM_SHAPE_FINGERPRINT>
10 15 17312822692998424406
10299344 5 18131628971822176286
10319926 262 15574715802800447367
10554248 39 18272088275731643182
10638233 991 18273494589409964968
10835480 77 18334569192258155926
10906281 52 18202291302816266727
11007060 377 17894625994103804003
11315181 36 18059849572434547647
11524674 6 17095249107755361971
12098696 120 17749679588860626364
12539765 74 18060145310059074463
13383668 251 17822854320639335749
13782708 43 9583528615821868002
14251764 18 18202561783166848559
14849402 71 18341333383286874337
14856354 85 16917060101668382639
15183329 4 17632297886623709968
15276724 80 18411978040305522436
15326921 28 13697240247905732807
15400415 2 18335415833592658634
15419008 47 16950279589948043781
15419008 91 16588012528819033005
1577012 14 18131070441500742389
20157964 124 18335134290048776478
20721686 56 17967529086850455549
21033648 29 17313094229769147623
21130935 74 18334577953443625970
21792934 111 17530966861133490989
21814621 53 16588854677548222882
23081809 10 18060131042172292270
23522609 53 18059587887681070408
23569914 152 11668451005383850393
23576562 1 17058636589904342460
25269216 80 16988278802335353357
2747138 104 17023190396466448925
328310 630 18412826910415405765
3383291 50 15430330148165981121
394071 54 18335422357430950102
397830 11 17168154488980635136
4073 2 18041279971592071362
4169191 19 18410009961635755636
44555599 121 18272652346365397920
445580 37 16774082869219425873
504843 32 18339641247729676111
5104073 3 18260545675688257394
5109719 28 17313107488249002036
5265222 85 15984244361879237431
5364581 5 16589162699770798005
58083652 198 18335129869620333937
58902169 19 17989483031047501684
5911458 16 18131359591621350593
6328613 192 18342458166148109992
9953998 17 16805608049948127697

> <PUBCHEM_SHAPE_MULTIPOLES>
602.53
26.61
2.34
1.86
15.74
0.46
-0.48
11.96
2
5.46
0.19
-4.76
0.26
-3.99

> <PUBCHEM_SHAPE_SELFOVERLAP>
1325.462

> <PUBCHEM_SHAPE_VOLUME>
330.3

> <PUBCHEM_COORDINATE_TYPE>
2
5
10

$$$$
