5287736
  -OEChem-10062122033D

 66 69  0     1  0  0  0  0  0999 V2000
   -2.3900    1.6704   -0.1524 O   0  0  0  0  0  0  0  0  0  0  0  0
   -2.2791   -0.6179    1.5428 O   0  0  0  0  0  0  0  0  0  0  0  0
   -1.8199    2.0076   -2.3570 O   0  0  0  0  0  0  0  0  0  0  0  0
    3.1500    0.6763   -1.9297 O   0  0  0  0  0  0  0  0  0  0  0  0
    1.8000    2.4590    2.3163 O   0  0  0  0  0  0  0  0  0  0  0  0
   -2.0338   -6.4895   -0.8022 O   0  0  0  0  0  0  0  0  0  0  0  0
    4.3027    2.2802    1.5246 O   0  0  0  0  0  0  0  0  0  0  0  0
    6.3103    2.1486   -0.6286 O   0  0  0  0  0  0  0  0  0  0  0  0
    2.5502   -2.1262    0.1998 O   0  0  0  0  0  0  0  0  0  0  0  0
    3.0043   -1.0890    2.1706 O   0  0  0  0  0  0  0  0  0  0  0  0
   -6.5256    2.1410    1.0362 N   0  0  0  0  0  0  0  0  0  0  0  0
   -4.1544   -0.5784    0.1811 N   0  0  0  0  0  0  0  0  0  0  0  0
   -4.5328    0.7956    0.4637 C   0  0  1  0  0  0  0  0  0  0  0  0
   -3.7807    1.7355   -0.4935 C   0  0  1  0  0  0  0  0  0  0  0  0
   -4.2017    3.2077   -0.4470 C   0  0  0  0  0  0  0  0  0  0  0  0
   -6.0629    0.8996    0.4306 C   0  0  0  0  0  0  0  0  0  0  0  0
   -5.6194    3.4329   -0.9597 C   0  0  0  0  0  0  0  0  0  0  0  0
   -6.7056    3.2428    0.0980 C   0  0  0  0  0  0  0  0  0  0  0  0
   -3.0449   -1.1680    0.7557 C   0  0  0  0  0  0  0  0  0  0  0  0
   -1.5251    1.8233   -1.1863 C   0  0  0  0  0  0  0  0  0  0  0  0
   -2.7784   -2.5704    0.3440 C   0  0  0  0  0  0  0  0  0  0  0  0
   -0.1239    1.7347   -0.7035 C   0  0  0  0  0  0  0  0  0  0  0  0
    0.1943    2.1411    0.5924 C   0  0  0  0  0  0  0  0  0  0  0  0
    0.8743    1.2440   -1.5452 C   0  0  0  0  0  0  0  0  0  0  0  0
   -3.8296   -3.3865   -0.0739 C   0  0  0  0  0  0  0  0  0  0  0  0
   -1.4769   -3.0711    0.3762 C   0  0  0  0  0  0  0  0  0  0  0  0
    2.1906    1.1598   -1.0912 C   0  0  0  0  0  0  0  0  0  0  0  0
    1.5104    2.0568    1.0466 C   0  0  0  0  0  0  0  0  0  0  0  0
    2.5085    1.5661    0.2048 C   0  0  0  0  0  0  0  0  0  0  0  0
   -3.5793   -4.7033   -0.4598 C   0  0  0  0  0  0  0  0  0  0  0  0
   -1.2265   -4.3879   -0.0097 C   0  0  0  0  0  0  0  0  0  0  0  0
   -2.2778   -5.2039   -0.4277 C   0  0  0  0  0  0  0  0  0  0  0  0
    3.8845    1.4775    0.6800 C   0  0  0  0  0  0  0  0  0  0  0  0
    4.8336    0.4390    0.1833 C   0  0  0  0  0  0  0  0  0  0  0  0
    4.5489   -0.9161    0.3516 C   0  0  0  0  0  0  0  0  0  0  0  0
    6.0115    0.8303   -0.4529 C   0  0  0  0  0  0  0  0  0  0  0  0
    5.4420   -1.8799   -0.1162 C   0  0  0  0  0  0  0  0  0  0  0  0
    6.9048   -0.1334   -0.9209 C   0  0  0  0  0  0  0  0  0  0  0  0
    6.6200   -1.4886   -0.7524 C   0  0  0  0  0  0  0  0  0  0  0  0
    3.3274   -1.3598    1.0113 C   0  0  0  0  0  0  0  0  0  0  0  0
   -4.1894    1.0032    1.4871 H   0  0  0  0  0  0  0  0  0  0  0  0
   -3.9317    1.3548   -1.5138 H   0  0  0  0  0  0  0  0  0  0  0  0
   -3.5172    3.7859   -1.0810 H   0  0  0  0  0  0  0  0  0  0  0  0
   -4.0693    3.6180    0.5619 H   0  0  0  0  0  0  0  0  0  0  0  0
   -6.4789    0.0813    1.0323 H   0  0  0  0  0  0  0  0  0  0  0  0
   -6.4628    0.7511   -0.5803 H   0  0  0  0  0  0  0  0  0  0  0  0
   -5.6985    4.4608   -1.3357 H   0  0  0  0  0  0  0  0  0  0  0  0
   -5.8144    2.7817   -1.8207 H   0  0  0  0  0  0  0  0  0  0  0  0
   -7.6715    3.1252   -0.4081 H   0  0  0  0  0  0  0  0  0  0  0  0
   -6.7924    4.1649    0.6857 H   0  0  0  0  0  0  0  0  0  0  0  0
   -5.8946    2.4224    1.7855 H   0  0  0  0  0  0  0  0  0  0  0  0
   -4.6725   -1.0561   -0.5489 H   0  0  0  0  0  0  0  0  0  0  0  0
   -0.5717    2.5366    1.2553 H   0  0  0  0  0  0  0  0  0  0  0  0
    0.6271    0.9231   -2.5545 H   0  0  0  0  0  0  0  0  0  0  0  0
   -4.8610   -3.0468   -0.0837 H   0  0  0  0  0  0  0  0  0  0  0  0
   -0.6455   -2.4484    0.6949 H   0  0  0  0  0  0  0  0  0  0  0  0
   -4.4029   -5.3369   -0.7776 H   0  0  0  0  0  0  0  0  0  0  0  0
   -0.2078   -4.7655    0.0191 H   0  0  0  0  0  0  0  0  0  0  0  0
    2.7416    0.4417   -2.7805 H   0  0  0  0  0  0  0  0  0  0  0  0
    0.9843    2.7658    2.7479 H   0  0  0  0  0  0  0  0  0  0  0  0
    5.2362   -2.9398    0.0105 H   0  0  0  0  0  0  0  0  0  0  0  0
    7.8243    0.1644   -1.4175 H   0  0  0  0  0  0  0  0  0  0  0  0
   -1.0812   -6.6669   -0.7177 H   0  0  0  0  0  0  0  0  0  0  0  0
    7.3158   -2.2389   -1.1161 H   0  0  0  0  0  0  0  0  0  0  0  0
    5.6038    2.7095   -0.2704 H   0  0  0  0  0  0  0  0  0  0  0  0
    1.7331   -2.4237    0.6533 H   0  0  0  0  0  0  0  0  0  0  0  0
  1 14  1  0  0  0  0
  1 20  1  0  0  0  0
  2 19  2  0  0  0  0
  3 20  2  0  0  0  0
  4 27  1  0  0  0  0
  4 59  1  0  0  0  0
  5 28  1  0  0  0  0
  5 60  1  0  0  0  0
  6 32  1  0  0  0  0
  6 63  1  0  0  0  0
  7 33  2  0  0  0  0
  8 36  1  0  0  0  0
  8 65  1  0  0  0  0
  9 40  1  0  0  0  0
  9 66  1  0  0  0  0
 10 40  2  0  0  0  0
 11 16  1  0  0  0  0
 11 18  1  0  0  0  0
 11 51  1  0  0  0  0
 12 13  1  0  0  0  0
 12 19  1  0  0  0  0
 12 52  1  0  0  0  0
 13 14  1  0  0  0  0
 13 16  1  0  0  0  0
 13 41  1  0  0  0  0
 14 15  1  0  0  0  0
 14 42  1  0  0  0  0
 15 17  1  0  0  0  0
 15 43  1  0  0  0  0
 15 44  1  0  0  0  0
 16 45  1  0  0  0  0
 16 46  1  0  0  0  0
 17 18  1  0  0  0  0
 17 47  1  0  0  0  0
 17 48  1  0  0  0  0
 18 49  1  0  0  0  0
 18 50  1  0  0  0  0
 19 21  1  0  0  0  0
 20 22  1  0  0  0  0
 21 25  2  0  0  0  0
 21 26  1  0  0  0  0
 22 23  2  0  0  0  0
 22 24  1  0  0  0  0
 23 28  1  0  0  0  0
 23 53  1  0  0  0  0
 24 27  2  0  0  0  0
 24 54  1  0  0  0  0
 25 30  1  0  0  0  0
 25 55  1  0  0  0  0
 26 31  2  0  0  0  0
 26 56  1  0  0  0  0
 27 29  1  0  0  0  0
 28 29  2  0  0  0  0
 29 33  1  0  0  0  0
 30 32  2  0  0  0  0
 30 57  1  0  0  0  0
 31 32  1  0  0  0  0
 31 58  1  0  0  0  0
 33 34  1  0  0  0  0
 34 35  2  0  0  0  0
 34 36  1  0  0  0  0
 35 37  1  0  0  0  0
 35 40  1  0  0  0  0
 36 38  2  0  0  0  0
 37 39  2  0  0  0  0
 37 61  1  0  0  0  0
 38 39  1  0  0  0  0
 38 62  1  0  0  0  0
 39 64  1  0  0  0  0
M  END
> <PUBCHEM_COMPOUND_CID>
5287736

> <PUBCHEM_CONFORMER_RMSD>
1.2

> <PUBCHEM_CONFORMER_DIVERSEORDER>
1
44
47
18
52
23
31
36
17
19
14
68
45
65
55
32
34
11
51
4
67
13
39
59
16
42
26
57
43
49
5
10
66
24
46
7
61
54
15
3
22
38
28
64
50
2
63
58
27
62
56
33
35
40
37
41
8
20
9
60
53
48
12
21
30
6
25
29

> <PUBCHEM_MMFF94_PARTIAL_CHARGES>
54
1 -0.43
10 -0.57
11 -0.9
12 -0.73
13 0.3
14 0.28
16 0.27
18 0.27
19 0.54
2 -0.57
20 0.63
21 0.09
22 0.09
23 -0.15
24 -0.15
25 -0.15
26 -0.15
27 0.08
28 0.08
29 0.09
3 -0.57
30 -0.15
31 -0.15
32 0.08
33 0.4
34 0.09
35 0.09
36 0.08
37 -0.15
38 -0.15
39 -0.15
4 -0.53
40 0.63
5 -0.53
51 0.36
52 0.37
53 0.15
54 0.15
55 0.15
56 0.15
57 0.15
58 0.15
59 0.45
6 -0.53
60 0.45
61 0.15
62 0.15
63 0.45
64 0.15
65 0.45
66 0.5
7 -0.57
8 -0.53
9 -0.65

> <PUBCHEM_EFFECTIVE_ROTOR_COUNT>
10.4

> <PUBCHEM_PHARMACOPHORE_FEATURES>
17
1 10 acceptor
1 11 cation
1 11 donor
1 12 donor
1 2 acceptor
1 3 acceptor
1 4 donor
1 5 donor
1 6 donor
1 7 acceptor
1 8 donor
1 9 acceptor
3 9 10 40 anion
6 21 25 26 30 31 32 rings
6 22 23 24 27 28 29 rings
6 34 35 36 37 38 39 rings
7 11 13 14 15 16 17 18 rings

> <PUBCHEM_HEAVY_ATOM_COUNT>
40

> <PUBCHEM_ATOM_DEF_STEREO_COUNT>
2

> <PUBCHEM_ATOM_UDEF_STEREO_COUNT>
0

> <PUBCHEM_BOND_DEF_STEREO_COUNT>
0

> <PUBCHEM_BOND_UDEF_STEREO_COUNT>
0

> <PUBCHEM_ISOTOPIC_ATOM_COUNT>
0

> <PUBCHEM_COMPONENT_COUNT>
1

> <PUBCHEM_CACTVS_TAUTO_COUNT>
165

> <PUBCHEM_CONFORMER_ID>
0050AF3800000001

> <PUBCHEM_MMFF94_ENERGY>
125.3382

> <PUBCHEM_FEATURE_SELFOVERLAP>
86.334

> <PUBCHEM_SHAPE_FINGERPRINT>
10290309 65 18047748200428628366
10462674 125 15546817039528730382
10462674 296 17978229692303424551
10864689 126 18267303136713179330
10940486 97 18261399991622298853
11014199 57 17831300866962714330
11524674 6 18341610374438332885
11796584 16 18411705370391167380
12422481 6 17750235799451105569
12522641 33 18265330613407181893
13008946 267 17765444141466251697
14028597 1 17630052560254460705
14040221 299 18269835320677393238
14068700 686 17765425831186965752
14444916 359 18339654321957309777
15230672 131 18336264536014448138
15274700 242 16733251383851332048
15297060 5 18272374122953308835
15361156 5 17968670426858654644
15400415 2 18338232644284619389
15439362 3 17903917756986609445
15927050 60 18411415077810071007
15968369 26 17107321508455515367
21133410 171 17329655236509968114
21133410 52 15823810518497941724
23516275 137 17974309632781665443
23559900 14 18411133649471722456
244849 19 17702366533126127784
4017518 198 18338801113555593383
4073 2 18340763849343695512
45266715 3 18198334066759004997
508706 21 18340763853211115391
5265222 85 18335425642506295317
6371380 46 18342734079480308561
653340 110 18195235839742821122

> <PUBCHEM_SHAPE_MULTIPOLES>
754.53
16.51
6.62
1.46
7.4
12
-0.09
-7.99
0.72
-10.73
1.19
0.7
-0.77
0.38

> <PUBCHEM_SHAPE_SELFOVERLAP>
1649.613

> <PUBCHEM_SHAPE_VOLUME>
401.9

> <PUBCHEM_COORDINATE_TYPE>
2
5
10

$$$$
