50997096
  -OEChem-10052115173D

 56 59  0     0  0  0  0  0  0999 V2000
    4.7324    4.6741    0.3344 F   0  0  0  0  0  0  0  0  0  0  0  0
    5.4702    2.8270    1.2127 F   0  0  0  0  0  0  0  0  0  0  0  0
    5.4781    3.0790   -0.9414 F   0  0  0  0  0  0  0  0  0  0  0  0
   -7.3139   -0.6505   -1.1617 O   0  0  0  0  0  0  0  0  0  0  0  0
    0.5279   -6.7927    1.1847 O   0  5  0  0  0  0  0  0  0  0  0  0
    0.8503   -5.0709    2.5077 O   0  0  0  0  0  0  0  0  0  0  0  0
   -2.9342    1.6249   -0.0556 N   0  0  0  0  0  0  0  0  0  0  0  0
   -5.6360    0.5893   -0.1384 N   0  0  0  0  0  0  0  0  0  0  0  0
   -0.1017    3.9529    0.2305 N   0  0  0  0  0  0  0  0  0  0  0  0
    1.7317   -0.5313   -0.2898 N   0  0  0  0  0  0  0  0  0  0  0  0
    0.9124   -5.6141    1.3783 N   0  3  0  0  0  0  0  0  0  0  0  0
   -4.0168    2.3129    0.6522 C   0  0  0  0  0  0  0  0  0  0  0  0
   -3.2724    0.4500   -0.8639 C   0  0  0  0  0  0  0  0  0  0  0  0
   -5.1335    1.3349    1.0177 C   0  0  0  0  0  0  0  0  0  0  0  0
   -4.7392    0.4903   -1.2870 C   0  0  0  0  0  0  0  0  0  0  0  0
   -1.6237    2.0924    0.0055 C   0  0  0  0  0  0  0  0  0  0  0  0
   -0.5452    1.2251   -0.0918 C   0  0  0  0  0  0  0  0  0  0  0  0
   -6.8891   -0.0223   -0.1893 C   0  0  0  0  0  0  0  0  0  0  0  0
    0.7647    1.7191   -0.0282 C   0  0  0  0  0  0  0  0  0  0  0  0
   -1.3498    3.4357    0.1645 C   0  0  0  0  0  0  0  0  0  0  0  0
    0.9431    3.1088    0.1358 C   0  0  0  0  0  0  0  0  0  0  0  0
    1.8782    0.8671   -0.1237 C   0  0  0  0  0  0  0  0  0  0  0  0
   -7.7508    0.1201    1.0414 C   0  0  0  0  0  0  0  0  0  0  0  0
    2.2446    3.5991    0.1990 C   0  0  0  0  0  0  0  0  0  0  0  0
    3.1686    1.3846   -0.0574 C   0  0  0  0  0  0  0  0  0  0  0  0
    3.3517    2.7522    0.1041 C   0  0  0  0  0  0  0  0  0  0  0  0
    2.8464   -1.4169   -0.3902 C   0  0  0  0  0  0  0  0  0  0  0  0
    4.7296    3.3186    0.1757 C   0  0  0  0  0  0  0  0  0  0  0  0
    2.3792   -2.8311   -0.5962 C   0  0  0  0  0  0  0  0  0  0  0  0
    1.8671   -3.5602    0.4771 C   0  0  0  0  0  0  0  0  0  0  0  0
    2.4581   -3.4142   -1.8611 C   0  0  0  0  0  0  0  0  0  0  0  0
    1.4339   -4.8722    0.2857 C   0  0  0  0  0  0  0  0  0  0  0  0
    2.0252   -4.7263   -2.0524 C   0  0  0  0  0  0  0  0  0  0  0  0
    1.5128   -5.4553   -0.9791 C   0  0  0  0  0  0  0  0  0  0  0  0
   -3.6522    2.7700    1.5802 H   0  0  0  0  0  0  0  0  0  0  0  0
   -4.4137    3.1122    0.0144 H   0  0  0  0  0  0  0  0  0  0  0  0
   -2.6578    0.4110   -1.7716 H   0  0  0  0  0  0  0  0  0  0  0  0
   -3.0794   -0.4587   -0.2807 H   0  0  0  0  0  0  0  0  0  0  0  0
   -5.9517    1.8797    1.4976 H   0  0  0  0  0  0  0  0  0  0  0  0
   -4.7648    0.5910    1.7345 H   0  0  0  0  0  0  0  0  0  0  0  0
   -4.9834   -0.3974   -1.8802 H   0  0  0  0  0  0  0  0  0  0  0  0
   -4.9324    1.3674   -1.9168 H   0  0  0  0  0  0  0  0  0  0  0  0
   -0.7454    0.1648   -0.1992 H   0  0  0  0  0  0  0  0  0  0  0  0
   -2.1339    4.1832    0.2351 H   0  0  0  0  0  0  0  0  0  0  0  0
    2.3918    4.6705    0.3254 H   0  0  0  0  0  0  0  0  0  0  0  0
   -8.6275   -0.5281    0.9472 H   0  0  0  0  0  0  0  0  0  0  0  0
   -7.2010   -0.1835    1.9360 H   0  0  0  0  0  0  0  0  0  0  0  0
   -8.0935    1.1535    1.1385 H   0  0  0  0  0  0  0  0  0  0  0  0
    4.0547    0.7609   -0.1248 H   0  0  0  0  0  0  0  0  0  0  0  0
    0.8021   -0.9212   -0.3611 H   0  0  0  0  0  0  0  0  0  0  0  0
    3.4973   -1.1346   -1.2276 H   0  0  0  0  0  0  0  0  0  0  0  0
    3.4595   -1.3889    0.5201 H   0  0  0  0  0  0  0  0  0  0  0  0
    1.8156   -3.0837    1.4536 H   0  0  0  0  0  0  0  0  0  0  0  0
    2.8526   -2.8579   -2.7072 H   0  0  0  0  0  0  0  0  0  0  0  0
    2.0863   -5.1798   -3.0374 H   0  0  0  0  0  0  0  0  0  0  0  0
    1.1847   -6.4747   -1.1655 H   0  0  0  0  0  0  0  0  0  0  0  0
  1 28  1  0  0  0  0
  2 28  1  0  0  0  0
  3 28  1  0  0  0  0
  4 18  2  0  0  0  0
  5 11  1  0  0  0  0
  6 11  2  0  0  0  0
  7 12  1  0  0  0  0
  7 13  1  0  0  0  0
  7 16  1  0  0  0  0
  8 14  1  0  0  0  0
  8 15  1  0  0  0  0
  8 18  1  0  0  0  0
  9 20  2  0  0  0  0
  9 21  1  0  0  0  0
 10 22  1  0  0  0  0
 10 27  1  0  0  0  0
 10 50  1  0  0  0  0
 11 32  1  0  0  0  0
 12 14  1  0  0  0  0
 12 35  1  0  0  0  0
 12 36  1  0  0  0  0
 13 15  1  0  0  0  0
 13 37  1  0  0  0  0
 13 38  1  0  0  0  0
 14 39  1  0  0  0  0
 14 40  1  0  0  0  0
 15 41  1  0  0  0  0
 15 42  1  0  0  0  0
 16 17  2  0  0  0  0
 16 20  1  0  0  0  0
 17 19  1  0  0  0  0
 17 43  1  0  0  0  0
 18 23  1  0  0  0  0
 19 21  2  0  0  0  0
 19 22  1  0  0  0  0
 20 44  1  0  0  0  0
 21 24  1  0  0  0  0
 22 25  2  0  0  0  0
 23 46  1  0  0  0  0
 23 47  1  0  0  0  0
 23 48  1  0  0  0  0
 24 26  2  0  0  0  0
 24 45  1  0  0  0  0
 25 26  1  0  0  0  0
 25 49  1  0  0  0  0
 26 28  1  0  0  0  0
 27 29  1  0  0  0  0
 27 51  1  0  0  0  0
 27 52  1  0  0  0  0
 29 30  2  0  0  0  0
 29 31  1  0  0  0  0
 30 32  1  0  0  0  0
 30 53  1  0  0  0  0
 31 33  2  0  0  0  0
 31 54  1  0  0  0  0
 32 34  2  0  0  0  0
 33 34  1  0  0  0  0
 33 55  1  0  0  0  0
 34 56  1  0  0  0  0
M  CHG  2   5  -1  11   1
M  END
> <PUBCHEM_COMPOUND_CID>
50997096

> <PUBCHEM_CONFORMER_RMSD>
1

> <PUBCHEM_CONFORMER_DIVERSEORDER>
1
62
45
38
52
24
55
34
13
65
61
17
64
9
47
6
8
20
21
54
30
29
59
63
5
44
18
27
26
16
72
53
41
22
73
4
67
31
32
10
70
57
51
37
56
15
60
19
7
48
25
28
3
69
68
58
12
35
43
2
50
42
33
23
40
49
74
36
46
11
39
71
75
66
14

> <PUBCHEM_MMFF94_PARTIAL_CHARGES>
42
1 -0.34
10 -0.87
11 0.91
12 0.37
13 0.37
14 0.3
15 0.3
16 0.1
17 -0.15
18 0.57
2 -0.34
20 0.16
21 0.31
22 0.1
23 0.06
24 -0.15
25 -0.15
26 -0.14
27 0.51
28 1.16
29 -0.14
3 -0.34
30 -0.15
31 -0.15
32 0.13
33 -0.15
34 -0.15
4 -0.57
43 0.15
44 0.15
45 0.15
49 0.15
5 -0.52
50 0.4
53 0.15
54 0.15
55 0.15
56 0.15
6 -0.52
7 -0.84
8 -0.66
9 -0.62

> <PUBCHEM_EFFECTIVE_ROTOR_COUNT>
8.2

> <PUBCHEM_PHARMACOPHORE_FEATURES>
12
1 10 cation
1 10 donor
1 4 acceptor
1 5 acceptor
1 5 anion
1 6 acceptor
1 7 cation
1 9 acceptor
6 19 21 22 24 25 26 rings
6 29 30 31 32 33 34 rings
6 7 8 12 13 14 15 rings
6 9 16 17 19 20 21 rings

> <PUBCHEM_HEAVY_ATOM_COUNT>
34

> <PUBCHEM_ATOM_DEF_STEREO_COUNT>
0

> <PUBCHEM_ATOM_UDEF_STEREO_COUNT>
0

> <PUBCHEM_BOND_DEF_STEREO_COUNT>
0

> <PUBCHEM_BOND_UDEF_STEREO_COUNT>
0

> <PUBCHEM_ISOTOPIC_ATOM_COUNT>
0

> <PUBCHEM_COMPONENT_COUNT>
1

> <PUBCHEM_CACTVS_TAUTO_COUNT>
3

> <PUBCHEM_CONFORMER_ID>
030A276800000001

> <PUBCHEM_MMFF94_ENERGY>
115.9526

> <PUBCHEM_FEATURE_SELFOVERLAP>
61.01

> <PUBCHEM_SHAPE_FINGERPRINT>
10074138 170 17836898442679840984
102385 1 18123469367332144676
10319688 140 18341052926026885111
10622 236 16888929890714169043
10928967 22 17473841523837873683
11135926 11 18341320171909300477
11719270 70 18411692222937605160
11763715 3 17546473092820036678
11991303 11 17971194961807192204
12107183 9 17768543690388097137
12788726 201 16608308088024002882
12969540 37 18192432965961422604
1361 2 18412546539324736057
13692114 37 18053933223885607360
13785724 45 17840600197492544871
14863182 85 18409735088288153316
15483637 11 17545599414936157892
15484559 13 18341615944973979774
15927050 60 18271245036281017743
16993438 75 17760647362047179275
17492 89 18197780999166894717
18365409 1 17979639266379013340
19319366 153 18270956950843236221
20028762 73 18343016684228116092
20775530 9 17984694520327165199
21703447 108 18266737991662373401
22956985 138 18192986016426306416
23569914 152 17399199008897721693
25222932 49 18196372511481059223
3103668 31 17616826864899747838
32027 91 17906446637571702853
3882209 13 17400323812369350863
4461854 278 17977685408741823107
463206 1 17327463523530119019
4756261 7 17974542747276488274
50080093 196 18268408270448696399
613672 6 17547834275261782191
6673363 416 17694228765109684974
6679774 75 18337658781646954962
6700243 42 16979855129848698975
86090 222 18341343257500661660

> <PUBCHEM_SHAPE_MULTIPOLES>
635.37
13.58
10.16
1.36
32.67
11.23
0.13
-0.86
-0.4
-18.91
2.59
-0.38
2.26
0.21

> <PUBCHEM_SHAPE_SELFOVERLAP>
1382.191

> <PUBCHEM_SHAPE_VOLUME>
347.2

> <PUBCHEM_COORDINATE_TYPE>
2
5
10

$$$$
