24905287
  -OEChem-10052115163D

 38 40  0     0  0  0  0  0  0999 V2000
    4.1461    0.3446    2.0198 O   0  0  0  0  0  0  0  0  0  0  0  0
   -2.1592    1.0085    0.0048 N   0  0  0  0  0  0  0  0  0  0  0  0
   -0.8752    1.4028   -0.0832 N   0  0  0  0  0  0  0  0  0  0  0  0
   -3.4668   -1.0259    0.1238 N   0  0  0  0  0  0  0  0  0  0  0  0
   -2.0516   -3.0121    0.0705 N   0  0  0  0  0  0  0  0  0  0  0  0
    0.3277   -2.8970   -0.0804 N   0  0  0  0  0  0  0  0  0  0  0  0
   -3.2068    2.0006    0.0530 C   0  0  0  0  0  0  0  0  0  0  0  0
   -2.3124   -0.3458    0.0388 C   0  0  0  0  0  0  0  0  0  0  0  0
   -1.0363   -0.8764   -0.0321 C   0  0  0  0  0  0  0  0  0  0  0  0
   -0.1965    0.2504   -0.1053 C   0  0  0  0  0  0  0  0  0  0  0  0
    1.2417    0.2680   -0.1965 C   0  0  0  0  0  0  0  0  0  0  0  0
   -3.2417    2.8450   -1.2233 C   0  0  0  0  0  0  0  0  0  0  0  0
   -3.0828    2.8905    1.2922 C   0  0  0  0  0  0  0  0  0  0  0  0
   -0.9261   -2.2629   -0.0139 C   0  0  0  0  0  0  0  0  0  0  0  0
    2.0142    0.2986    0.9645 C   0  0  0  0  0  0  0  0  0  0  0  0
    1.8613    0.2549   -1.4462 C   0  0  0  0  0  0  0  0  0  0  0  0
    4.0258    0.3029   -0.3736 C   0  0  0  0  0  0  0  0  0  0  0  0
    3.4062    0.3159    0.8761 C   0  0  0  0  0  0  0  0  0  0  0  0
    3.2532    0.2726   -1.5347 C   0  0  0  0  0  0  0  0  0  0  0  0
   -3.2351   -2.3564    0.1332 C   0  0  0  0  0  0  0  0  0  0  0  0
    5.5143    0.3212   -0.4875 C   0  0  0  0  0  0  0  0  0  0  0  0
   -4.1613    1.4650    0.1230 H   0  0  0  0  0  0  0  0  0  0  0  0
   -2.3296    3.4407   -1.3403 H   0  0  0  0  0  0  0  0  0  0  0  0
   -4.0932    3.5336   -1.2079 H   0  0  0  0  0  0  0  0  0  0  0  0
   -3.3389    2.2080   -2.1094 H   0  0  0  0  0  0  0  0  0  0  0  0
   -2.1646    3.4880    1.2720 H   0  0  0  0  0  0  0  0  0  0  0  0
   -3.0662    2.2861    2.2059 H   0  0  0  0  0  0  0  0  0  0  0  0
   -3.9311    3.5801    1.3592 H   0  0  0  0  0  0  0  0  0  0  0  0
    1.5326    0.3083    1.9403 H   0  0  0  0  0  0  0  0  0  0  0  0
    1.2734    0.2307   -2.3608 H   0  0  0  0  0  0  0  0  0  0  0  0
    3.7201    0.2619   -2.5160 H   0  0  0  0  0  0  0  0  0  0  0  0
   -4.1157   -2.9862    0.2001 H   0  0  0  0  0  0  0  0  0  0  0  0
    1.1833   -2.3653   -0.1429 H   0  0  0  0  0  0  0  0  0  0  0  0
    0.3628   -3.9075   -0.0634 H   0  0  0  0  0  0  0  0  0  0  0  0
    5.9200    1.2272   -0.0254 H   0  0  0  0  0  0  0  0  0  0  0  0
    5.9442   -0.5570    0.0054 H   0  0  0  0  0  0  0  0  0  0  0  0
    5.8451    0.3076   -1.5316 H   0  0  0  0  0  0  0  0  0  0  0  0
    3.5471    0.3494    2.7859 H   0  0  0  0  0  0  0  0  0  0  0  0
  1 18  1  0  0  0  0
  1 38  1  0  0  0  0
  2  3  1  0  0  0  0
  2  7  1  0  0  0  0
  2  8  1  0  0  0  0
  3 10  2  0  0  0  0
  4  8  2  0  0  0  0
  4 20  1  0  0  0  0
  5 14  1  0  0  0  0
  5 20  2  0  0  0  0
  6 14  1  0  0  0  0
  6 33  1  0  0  0  0
  6 34  1  0  0  0  0
  7 12  1  0  0  0  0
  7 13  1  0  0  0  0
  7 22  1  0  0  0  0
  8  9  1  0  0  0  0
  9 10  1  0  0  0  0
  9 14  2  0  0  0  0
 10 11  1  0  0  0  0
 11 15  2  0  0  0  0
 11 16  1  0  0  0  0
 12 23  1  0  0  0  0
 12 24  1  0  0  0  0
 12 25  1  0  0  0  0
 13 26  1  0  0  0  0
 13 27  1  0  0  0  0
 13 28  1  0  0  0  0
 15 18  1  0  0  0  0
 15 29  1  0  0  0  0
 16 19  2  0  0  0  0
 16 30  1  0  0  0  0
 17 18  2  0  0  0  0
 17 19  1  0  0  0  0
 17 21  1  0  0  0  0
 19 31  1  0  0  0  0
 20 32  1  0  0  0  0
 21 35  1  0  0  0  0
 21 36  1  0  0  0  0
 21 37  1  0  0  0  0
M  END
> <PUBCHEM_COMPOUND_CID>
24905287

> <PUBCHEM_CONFORMER_RMSD>
0.6

> <PUBCHEM_CONFORMER_DIVERSEORDER>
2
4
5
3
6
1

> <PUBCHEM_MMFF94_PARTIAL_CHARGES>
25
1 -0.53
10 0.23
11 0.05
14 0.41
15 -0.15
16 -0.15
17 -0.14
18 0.08
19 -0.15
2 0.31
20 0.47
21 0.14
29 0.15
3 -0.71
30 0.15
31 0.15
32 0.15
33 0.4
34 0.4
38 0.45
4 -0.57
5 -0.62
6 -0.9
7 0.26
8 0.11

> <PUBCHEM_EFFECTIVE_ROTOR_COUNT>
2

> <PUBCHEM_PHARMACOPHORE_FEATURES>
10
1 1 donor
1 3 acceptor
1 6 cation
1 6 donor
3 2 4 8 cation
3 4 5 20 cation
3 7 12 13 hydrophobe
5 2 3 8 9 10 rings
6 11 15 16 17 18 19 rings
6 4 5 8 9 14 20 rings

> <PUBCHEM_HEAVY_ATOM_COUNT>
21

> <PUBCHEM_ATOM_DEF_STEREO_COUNT>
0

> <PUBCHEM_ATOM_UDEF_STEREO_COUNT>
0

> <PUBCHEM_BOND_DEF_STEREO_COUNT>
0

> <PUBCHEM_BOND_UDEF_STEREO_COUNT>
0

> <PUBCHEM_ISOTOPIC_ATOM_COUNT>
0

> <PUBCHEM_COMPONENT_COUNT>
1

> <PUBCHEM_CACTVS_TAUTO_COUNT>
15

> <PUBCHEM_CONFORMER_ID>
017C064700000002

> <PUBCHEM_MMFF94_ENERGY>
50.235

> <PUBCHEM_FEATURE_SELFOVERLAP>
51.025

> <PUBCHEM_SHAPE_FINGERPRINT>
10319926 262 18270099294030969056
10411042 1 17906175409986300007
10646746 165 18343019986926110776
11582403 64 17125874835393483696
11725454 13 17128414741676578200
12107183 9 18045775690212202010
12236239 1 17676487285003766958
12403259 415 17917713522025446048
12500047 106 18412261710220868116
12553582 1 18120941860761363819
12788726 201 18191321569874009267
13140716 1 18122634013867807403
13583140 156 17989194954874874606
13878862 14 16967736261744485465
14178342 30 18409728439356252314
15042514 8 18265341796853505003
16752209 62 18336540603226159487
16945 1 18410861005421778719
1741750 31 18341051805040492121
18186145 218 17988933227704233872
19049666 15 17916878932259172486
200 152 16443336628704936918
20510252 161 18343305906951341017
20645477 56 18411989035289671181
21033648 29 17418085530006381432
21065201 7 18412265043252828086
22149856 69 17830755162527326705
22182313 1 18265348218061156095
22907989 373 18261669376413205765
2334 1 18337957766830667375
23402539 116 18341328998135360063
23419403 2 17201056340082733761
23493267 7 18272091569823378568
23557571 272 18201446886713335572
23559900 14 18200319814981684198
23598291 2 17676499388295460756
23845131 108 17980783549558110305
2748010 2 18193290589584309959
283562 15 18411419548865484963
3091708 16 9055885076085207387
350125 39 18194131720232412187
469060 322 18336847350486740337
5104073 3 18410011023109661808
5265222 85 18198639894654140030
559249 180 18335419016168270890
573450 72 18260542334150316338
59755656 520 18057895653908673361
602551 16 18411982498876701114
6049 1 17988646358385853656
633830 44 13901637414972630952
7615 1 17894630400402308252
77492 1 17676205805684525260
81228 2 18338526355944045787
84936 182 17623566454450616609
9709674 26 18272100391712948934
9862522 239 17823409405853692621

> <PUBCHEM_SHAPE_MULTIPOLES>
401.4
8.53
3.1
1.24
8.32
0.96
-0.13
-3.1
-0.31
-5.31
-0.07
1
-0.61
0.09

> <PUBCHEM_SHAPE_SELFOVERLAP>
879.421

> <PUBCHEM_SHAPE_VOLUME>
218.3

> <PUBCHEM_COORDINATE_TYPE>
2
5
10

$$$$
