18516106
  -OEChem-10052115193D

 28 30  0     0  0  0  0  0  0999 V2000
    5.5517   -2.0060   -0.0024 Br  0  0  0  0  0  0  0  0  0  0  0  0
   -3.4444    0.5162    0.0017 S   0  0  0  0  0  0  0  0  0  0  0  0
   -4.5366   -2.2410   -0.0127 O   0  0  0  0  0  0  0  0  0  0  0  0
   -0.6947    3.4519   -0.0026 N   0  0  0  0  0  0  0  0  0  0  0  0
   -2.5480   -3.3829    0.0052 N   0  0  0  0  0  0  0  0  0  0  0  0
   -0.8632    0.6582    0.0020 C   0  0  0  0  0  0  0  0  0  0  0  0
    0.3946    1.2911    0.0013 C   0  0  0  0  0  0  0  0  0  0  0  0
   -2.0057    1.4638    0.0004 C   0  0  0  0  0  0  0  0  0  0  0  0
    1.6091    0.5147    0.0005 C   0  0  0  0  0  0  0  0  0  0  0  0
   -1.2107   -0.7343    0.0041 C   0  0  0  0  0  0  0  0  0  0  0  0
   -2.5689   -0.9466    0.0038 C   0  0  0  0  0  0  0  0  0  0  0  0
    0.4069    2.6764   -0.0009 C   0  0  0  0  0  0  0  0  0  0  0  0
   -1.9075    2.8566   -0.0018 C   0  0  0  0  0  0  0  0  0  0  0  0
    2.1989    0.1409    1.2080 C   0  0  0  0  0  0  0  0  0  0  0  0
    2.1946    0.1370   -1.2080 C   0  0  0  0  0  0  0  0  0  0  0  0
    3.3741   -0.6103    1.2073 C   0  0  0  0  0  0  0  0  0  0  0  0
    3.3698   -0.6142   -1.2089 C   0  0  0  0  0  0  0  0  0  0  0  0
   -3.2798   -2.1837    0.0042 C   0  0  0  0  0  0  0  0  0  0  0  0
    3.9596   -0.9878   -0.0012 C   0  0  0  0  0  0  0  0  0  0  0  0
   -0.4783   -1.5322    0.0054 H   0  0  0  0  0  0  0  0  0  0  0  0
    1.3421    3.2299   -0.0021 H   0  0  0  0  0  0  0  0  0  0  0  0
   -2.7709    3.5107   -0.0031 H   0  0  0  0  0  0  0  0  0  0  0  0
    1.7553    0.4266    2.1590 H   0  0  0  0  0  0  0  0  0  0  0  0
    1.7476    0.4197   -2.1582 H   0  0  0  0  0  0  0  0  0  0  0  0
    3.8208   -0.8935    2.1569 H   0  0  0  0  0  0  0  0  0  0  0  0
    3.8132   -0.9005   -2.1591 H   0  0  0  0  0  0  0  0  0  0  0  0
   -1.5344   -3.4149    0.0119 H   0  0  0  0  0  0  0  0  0  0  0  0
   -3.0281   -4.2769   -0.0006 H   0  0  0  0  0  0  0  0  0  0  0  0
  1 19  1  0  0  0  0
  2  8  1  0  0  0  0
  2 11  1  0  0  0  0
  3 18  2  0  0  0  0
  4 12  1  0  0  0  0
  4 13  2  0  0  0  0
  5 18  1  0  0  0  0
  5 27  1  0  0  0  0
  5 28  1  0  0  0  0
  6  7  1  0  0  0  0
  6  8  2  0  0  0  0
  6 10  1  0  0  0  0
  7  9  1  0  0  0  0
  7 12  2  0  0  0  0
  8 13  1  0  0  0  0
  9 14  2  0  0  0  0
  9 15  1  0  0  0  0
 10 11  2  0  0  0  0
 10 20  1  0  0  0  0
 11 18  1  0  0  0  0
 12 21  1  0  0  0  0
 13 22  1  0  0  0  0
 14 16  1  0  0  0  0
 14 23  1  0  0  0  0
 15 17  2  0  0  0  0
 15 24  1  0  0  0  0
 16 19  2  0  0  0  0
 16 25  1  0  0  0  0
 17 19  1  0  0  0  0
 17 26  1  0  0  0  0
M  END
> <PUBCHEM_COMPOUND_CID>
18516106

> <PUBCHEM_CONFORMER_RMSD>
0.6

> <PUBCHEM_CONFORMER_DIVERSEORDER>
1
4
2
3

> <PUBCHEM_MMFF94_PARTIAL_CHARGES>
25
1 -0.11
10 -0.15
11 -0.05
12 0.16
13 0.16
14 -0.15
15 -0.15
16 -0.15
17 -0.15
18 0.71
19 0.11
2 -0.08
20 0.15
21 0.15
22 0.15
23 0.15
24 0.15
25 0.15
26 0.15
27 0.37
28 0.37
3 -0.57
4 -0.62
5 -0.8
8 0.04

> <PUBCHEM_EFFECTIVE_ROTOR_COUNT>
2

> <PUBCHEM_PHARMACOPHORE_FEATURES>
7
1 1 hydrophobe
1 3 acceptor
1 4 acceptor
1 5 donor
5 2 6 8 10 11 rings
6 4 6 7 8 12 13 rings
6 9 14 15 16 17 19 rings

> <PUBCHEM_HEAVY_ATOM_COUNT>
19

> <PUBCHEM_ATOM_DEF_STEREO_COUNT>
0

> <PUBCHEM_ATOM_UDEF_STEREO_COUNT>
0

> <PUBCHEM_BOND_DEF_STEREO_COUNT>
0

> <PUBCHEM_BOND_UDEF_STEREO_COUNT>
0

> <PUBCHEM_ISOTOPIC_ATOM_COUNT>
0

> <PUBCHEM_COMPONENT_COUNT>
1

> <PUBCHEM_CACTVS_TAUTO_COUNT>
2

> <PUBCHEM_CONFORMER_ID>
011A888A00000001

> <PUBCHEM_MMFF94_ENERGY>
51.406

> <PUBCHEM_FEATURE_SELFOVERLAP>
35.585

> <PUBCHEM_SHAPE_FINGERPRINT>
10319926 262 18125136283764210170
10411042 1 18338799017405693987
10616163 171 18338517418043860234
11796584 16 18053102814415541518
12236239 1 17605003507281737492
12363563 72 18339081591777864567
12500047 106 18050562950696420292
12523318 42 18267848503202555114
12553582 1 18337398239612941523
13140716 1 18341896307333042929
14787075 74 17970904686400378152
14790565 3 18194977236042890313
14863182 85 16677539464668801535
14866123 147 18340209571060691515
15042514 8 18338240362598611553
15352361 1 18411136978092059854
15885798 251 18339082696001022147
16752209 62 18189603956902853993
16945 1 18338797801850892897
17492 89 17979637063477884739
17804303 29 18342458118856100753
18186145 218 11675151528127439212
19591789 44 17691981358186556361
20291156 8 18336265742488405283
20600515 1 18271534078673852156
20645477 70 17906165514739911087
20871998 22 18268146633513806337
20905425 154 18198064681408980366
21452121 199 18265608964803184872
21634736 98 18187372055714576340
21650355 55 18411979131047607369
221490 88 17974856377981642531
23184049 29 18410289254674309425
23366157 5 17971756828928214277
23402539 116 18270107999144155221
23557571 272 18129660786448763656
23559900 14 18340760443608352168
23598288 3 18042988491980317021
23728640 28 18192715544448887499
2748010 2 18267855254611705325
3084891 72 18267297639218454405
3091708 16 9206462102419002625
314173 41 18192717962732259307
335352 9 18410573964557732533
3421961 26 18124034787038434467
463206 1 18261953062866466266
559249 180 17898569766049730330
568465 68 17346878931881965326
5902787 121 18337951293750495345
602551 16 18340202969627333658
67856867 119 18260835908572665788
7364860 26 17909270530822827641
77492 1 17532381868052661184
7970288 3 18338234972014800187
81228 2 18342459192888393409
9709674 26 18127694816655860678

> <PUBCHEM_SHAPE_MULTIPOLES>
384.97
8.75
3.5
0.93
8.19
0.06
0
-7.36
-0.01
-4.17
0
0.88
-0.01
0

> <PUBCHEM_SHAPE_SELFOVERLAP>
828.247

> <PUBCHEM_SHAPE_VOLUME>
217.2

> <PUBCHEM_COORDINATE_TYPE>
2
5
10

$$$$
