11516978
  -OEChem-10062122003D

 47 49  0     1  0  0  0  0  0999 V2000
    6.2305    3.1110   -0.9991 Cl  0  0  0  0  0  0  0  0  0  0  0  0
    3.6702    1.8532   -1.7695 F   0  0  0  0  0  0  0  0  0  0  0  0
   -3.8772   -1.8825   -0.3126 O   0  0  0  0  0  0  0  0  0  0  0  0
   -6.0981    1.2659    0.2456 O   0  0  0  0  0  0  0  0  0  0  0  0
   -3.1853    1.3648    0.6929 N   0  0  0  0  0  0  0  0  0  0  0  0
    2.2593   -0.0883   -0.3830 N   0  0  0  0  0  0  0  0  0  0  0  0
    0.4682   -3.7995    0.0035 N   0  0  0  0  0  0  0  0  0  0  0  0
    2.4395   -2.4183   -0.1115 N   0  0  0  0  0  0  0  0  0  0  0  0
   -5.4721    2.6964   -1.4374 N   0  0  0  0  0  0  0  0  0  0  0  0
   -1.9677   -0.4449   -0.4353 C   0  0  0  0  0  0  0  0  0  0  0  0
   -2.8330    0.7609   -0.5928 C   0  0  0  0  0  0  0  0  0  0  0  0
    0.2404   -1.4281   -0.2737 C   0  0  0  0  0  0  0  0  0  0  0  0
   -4.0356    2.5283    0.4986 C   0  0  2  0  0  0  0  0  0  0  0  0
   -0.5840   -0.2991   -0.4215 C   0  0  0  0  0  0  0  0  0  0  0  0
   -2.5254   -1.7116   -0.3021 C   0  0  0  0  0  0  0  0  0  0  0  0
   -0.3109   -2.7128   -0.1384 C   0  0  0  0  0  0  0  0  0  0  0  0
   -1.6987   -2.8295   -0.1556 C   0  0  0  0  0  0  0  0  0  0  0  0
    1.6303   -1.3515   -0.2518 C   0  0  0  0  0  0  0  0  0  0  0  0
   -4.3817    3.1598    1.8411 C   0  0  0  0  0  0  0  0  0  0  0  0
   -5.3013    2.0798   -0.2153 C   0  0  0  0  0  0  0  0  0  0  0  0
    3.4725    0.4209    0.1061 C   0  0  0  0  0  0  0  0  0  0  0  0
    1.8008   -3.5934    0.0089 C   0  0  0  0  0  0  0  0  0  0  0  0
    4.1685    1.4007   -0.6087 C   0  0  0  0  0  0  0  0  0  0  0  0
    3.9931   -0.0498    1.3155 C   0  0  0  0  0  0  0  0  0  0  0  0
   -4.5616   -1.8230    0.9221 C   0  0  0  0  0  0  0  0  0  0  0  0
    5.3732    1.9048   -0.1189 C   0  0  0  0  0  0  0  0  0  0  0  0
    5.1980    0.4543    1.8051 C   0  0  0  0  0  0  0  0  0  0  0  0
    5.8880    1.4316    1.0880 C   0  0  0  0  0  0  0  0  0  0  0  0
   -2.3073    1.4967   -1.2170 H   0  0  0  0  0  0  0  0  0  0  0  0
   -3.7149    0.4671   -1.1735 H   0  0  0  0  0  0  0  0  0  0  0  0
   -3.5042    3.2806   -0.0975 H   0  0  0  0  0  0  0  0  0  0  0  0
   -0.1658    0.6998   -0.5162 H   0  0  0  0  0  0  0  0  0  0  0  0
   -2.3357    1.6425    1.1844 H   0  0  0  0  0  0  0  0  0  0  0  0
   -2.1530   -3.8139   -0.0533 H   0  0  0  0  0  0  0  0  0  0  0  0
   -3.4809    3.5086    2.3577 H   0  0  0  0  0  0  0  0  0  0  0  0
   -5.0459    4.0201    1.7019 H   0  0  0  0  0  0  0  0  0  0  0  0
   -4.8991    2.4528    2.5000 H   0  0  0  0  0  0  0  0  0  0  0  0
    1.8630    0.4756   -1.1301 H   0  0  0  0  0  0  0  0  0  0  0  0
    2.4229   -4.4727    0.1238 H   0  0  0  0  0  0  0  0  0  0  0  0
    3.4686   -0.8004    1.9010 H   0  0  0  0  0  0  0  0  0  0  0  0
   -4.4857   -2.7889    1.4313 H   0  0  0  0  0  0  0  0  0  0  0  0
   -5.6178   -1.6196    0.7255 H   0  0  0  0  0  0  0  0  0  0  0  0
   -4.1718   -1.0401    1.5789 H   0  0  0  0  0  0  0  0  0  0  0  0
   -4.8105    3.3688   -1.8116 H   0  0  0  0  0  0  0  0  0  0  0  0
   -6.2803    2.4882   -2.0146 H   0  0  0  0  0  0  0  0  0  0  0  0
    5.5973    0.0883    2.7465 H   0  0  0  0  0  0  0  0  0  0  0  0
    6.8253    1.8154    1.4824 H   0  0  0  0  0  0  0  0  0  0  0  0
  1 26  1  0  0  0  0
  2 23  1  0  0  0  0
  3 15  1  0  0  0  0
  3 25  1  0  0  0  0
  4 20  2  0  0  0  0
  5 11  1  0  0  0  0
  5 13  1  0  0  0  0
  5 33  1  0  0  0  0
  6 18  1  0  0  0  0
  6 21  1  0  0  0  0
  6 38  1  0  0  0  0
  7 16  1  0  0  0  0
  7 22  2  0  0  0  0
  8 18  2  0  0  0  0
  8 22  1  0  0  0  0
  9 20  1  0  0  0  0
  9 44  1  0  0  0  0
  9 45  1  0  0  0  0
 10 11  1  0  0  0  0
 10 14  2  0  0  0  0
 10 15  1  0  0  0  0
 11 29  1  0  0  0  0
 11 30  1  0  0  0  0
 12 14  1  0  0  0  0
 12 16  2  0  0  0  0
 12 18  1  0  0  0  0
 13 19  1  0  0  0  0
 13 20  1  0  0  0  0
 13 31  1  0  0  0  0
 14 32  1  0  0  0  0
 15 17  2  0  0  0  0
 16 17  1  0  0  0  0
 17 34  1  0  0  0  0
 19 35  1  0  0  0  0
 19 36  1  0  0  0  0
 19 37  1  0  0  0  0
 21 23  2  0  0  0  0
 21 24  1  0  0  0  0
 22 39  1  0  0  0  0
 23 26  1  0  0  0  0
 24 27  2  0  0  0  0
 24 40  1  0  0  0  0
 25 41  1  0  0  0  0
 25 42  1  0  0  0  0
 25 43  1  0  0  0  0
 26 28  2  0  0  0  0
 27 28  1  0  0  0  0
 27 46  1  0  0  0  0
 28 47  1  0  0  0  0
M  END
> <PUBCHEM_COMPOUND_CID>
11516978

> <PUBCHEM_CONFORMER_RMSD>
0.8

> <PUBCHEM_CONFORMER_DIVERSEORDER>
1
275
291
189
296
326
356
154
183
276
172
234
347
204
360
194
327
125
267
258
331
217
176
293
160
309
248
251
66
264
186
206
238
231
188
252
285
304
282
345
99
301
280
179
294
355
297
328
225
112
67
329
210
350
95
262
272
135
243
175
228
349
222
216
318
149
244
357
170
19
325
343
312
100
230
336
132
180
346
236
256
134
224
173
319
102
337
195
152
209
266
274
105
233
191
295
17
139
73
137
273
193
199
242
62
131
197
202
93
42
169
212
166
321
324
147
155
68
255
78
171
339
344
219
269
36
265
246
259
348
213
39
247
249
315
159
322
25
313
226
190
136
354
351
314
49
133
292
278
89
237
27
187
250
227
75
15
177
111
181
323
163
245
306
64
308
335
254
107
316
358
128
80
220
104
281
203
232
118
298
317
141
6
261
342
178
115
207
138
91
330
143
270
287
150
32
185
196
283
359
50
76
70
235
239
277
72
240
130
34
106
205
340
303
305
215
338
332
55
33
97
198
87
96
129
156
94
16
334
29
182
44
103
123
221
13
47
82
69
174
5
263
302
113
320
43
148
168
122
307
117
24
341
60
4
271
124
119
26
223
101
57
90
35
146
260
184
52
310
353
83
157
9
45
81
126
56
201
65
109
28
41
290
86
38
253
51
53
241
140
63
151
74
161
200
229
208
71
2
162
37
79
21
333
284
165
98
58
127
268
48
311
142
59
110
300
46
77
31
114
192
23
167
158
299
40
108
92
54
7
352
121
120
214
20
164
257
84
11
18
12
145
144
288
279
116
286
30
289
61
218
22
10
211
14
88
153
8
85
3

> <PUBCHEM_MMFF94_PARTIAL_CHARGES>
36
1 -0.18
10 -0.14
11 0.41
13 0.33
14 -0.15
15 0.08
16 0.31
17 -0.15
18 0.41
2 -0.19
20 0.57
21 0.1
22 0.47
23 0.19
24 -0.15
25 0.28
26 0.18
27 -0.15
28 -0.15
3 -0.36
32 0.15
33 0.36
34 0.15
38 0.4
39 0.15
4 -0.57
40 0.15
44 0.37
45 0.37
46 0.15
47 0.15
5 -0.9
6 -0.6
7 -0.62
8 -0.62
9 -0.8

> <PUBCHEM_EFFECTIVE_ROTOR_COUNT>
7

> <PUBCHEM_PHARMACOPHORE_FEATURES>
11
1 3 acceptor
1 4 acceptor
1 5 cation
1 5 donor
1 6 donor
1 9 donor
3 6 8 18 cation
3 7 8 22 cation
6 10 12 14 15 16 17 rings
6 21 23 24 26 27 28 rings
6 7 8 12 16 18 22 rings

> <PUBCHEM_HEAVY_ATOM_COUNT>
28

> <PUBCHEM_ATOM_DEF_STEREO_COUNT>
1

> <PUBCHEM_ATOM_UDEF_STEREO_COUNT>
0

> <PUBCHEM_BOND_DEF_STEREO_COUNT>
0

> <PUBCHEM_BOND_UDEF_STEREO_COUNT>
0

> <PUBCHEM_ISOTOPIC_ATOM_COUNT>
0

> <PUBCHEM_COMPONENT_COUNT>
1

> <PUBCHEM_CACTVS_TAUTO_COUNT>
6

> <PUBCHEM_CONFORMER_ID>
00AFBC3200000001

> <PUBCHEM_MMFF94_ENERGY>
96.8464

> <PUBCHEM_FEATURE_SELFOVERLAP>
55.993

> <PUBCHEM_SHAPE_FINGERPRINT>
10 15 18186525414713409505
10411042 1 17330274381810176414
10670039 82 18337117847432038284
10937287 8 18413108333763214607
12107183 9 18263912277566499322
12236239 1 17751630195069902502
12390115 104 18342187677650282408
12422481 6 17749105552314576012
12596602 18 17386557106672446602
12788726 201 18049723211301646030
12930653 34 18410578387899741647
13140716 1 18265331707669280683
13540713 4 18338531741934138711
13965767 371 18186796942561557036
14251764 75 18271255910821784425
14294032 229 18200035186940445375
14739800 52 17987500559668448384
14790565 3 18337676424708084980
14848178 96 18341329985608488088
14849402 71 18123477076998147594
15238133 3 18341042017654316488
21033648 144 18265045843694169917
21033648 29 18129364047311004784
21302155 148 18410014351029151873
21796203 349 17107094386813370563
21859007 373 17098886141621603581
23559900 14 18127972992586536935
245318 6 18336840696796616140
2748736 6 18339634560343815157
283562 15 18338233894573692087
2838139 119 17703780384440678056
3459 39 18272640277591276736
350125 39 18338800138724311769
469060 322 18267884932903799619
474 4 18338233752316849859
5104073 3 18262237725072355451
6034566 193 18335149733807128780
6058803 2 17842263767586962367
6371009 1 18265321987952139605
7064713 232 18336820979128982052
7288768 16 18186803590823057547
7808743 9 18411698833033945048
9849439 229 18409452479001453068
9981440 41 18408603690527720875

> <PUBCHEM_SHAPE_MULTIPOLES>
534.18
15.04
4.7
1.26
4.28
1.47
-0.28
-17.28
-1.46
-2.29
0.11
0.6
-0.96
-1.21

> <PUBCHEM_SHAPE_SELFOVERLAP>
1144.925

> <PUBCHEM_SHAPE_VOLUME>
296.8

> <PUBCHEM_COORDINATE_TYPE>
2
5
10

$$$$
