49830932
  -OEChem-10062121563D

 42 43  0     0  0  0  0  0  0999 V2000
   -5.5881   -1.3442    0.1472 Cl  0  0  0  0  0  0  0  0  0  0  0  0
    2.6744    0.0796    1.8782 S   0  0  0  0  0  0  0  0  0  0  0  0
    3.0252    1.3953    2.3904 O   0  0  0  0  0  0  0  0  0  0  0  0
    1.2803   -0.3344    1.8334 O   0  0  0  0  0  0  0  0  0  0  0  0
   -2.7871   -2.2871   -0.1785 O   0  0  0  0  0  0  0  0  0  0  0  0
   -0.6684    3.1238   -0.2929 O   0  0  0  0  0  0  0  0  0  0  0  0
    0.5212    1.1413   -0.4773 N   0  0  0  0  0  0  0  0  0  0  0  0
    3.5731   -1.1016    2.7233 N   0  0  0  0  0  0  0  0  0  0  0  0
   -1.7807   -0.2142   -0.2503 N   0  0  0  0  0  0  0  0  0  0  0  0
   -5.5058    1.6928    0.1889 N   0  0  0  0  0  0  0  0  0  0  0  0
    2.9001    0.7150   -0.7831 C   0  0  0  0  0  0  0  0  0  0  0  0
    3.3484   -0.0806    0.2711 C   0  0  0  0  0  0  0  0  0  0  0  0
    1.8282    1.7361   -0.5847 C   0  0  0  0  0  0  0  0  0  0  0  0
    3.4559    0.5670   -2.0539 C   0  0  0  0  0  0  0  0  0  0  0  0
    4.3525   -1.0244    0.0546 C   0  0  0  0  0  0  0  0  0  0  0  0
    4.4601   -0.3767   -2.2704 C   0  0  0  0  0  0  0  0  0  0  0  0
    4.9083   -1.1725   -1.2162 C   0  0  0  0  0  0  0  0  0  0  0  0
   -0.6355    1.8969   -0.3383 C   0  0  0  0  0  0  0  0  0  0  0  0
   -1.9028    1.1318   -0.2136 C   0  0  0  0  0  0  0  0  0  0  0  0
   -3.1095    1.7976   -0.0707 C   0  0  0  0  0  0  0  0  0  0  0  0
   -4.2654    1.0328    0.0420 C   0  0  0  0  0  0  0  0  0  0  0  0
   -2.9257   -0.9241   -0.1380 C   0  0  0  0  0  0  0  0  0  0  0  0
   -4.1803   -0.3546    0.0086 C   0  0  0  0  0  0  0  0  0  0  0  0
   -1.4655   -2.7912   -0.3310 C   0  0  0  0  0  0  0  0  0  0  0  0
   -1.5128   -4.3043   -0.3391 C   0  0  0  0  0  0  0  0  0  0  0  0
    1.7957    2.4332   -1.4319 H   0  0  0  0  0  0  0  0  0  0  0  0
    2.0106    2.3675    0.2904 H   0  0  0  0  0  0  0  0  0  0  0  0
    3.1172    1.1771   -2.8871 H   0  0  0  0  0  0  0  0  0  0  0  0
    4.7461   -1.6736    0.8278 H   0  0  0  0  0  0  0  0  0  0  0  0
    0.4414    0.1278   -0.4948 H   0  0  0  0  0  0  0  0  0  0  0  0
    4.8925   -0.4924   -3.2599 H   0  0  0  0  0  0  0  0  0  0  0  0
    5.6901   -1.9072   -1.3859 H   0  0  0  0  0  0  0  0  0  0  0  0
   -3.1625    2.8816   -0.0463 H   0  0  0  0  0  0  0  0  0  0  0  0
    3.0821   -1.9553    3.0160 H   0  0  0  0  0  0  0  0  0  0  0  0
    4.2747   -0.7743    3.3986 H   0  0  0  0  0  0  0  0  0  0  0  0
   -0.8343   -2.4610    0.5030 H   0  0  0  0  0  0  0  0  0  0  0  0
   -1.0342   -2.4432   -1.2775 H   0  0  0  0  0  0  0  0  0  0  0  0
   -5.5454    2.7031    0.2103 H   0  0  0  0  0  0  0  0  0  0  0  0
   -6.3557    1.1507    0.2716 H   0  0  0  0  0  0  0  0  0  0  0  0
   -1.9495   -4.6814    0.5916 H   0  0  0  0  0  0  0  0  0  0  0  0
   -2.1453   -4.6660   -1.1565 H   0  0  0  0  0  0  0  0  0  0  0  0
   -0.5106   -4.7265   -0.4550 H   0  0  0  0  0  0  0  0  0  0  0  0
  1 23  1  0  0  0  0
  2  3  2  0  0  0  0
  2  4  2  0  0  0  0
  2  8  1  0  0  0  0
  2 12  1  0  0  0  0
  5 22  1  0  0  0  0
  5 24  1  0  0  0  0
  6 18  2  0  0  0  0
  7 13  1  0  0  0  0
  7 18  1  0  0  0  0
  7 30  1  0  0  0  0
  8 34  1  0  0  0  0
  8 35  1  0  0  0  0
  9 19  2  0  0  0  0
  9 22  1  0  0  0  0
 10 21  1  0  0  0  0
 10 38  1  0  0  0  0
 10 39  1  0  0  0  0
 11 12  1  0  0  0  0
 11 13  1  0  0  0  0
 11 14  2  0  0  0  0
 12 15  2  0  0  0  0
 13 26  1  0  0  0  0
 13 27  1  0  0  0  0
 14 16  1  0  0  0  0
 14 28  1  0  0  0  0
 15 17  1  0  0  0  0
 15 29  1  0  0  0  0
 16 17  2  0  0  0  0
 16 31  1  0  0  0  0
 17 32  1  0  0  0  0
 18 19  1  0  0  0  0
 19 20  1  0  0  0  0
 20 21  2  0  0  0  0
 20 33  1  0  0  0  0
 21 23  1  0  0  0  0
 22 23  2  0  0  0  0
 24 25  1  0  0  0  0
 24 36  1  0  0  0  0
 24 37  1  0  0  0  0
 25 40  1  0  0  0  0
 25 41  1  0  0  0  0
 25 42  1  0  0  0  0
M  END
> <PUBCHEM_COMPOUND_CID>
49830932

> <PUBCHEM_CONFORMER_RMSD>
1

> <PUBCHEM_CONFORMER_DIVERSEORDER>
2
59
76
43
52
1
21
102
54
79
92
47
39
99
22
84
40
53
69
16
9
86
19
81
95
13
35
70
7
88
96
66
80
20
8
55
91
50
71
97
62
45
87
65
82
89
57
42
29
24
49
28
41
103
48
18
60
44
98
11
78
72
25
90
34
67
37
32
73
63
64
6
100
17
61
74
75
12
30
94
85
51
68
10
4
93
101
14
58
33
56
83
23
5
27
38
46
31
3
26
36
77
15

> <PUBCHEM_MMFF94_PARTIAL_CHARGES>
34
1 -0.18
10 -0.9
11 -0.14
12 -0.01
13 0.44
14 -0.15
15 -0.15
16 -0.15
17 -0.15
18 0.54
19 0.4
2 1.45
20 -0.15
21 0.1
22 0.39
23 0.18
24 0.28
28 0.15
29 0.15
3 -0.65
30 0.37
31 0.15
32 0.15
33 0.15
34 0.42
35 0.42
38 0.4
39 0.4
4 -0.65
5 -0.36
6 -0.57
7 -0.73
8 -0.98
9 -0.62

> <PUBCHEM_EFFECTIVE_ROTOR_COUNT>
7

> <PUBCHEM_PHARMACOPHORE_FEATURES>
11
1 10 cation
1 10 donor
1 3 acceptor
1 4 acceptor
1 5 acceptor
1 6 acceptor
1 7 donor
1 8 donor
1 9 acceptor
6 11 12 14 15 16 17 rings
6 9 19 20 21 22 23 rings

> <PUBCHEM_HEAVY_ATOM_COUNT>
25

> <PUBCHEM_ATOM_DEF_STEREO_COUNT>
0

> <PUBCHEM_ATOM_UDEF_STEREO_COUNT>
0

> <PUBCHEM_BOND_DEF_STEREO_COUNT>
0

> <PUBCHEM_BOND_UDEF_STEREO_COUNT>
0

> <PUBCHEM_ISOTOPIC_ATOM_COUNT>
0

> <PUBCHEM_COMPONENT_COUNT>
1

> <PUBCHEM_CACTVS_TAUTO_COUNT>
4

> <PUBCHEM_CONFORMER_ID>
02F85C1400000002

> <PUBCHEM_MMFF94_ENERGY>
57.8975

> <PUBCHEM_FEATURE_SELFOVERLAP>
55.89

> <PUBCHEM_SHAPE_FINGERPRINT>
10366900 7 17417822711919302468
11545043 162 17917997148606841601
12236239 1 17894354358485237468
12553582 1 18335696182738395759
12730499 353 14346090702039338600
12788726 201 18042971969262618321
13009979 54 17535172368703356272
13402501 40 18129953290564043438
13544592 145 18131634482259851370
13583140 156 14979092817503422145
14251757 5 18337405914466045367
15537594 2 17822297855363792945
16752209 62 18334287630976138389
17093844 170 18342181033853113462
19319366 153 17530965795681038082
20511986 3 17821725061461445604
20600515 1 18270101500610801017
21033648 29 17346591955068122521
21781051 124 18189062040100893011
23557571 272 18200023079326735968
23559900 14 18272936033192477492
238 59 15502373431225106564
2838139 119 14763792893815953153
3004659 81 18187936070772473332
3298306 158 18271806757689039495
5385378 56 18052832351797930633
602551 16 18341610400165899162
6823239 73 18272373113593509808
960060 61 17022620875065371493

> <PUBCHEM_SHAPE_MULTIPOLES>
476.81
11.46
3.23
1.84
4.08
2.56
0.99
1.57
-1.34
3.13
-0.44
-3.92
0.05
-0.07

> <PUBCHEM_SHAPE_SELFOVERLAP>
988.576

> <PUBCHEM_SHAPE_VOLUME>
273.6

> <PUBCHEM_COORDINATE_TYPE>
2
5
10

$$$$
