46228508
  -OEChem-10062122033D

 62 66  0     0  0  0  0  0  0999 V2000
   -4.7479    1.5084    0.5183 O   0  0  0  0  0  0  0  0  0  0  0  0
   -0.3100   -0.0583    0.2211 O   0  0  0  0  0  0  0  0  0  0  0  0
   -4.8415   -3.5445    2.2730 O   0  0  0  0  0  0  0  0  0  0  0  0
    4.0225   -0.2490   -0.0464 N   0  0  0  0  0  0  0  0  0  0  0  0
    4.6025   -1.4604   -0.0972 N   0  0  0  0  0  0  0  0  0  0  0  0
    1.8388    0.8566    0.1010 N   0  0  0  0  0  0  0  0  0  0  0  0
    0.0110    2.2625    0.2342 N   0  0  0  0  0  0  0  0  0  0  0  0
   -4.7997   -1.3448    1.3911 N   0  0  0  0  0  0  0  0  0  0  0  0
   -4.8252   -3.0977   -0.0548 N   0  0  0  0  0  0  0  0  0  0  0  0
    3.7912   -3.7512   -0.0783 C   0  0  0  0  0  0  0  0  0  0  0  0
    3.5624   -2.2968   -0.0471 C   0  0  0  0  0  0  0  0  0  0  0  0
    3.0897   -4.4271   -1.3059 C   0  0  0  0  0  0  0  0  0  0  0  0
    3.2382   -4.4578    1.2068 C   0  0  0  0  0  0  0  0  0  0  0  0
    5.2922   -4.2120   -0.1725 C   0  0  0  0  0  0  0  0  0  0  0  0
    2.3280   -1.6250    0.0349 C   0  0  0  0  0  0  0  0  0  0  0  0
    2.6616   -0.2926    0.0337 C   0  0  0  0  0  0  0  0  0  0  0  0
    4.8179    0.8978   -0.0758 C   0  0  0  0  0  0  0  0  0  0  0  0
    4.6581    1.8312   -1.0999 C   0  0  0  0  0  0  0  0  0  0  0  0
    5.7712    1.1111    0.9198 C   0  0  0  0  0  0  0  0  0  0  0  0
    0.4387    0.9131    0.1885 C   0  0  0  0  0  0  0  0  0  0  0  0
   -4.7863   -0.8425    0.0898 C   0  0  0  0  0  0  0  0  0  0  0  0
   -4.8019   -1.9161   -0.7957 C   0  0  0  0  0  0  0  0  0  0  0  0
    5.4518    2.9780   -1.1284 C   0  0  0  0  0  0  0  0  0  0  0  0
    6.5649    2.2577    0.8913 C   0  0  0  0  0  0  0  0  0  0  0  0
   -4.7620    0.4639   -0.3431 C   0  0  0  0  0  0  0  0  0  0  0  0
   -1.2890    2.7615    0.3219 C   0  0  0  0  0  0  0  0  0  0  0  0
    6.4052    3.1912   -0.1328 C   0  0  0  0  0  0  0  0  0  0  0  0
   -4.7937   -1.7399   -2.1608 C   0  0  0  0  0  0  0  0  0  0  0  0
   -3.6707    2.3823    0.4640 C   0  0  0  0  0  0  0  0  0  0  0  0
   -4.7535    0.6684   -1.7265 C   0  0  0  0  0  0  0  0  0  0  0  0
   -4.8242   -2.7669    1.3298 C   0  0  0  0  0  0  0  0  0  0  0  0
   -2.3712    1.8832    0.3765 C   0  0  0  0  0  0  0  0  0  0  0  0
   -4.7691   -0.4211   -2.6251 C   0  0  0  0  0  0  0  0  0  0  0  0
   -1.5062    4.1391    0.3549 C   0  0  0  0  0  0  0  0  0  0  0  0
   -3.8880    3.7597    0.4970 C   0  0  0  0  0  0  0  0  0  0  0  0
   -2.8058    4.6381    0.4425 C   0  0  0  0  0  0  0  0  0  0  0  0
    3.2620   -5.5091   -1.3236 H   0  0  0  0  0  0  0  0  0  0  0  0
    2.0062   -4.2639   -1.2802 H   0  0  0  0  0  0  0  0  0  0  0  0
    3.4652   -4.0066   -2.2461 H   0  0  0  0  0  0  0  0  0  0  0  0
    2.1594   -4.2957    1.3128 H   0  0  0  0  0  0  0  0  0  0  0  0
    3.4100   -5.5397    1.1777 H   0  0  0  0  0  0  0  0  0  0  0  0
    3.7223   -4.0597    2.1062 H   0  0  0  0  0  0  0  0  0  0  0  0
    5.8674   -3.8433    0.6848 H   0  0  0  0  0  0  0  0  0  0  0  0
    5.3800   -5.3043   -0.1910 H   0  0  0  0  0  0  0  0  0  0  0  0
    5.7630   -3.8219   -1.0824 H   0  0  0  0  0  0  0  0  0  0  0  0
    1.3398   -2.0577    0.0882 H   0  0  0  0  0  0  0  0  0  0  0  0
    2.3288    1.7459    0.1020 H   0  0  0  0  0  0  0  0  0  0  0  0
    3.9279    1.6786   -1.8910 H   0  0  0  0  0  0  0  0  0  0  0  0
    5.9061    0.3964    1.7281 H   0  0  0  0  0  0  0  0  0  0  0  0
    5.3291    3.7038   -1.9270 H   0  0  0  0  0  0  0  0  0  0  0  0
    7.3066    2.4244    1.6670 H   0  0  0  0  0  0  0  0  0  0  0  0
    0.7467    2.9638    0.1981 H   0  0  0  0  0  0  0  0  0  0  0  0
   -4.7923   -0.7794    2.2310 H   0  0  0  0  0  0  0  0  0  0  0  0
    7.0233    4.0839   -0.1551 H   0  0  0  0  0  0  0  0  0  0  0  0
   -4.8401   -4.0300   -0.4495 H   0  0  0  0  0  0  0  0  0  0  0  0
   -4.8060   -2.5761   -2.8495 H   0  0  0  0  0  0  0  0  0  0  0  0
   -4.7435    1.6767   -2.1344 H   0  0  0  0  0  0  0  0  0  0  0  0
   -2.2552    0.8101    0.3809 H   0  0  0  0  0  0  0  0  0  0  0  0
   -4.7638   -0.2284   -3.6950 H   0  0  0  0  0  0  0  0  0  0  0  0
   -0.6723    4.8351    0.3131 H   0  0  0  0  0  0  0  0  0  0  0  0
   -4.8983    4.1537    0.5648 H   0  0  0  0  0  0  0  0  0  0  0  0
   -2.9753    5.7106    0.4680 H   0  0  0  0  0  0  0  0  0  0  0  0
  1 25  1  0  0  0  0
  1 29  1  0  0  0  0
  2 20  2  0  0  0  0
  3 31  2  0  0  0  0
  4  5  1  0  0  0  0
  4 16  1  0  0  0  0
  4 17  1  0  0  0  0
  5 11  2  0  0  0  0
  6 16  1  0  0  0  0
  6 20  1  0  0  0  0
  6 47  1  0  0  0  0
  7 20  1  0  0  0  0
  7 26  1  0  0  0  0
  7 52  1  0  0  0  0
  8 21  1  0  0  0  0
  8 31  1  0  0  0  0
  8 53  1  0  0  0  0
  9 22  1  0  0  0  0
  9 31  1  0  0  0  0
  9 55  1  0  0  0  0
 10 11  1  0  0  0  0
 10 12  1  0  0  0  0
 10 13  1  0  0  0  0
 10 14  1  0  0  0  0
 11 15  1  0  0  0  0
 12 37  1  0  0  0  0
 12 38  1  0  0  0  0
 12 39  1  0  0  0  0
 13 40  1  0  0  0  0
 13 41  1  0  0  0  0
 13 42  1  0  0  0  0
 14 43  1  0  0  0  0
 14 44  1  0  0  0  0
 14 45  1  0  0  0  0
 15 16  2  0  0  0  0
 15 46  1  0  0  0  0
 17 18  2  0  0  0  0
 17 19  1  0  0  0  0
 18 23  1  0  0  0  0
 18 48  1  0  0  0  0
 19 24  2  0  0  0  0
 19 49  1  0  0  0  0
 21 22  2  0  0  0  0
 21 25  1  0  0  0  0
 22 28  1  0  0  0  0
 23 27  2  0  0  0  0
 23 50  1  0  0  0  0
 24 27  1  0  0  0  0
 24 51  1  0  0  0  0
 25 30  2  0  0  0  0
 26 32  2  0  0  0  0
 26 34  1  0  0  0  0
 27 54  1  0  0  0  0
 28 33  2  0  0  0  0
 28 56  1  0  0  0  0
 29 32  1  0  0  0  0
 29 35  2  0  0  0  0
 30 33  1  0  0  0  0
 30 57  1  0  0  0  0
 32 58  1  0  0  0  0
 33 59  1  0  0  0  0
 34 36  2  0  0  0  0
 34 60  1  0  0  0  0
 35 36  1  0  0  0  0
 35 61  1  0  0  0  0
 36 62  1  0  0  0  0
M  END
> <PUBCHEM_COMPOUND_CID>
46228508

> <PUBCHEM_CONFORMER_RMSD>
1

> <PUBCHEM_CONFORMER_DIVERSEORDER>
1
266
92
197
306
316
229
270
297
137
170
247
75
291
287
279
207
307
176
324
255
105
231
281
143
56
298
235
115
45
33
277
288
178
310
51
151
309
202
206
112
153
26
188
241
60
98
285
233
203
300
282
42
174
249
271
131
224
226
212
236
120
327
122
222
272
161
43
175
254
301
299
353
214
136
220
346
73
157
340
317
250
260
326
88
180
83
215
352
48
172
205
325
251
350
311
167
213
313
218
90
246
227
147
263
87
144
196
64
232
114
91
355
289
44
312
354
63
244
183
49
319
171
295
22
85
294
258
96
242
265
336
24
351
162
259
184
192
15
274
248
34
111
165
267
304
237
217
321
124
338
59
117
239
292
5
305
100
29
252
78
276
179
283
314
257
286
308
150
69
343
173
211
332
223
52
256
341
328
262
320
94
21
315
333
347
204
107
210
118
97
339
329
234
245
323
160
221
40
187
95
36
148
240
154
225
130
82
268
177
253
169
77
195
228
318
230
330
198
342
290
4
273
264
186
113
54
159
121
348
47
156
322
11
201
334
89
189
280
303
166
110
199
208
66
38
278
152
71
104
185
164
62
145
50
129
349
163
39
149
302
293
108
30
127
134
58
182
337
190
296
133
119
275
331
138
23
116
140
126
16
80
125
155
76
146
335
123
93
269
2
41
216
344
193
132
79
238
8
28
61
209
20
191
55
141
72
6
84
86
67
261
284
31
17
81
106
99
103
53
10
109
57
27
158
74
219
194
102
243
9
65
37
128
135
14
181
12
70
7
25
168
200
46
68
101
142
19
345
139
35
13
32
18
3

> <PUBCHEM_MMFF94_PARTIAL_CHARGES>
50
1 -0.17
10 0.18
11 0.11
15 -0.15
16 -0.09
17 -0.02
18 -0.15
19 -0.15
2 -0.57
20 0.69
21 0.12
22 0.12
23 -0.15
24 -0.15
25 0.08
26 0.12
27 -0.15
28 -0.15
29 0.08
3 -0.57
30 -0.15
31 0.69
32 -0.15
33 -0.15
34 -0.15
35 -0.15
36 -0.15
4 0.59
46 0.15
47 0.37
48 0.15
49 0.15
5 -0.71
50 0.15
51 0.15
52 0.37
53 0.37
54 0.15
55 0.37
56 0.15
57 0.15
58 0.15
59 0.15
6 -0.49
60 0.15
61 0.15
62 0.15
7 -0.55
8 -0.55
9 -0.55

> <PUBCHEM_EFFECTIVE_ROTOR_COUNT>
8

> <PUBCHEM_PHARMACOPHORE_FEATURES>
14
1 1 acceptor
1 2 acceptor
1 3 acceptor
1 5 acceptor
1 6 donor
1 7 donor
1 8 donor
1 9 donor
4 10 12 13 14 hydrophobe
5 4 5 11 15 16 rings
5 8 9 21 22 31 rings
6 17 18 19 23 24 27 rings
6 21 22 25 28 30 33 rings
6 26 29 32 34 35 36 rings

> <PUBCHEM_HEAVY_ATOM_COUNT>
36

> <PUBCHEM_ATOM_DEF_STEREO_COUNT>
0

> <PUBCHEM_ATOM_UDEF_STEREO_COUNT>
0

> <PUBCHEM_BOND_DEF_STEREO_COUNT>
0

> <PUBCHEM_BOND_UDEF_STEREO_COUNT>
0

> <PUBCHEM_ISOTOPIC_ATOM_COUNT>
0

> <PUBCHEM_COMPONENT_COUNT>
1

> <PUBCHEM_CACTVS_TAUTO_COUNT>
21

> <PUBCHEM_CONFORMER_ID>
02C1641C00000001

> <PUBCHEM_MMFF94_ENERGY>
139.8624

> <PUBCHEM_FEATURE_SELFOVERLAP>
71.259

> <PUBCHEM_SHAPE_FINGERPRINT>
10010297 198 18201999898181260006
10050765 1 18339644421946701936
10169797 241 18270697389391420094
10462674 369 17899993912728138839
10842051 180 18193832867443671388
11135926 11 18411134774820725468
11297010 23 17038936249571192501
12559416 138 18129652127579113295
14068700 686 18412267255055594664
15001296 14 18262797354994821131
15250474 111 18269547256555601302
15276724 80 18339927022332068165
15320291 9 18267302023810124078
16628084 112 17976249150820232917
23559900 14 18051692140585161264
249057 3 17834678192910129132
4073 2 18409450280041774264
550186 72 18412824711309033625
5912855 24 18341339911520807761
6036956 94 18411416185959009077
6376802 90 17894898608509793973
6431902 208 18338796818519185757

> <PUBCHEM_SHAPE_MULTIPOLES>
693.37
17.96
7.14
1.51
6.2
2.15
0.49
1.43
1.1
3.41
-1.28
-2.29
1.04
-0.2

> <PUBCHEM_SHAPE_SELFOVERLAP>
1526.018

> <PUBCHEM_SHAPE_VOLUME>
371.3

> <PUBCHEM_COORDINATE_TYPE>
2
5
10

$$$$
