2213120
  -OEChem-10052115193D

 48 51  0     0  0  0  0  0  0999 V2000
    3.8482   -2.0980   -1.0154 O   0  0  0  0  0  0  0  0  0  0  0  0
    3.8999    2.5353    0.5994 O   0  0  0  0  0  0  0  0  0  0  0  0
   -4.9397    1.4417   -1.0355 O   0  0  0  0  0  0  0  0  0  0  0  0
   -5.9702   -0.2723    0.1304 N   0  0  0  0  0  0  0  0  0  0  0  0
   -3.6460   -0.3758   -0.3593 N   0  0  0  0  0  0  0  0  0  0  0  0
    1.0685   -1.1546   -0.0113 N   0  0  0  0  0  0  0  0  0  0  0  0
    1.5327    1.5826   -0.1214 N   0  0  0  0  0  0  0  0  0  0  0  0
    0.0454   -0.2895   -0.1228 C   0  0  0  0  0  0  0  0  0  0  0  0
   -2.3431    0.1185   -0.3005 C   0  0  0  0  0  0  0  0  0  0  0  0
    0.2804    1.0966   -0.1788 C   0  0  0  0  0  0  0  0  0  0  0  0
   -5.8737   -1.5691    0.7973 C   0  0  0  0  0  0  0  0  0  0  0  0
   -7.2917    0.3419    0.1281 C   0  0  0  0  0  0  0  0  0  0  0  0
   -1.2652   -0.7573   -0.1847 C   0  0  0  0  0  0  0  0  0  0  0  0
    2.3136   -0.6484    0.0445 C   0  0  0  0  0  0  0  0  0  0  0  0
    2.5424    0.7008   -0.0097 C   0  0  0  0  0  0  0  0  0  0  0  0
   -4.8518    0.3474   -0.4743 C   0  0  0  0  0  0  0  0  0  0  0  0
   -2.1113    1.4848   -0.3557 C   0  0  0  0  0  0  0  0  0  0  0  0
   -0.8037    1.9635   -0.2946 C   0  0  0  0  0  0  0  0  0  0  0  0
    3.3532   -1.6374    0.1611 C   0  0  0  0  0  0  0  0  0  0  0  0
    3.8513    1.2979    0.0446 C   0  0  0  0  0  0  0  0  0  0  0  0
   -6.1376   -2.7070   -0.1742 C   0  0  0  0  0  0  0  0  0  0  0  0
   -7.4894    1.2239    1.3493 C   0  0  0  0  0  0  0  0  0  0  0  0
    3.9780   -2.2413    1.2238 C   0  0  0  0  0  0  0  0  0  0  0  0
    5.1012    0.8897   -0.3494 C   0  0  0  0  0  0  0  0  0  0  0  0
    4.9223   -3.1350    0.6647 C   0  0  0  0  0  0  0  0  0  0  0  0
    5.9804    1.9472   -0.0151 C   0  0  0  0  0  0  0  0  0  0  0  0
    4.8045   -3.0106   -0.7000 C   0  0  0  0  0  0  0  0  0  0  0  0
    5.2013    2.9244    0.5594 C   0  0  0  0  0  0  0  0  0  0  0  0
   -4.8989   -1.6928    1.2783 H   0  0  0  0  0  0  0  0  0  0  0  0
   -6.6103   -1.6016    1.6088 H   0  0  0  0  0  0  0  0  0  0  0  0
   -7.3902    0.9583   -0.7723 H   0  0  0  0  0  0  0  0  0  0  0  0
   -8.0609   -0.4361    0.0789 H   0  0  0  0  0  0  0  0  0  0  0  0
   -1.4462   -1.8306   -0.1411 H   0  0  0  0  0  0  0  0  0  0  0  0
   -3.7149   -1.3853   -0.2812 H   0  0  0  0  0  0  0  0  0  0  0  0
   -2.8984    2.2254   -0.4208 H   0  0  0  0  0  0  0  0  0  0  0  0
   -0.6355    3.0380   -0.3334 H   0  0  0  0  0  0  0  0  0  0  0  0
   -7.1408   -2.6331   -0.6067 H   0  0  0  0  0  0  0  0  0  0  0  0
   -5.4209   -2.7049   -1.0013 H   0  0  0  0  0  0  0  0  0  0  0  0
   -6.0613   -3.6697    0.3407 H   0  0  0  0  0  0  0  0  0  0  0  0
   -7.4102    0.6443    2.2746 H   0  0  0  0  0  0  0  0  0  0  0  0
   -6.7357    2.0174    1.3881 H   0  0  0  0  0  0  0  0  0  0  0  0
   -8.4781    1.6925    1.3237 H   0  0  0  0  0  0  0  0  0  0  0  0
    3.7829   -2.0644    2.2721 H   0  0  0  0  0  0  0  0  0  0  0  0
    5.3805   -0.0274   -0.8434 H   0  0  0  0  0  0  0  0  0  0  0  0
    5.6039   -3.7877    1.1906 H   0  0  0  0  0  0  0  0  0  0  0  0
    7.0471    1.9944   -0.1792 H   0  0  0  0  0  0  0  0  0  0  0  0
    5.3016   -3.4751   -1.5390 H   0  0  0  0  0  0  0  0  0  0  0  0
    5.4093    3.9026    0.9675 H   0  0  0  0  0  0  0  0  0  0  0  0
  1 19  1  0  0  0  0
  1 27  1  0  0  0  0
  2 20  1  0  0  0  0
  2 28  1  0  0  0  0
  3 16  2  0  0  0  0
  4 11  1  0  0  0  0
  4 12  1  0  0  0  0
  4 16  1  0  0  0  0
  5  9  1  0  0  0  0
  5 16  1  0  0  0  0
  5 34  1  0  0  0  0
  6  8  1  0  0  0  0
  6 14  2  0  0  0  0
  7 10  1  0  0  0  0
  7 15  2  0  0  0  0
  8 10  2  0  0  0  0
  8 13  1  0  0  0  0
  9 13  2  0  0  0  0
  9 17  1  0  0  0  0
 10 18  1  0  0  0  0
 11 21  1  0  0  0  0
 11 29  1  0  0  0  0
 11 30  1  0  0  0  0
 12 22  1  0  0  0  0
 12 31  1  0  0  0  0
 12 32  1  0  0  0  0
 13 33  1  0  0  0  0
 14 15  1  0  0  0  0
 14 19  1  0  0  0  0
 15 20  1  0  0  0  0
 17 18  2  0  0  0  0
 17 35  1  0  0  0  0
 18 36  1  0  0  0  0
 19 23  2  0  0  0  0
 20 24  2  0  0  0  0
 21 37  1  0  0  0  0
 21 38  1  0  0  0  0
 21 39  1  0  0  0  0
 22 40  1  0  0  0  0
 22 41  1  0  0  0  0
 22 42  1  0  0  0  0
 23 25  1  0  0  0  0
 23 43  1  0  0  0  0
 24 26  1  0  0  0  0
 24 44  1  0  0  0  0
 25 27  2  0  0  0  0
 25 45  1  0  0  0  0
 26 28  2  0  0  0  0
 26 46  1  0  0  0  0
 27 47  1  0  0  0  0
 28 48  1  0  0  0  0
M  END
> <PUBCHEM_COMPOUND_CID>
2213120

> <PUBCHEM_CONFORMER_RMSD>
0.8

> <PUBCHEM_CONFORMER_DIVERSEORDER>
2
61
43
11
55
73
97
44
59
66
77
36
46
42
40
22
91
12
89
95
75
48
52
15
80
45
71
64
47
50
17
100
94
14
57
41
7
38
102
81
51
87
76
78
101
109
58
20
70
37
31
106
105
49
10
60
30
29
28
88
96
39
16
9
26
79
23
104
68
108
27
107
25
98
63
84
69
74
86
53
99
83
8
103
65
72
54
93
4
6
82
85
33
67
21
90
62
35
56
3
1
92
19
18
24
34
32
5
13

> <PUBCHEM_MMFF94_PARTIAL_CHARGES>
36
1 -0.28
10 0.31
11 0.3
12 0.3
13 -0.15
14 0.36
15 0.36
16 0.69
17 -0.15
18 -0.15
19 0.09
2 -0.28
20 0.09
23 -0.15
24 -0.15
25 -0.15
26 -0.15
27 -0.01
28 -0.01
3 -0.57
33 0.15
34 0.37
35 0.15
36 0.15
4 -0.66
43 0.15
44 0.15
45 0.15
46 0.15
47 0.15
48 0.15
5 -0.55
6 -0.62
7 -0.62
8 0.31
9 0.12

> <PUBCHEM_EFFECTIVE_ROTOR_COUNT>
7

> <PUBCHEM_PHARMACOPHORE_FEATURES>
10
1 1 acceptor
1 2 acceptor
1 3 acceptor
1 5 donor
1 6 acceptor
1 7 acceptor
5 1 19 23 25 27 rings
5 2 20 24 26 28 rings
6 6 7 8 10 14 15 rings
6 8 9 10 13 17 18 rings

> <PUBCHEM_HEAVY_ATOM_COUNT>
28

> <PUBCHEM_ATOM_DEF_STEREO_COUNT>
0

> <PUBCHEM_ATOM_UDEF_STEREO_COUNT>
0

> <PUBCHEM_BOND_DEF_STEREO_COUNT>
0

> <PUBCHEM_BOND_UDEF_STEREO_COUNT>
0

> <PUBCHEM_ISOTOPIC_ATOM_COUNT>
0

> <PUBCHEM_COMPONENT_COUNT>
1

> <PUBCHEM_CACTVS_TAUTO_COUNT>
3

> <PUBCHEM_CONFORMER_ID>
0021C50000000002

> <PUBCHEM_MMFF94_ENERGY>
66.6895

> <PUBCHEM_FEATURE_SELFOVERLAP>
50.799

> <PUBCHEM_SHAPE_FINGERPRINT>
10050765 1 18337952277388274532
10411042 1 18123470467834990542
10835480 77 18335129883085673301
10906281 52 17896891056544033084
11135926 11 18339629153348501692
11963148 33 18262510532668295522
12107183 9 17910681960034209177
12236239 1 18131353003837395441
12616971 3 18059283293306485343
12730499 353 18411702127717089488
12788726 201 17203619168068404913
13073987 5 18411420609743499497
13533116 47 18411698768609513568
13540713 4 18116414969832354780
13782708 43 17749665190948724315
13955234 65 18341603829166630112
14341114 176 18335143077404099533
14347424 109 18342175527525445017
14461889 52 18261390121702569322
15081414 286 18335698355718288252
15196674 1 18408882910841162325
15475509 35 17023454241040279586
1577012 14 18131914858716652525
15927050 60 18267301113757975654
16110190 28 18413670214981896919
16112460 7 18340216223806589435
17492 89 18339358548855142142
17844677 252 18337112263631635557
18335252 98 18334298712260676931
21033650 10 16154269373617421461
21049683 271 18334862672264532260
21130935 74 18410859863361710371
21267235 1 18338801087812013398
21279426 13 18261668152437333141
21344244 78 18058151861840358056
21792934 111 18340193090986560993
22149856 69 18337405915083366929
22182313 1 17822836599103210564
23081809 10 17917987279167290077
23522609 53 18119281435453783093
23559900 14 18337944585549616738
255183 451 18128826244613017830
3004659 81 18187085005622675006
3411729 13 18336542807287869136
3663271 9 18343024411090468811
4073 2 18188214315949711931
4093350 32 17489873730847285084
4340502 62 17967529099486988970
465052 167 18341333292928952926
5104073 3 18339359665246082801
54076057 127 18343028808757457250
59755656 215 18408042927397870412
70251023 43 18192432974820213770
9962374 69 18341881966532576990

> <PUBCHEM_SHAPE_MULTIPOLES>
538.69
19.15
3.42
0.89
27.64
1.4
0.12
1.16
3.15
-5.51
0.32
0.24
0.13
0.19

> <PUBCHEM_SHAPE_SELFOVERLAP>
1186.22

> <PUBCHEM_SHAPE_VOLUME>
291.9

> <PUBCHEM_COORDINATE_TYPE>
2
5
10

$$$$
