44352873
  -OEChem-10062121583D

 76 83  0     1  0  0  0  0  0999 V2000
   -0.2563   -0.3722    2.3043 O   0  0  0  0  0  0  0  0  0  0  0  0
   -1.3568    0.2777   -0.7764 O   0  0  0  0  0  0  0  0  0  0  0  0
   -5.6743   -0.9766   -0.9061 O   0  0  0  0  0  0  0  0  0  0  0  0
    6.1203   -1.1696   -1.2730 O   0  0  0  0  0  0  0  0  0  0  0  0
   -4.9021    0.5886    0.5697 O   0  0  0  0  0  0  0  0  0  0  0  0
    0.3953    1.3669    0.9041 N   0  0  0  0  0  0  0  0  0  0  0  0
    1.0593   -1.5571    0.7956 N   0  0  0  0  0  0  0  0  0  0  0  0
   -3.6102   -1.2980    0.0698 N   0  0  0  0  0  0  0  0  0  0  0  0
    5.9969    1.1652   -1.3619 N   0  0  0  0  0  0  0  0  0  0  0  0
   -0.7468    0.7440    1.5562 C   0  0  1  0  0  0  0  0  0  0  0  0
   -1.8806    0.3825    0.5549 C   0  0  2  0  0  0  0  0  0  0  0  0
   -0.1379   -1.5862    1.6042 C   0  0  2  0  0  0  0  0  0  0  0  0
   -2.5031   -0.9594    0.9305 C   0  0  2  0  0  0  0  0  0  0  0  0
   -1.4171   -2.0303    0.8802 C   0  0  0  0  0  0  0  0  0  0  0  0
    1.5909    0.8388    0.4756 C   0  0  0  0  0  0  0  0  0  0  0  0
    1.9033   -0.5512    0.4141 C   0  0  0  0  0  0  0  0  0  0  0  0
    2.6263    1.7097   -0.0328 C   0  0  0  0  0  0  0  0  0  0  0  0
    3.2096   -0.8664   -0.1407 C   0  0  0  0  0  0  0  0  0  0  0  0
    0.5349    2.7079    0.5175 C   0  0  0  0  0  0  0  0  0  0  0  0
   -1.3272    1.5947    2.7104 C   0  0  0  0  0  0  0  0  0  0  0  0
    1.7899   -2.6951    0.4386 C   0  0  0  0  0  0  0  0  0  0  0  0
    1.8651    2.9505    0.0583 C   0  0  0  0  0  0  0  0  0  0  0  0
    3.8991    1.3921   -0.4957 C   0  0  0  0  0  0  0  0  0  0  0  0
    4.1884    0.0375   -0.5484 C   0  0  0  0  0  0  0  0  0  0  0  0
    3.0567   -2.3259   -0.1033 C   0  0  0  0  0  0  0  0  0  0  0  0
    5.0368    2.1964   -1.0291 C   0  0  0  0  0  0  0  0  0  0  0  0
   -0.4057    3.7590    0.5124 C   0  0  0  0  0  0  0  0  0  0  0  0
    5.5341   -0.1198   -1.0963 C   0  0  0  0  0  0  0  0  0  0  0  0
    1.4256   -4.0513    0.5762 C   0  0  0  0  0  0  0  0  0  0  0  0
    2.2225    4.2742   -0.3042 C   0  0  0  0  0  0  0  0  0  0  0  0
   -3.4956   -2.5455   -0.6868 C   0  0  0  0  0  0  0  0  0  0  0  0
    3.9189   -3.3777   -0.5061 C   0  0  0  0  0  0  0  0  0  0  0  0
   -4.7443   -0.4695   -0.0370 C   0  0  0  0  0  0  0  0  0  0  0  0
   -2.3799    0.4171   -1.7538 C   0  0  0  0  0  0  0  0  0  0  0  0
   -0.0145    5.0470    0.1378 C   0  0  0  0  0  0  0  0  0  0  0  0
    1.2883    5.3078   -0.2502 C   0  0  0  0  0  0  0  0  0  0  0  0
    2.3100   -5.0480    0.1667 C   0  0  0  0  0  0  0  0  0  0  0  0
    3.5425   -4.7169   -0.3693 C   0  0  0  0  0  0  0  0  0  0  0  0
   -6.8657   -0.2007   -1.0796 C   0  0  0  0  0  0  0  0  0  0  0  0
   -6.4755    1.1766   -1.6141 C   0  0  0  0  0  0  0  0  0  0  0  0
   -7.7512   -0.9356   -2.0836 C   0  0  0  0  0  0  0  0  0  0  0  0
   -7.5697   -0.0814    0.2713 C   0  0  0  0  0  0  0  0  0  0  0  0
   -2.5997    1.2078    0.5670 H   0  0  0  0  0  0  0  0  0  0  0  0
    0.0694   -2.3316    2.3829 H   0  0  0  0  0  0  0  0  0  0  0  0
   -2.9099   -0.8918    1.9479 H   0  0  0  0  0  0  0  0  0  0  0  0
   -1.7795   -2.9456    1.3664 H   0  0  0  0  0  0  0  0  0  0  0  0
   -1.1262   -2.3139   -0.1358 H   0  0  0  0  0  0  0  0  0  0  0  0
   -0.5270    1.9831    3.3525 H   0  0  0  0  0  0  0  0  0  0  0  0
   -1.9690    0.9824    3.3570 H   0  0  0  0  0  0  0  0  0  0  0  0
   -1.9362    2.4366    2.3795 H   0  0  0  0  0  0  0  0  0  0  0  0
    4.7732    2.7414   -1.9387 H   0  0  0  0  0  0  0  0  0  0  0  0
    5.4696    2.8580   -0.2750 H   0  0  0  0  0  0  0  0  0  0  0  0
   -1.4438    3.5938    0.7748 H   0  0  0  0  0  0  0  0  0  0  0  0
    0.4634   -4.3323    0.9945 H   0  0  0  0  0  0  0  0  0  0  0  0
    3.2285    4.4931   -0.6534 H   0  0  0  0  0  0  0  0  0  0  0  0
   -2.6549   -2.5266   -1.3830 H   0  0  0  0  0  0  0  0  0  0  0  0
   -4.3833   -2.7364   -1.2955 H   0  0  0  0  0  0  0  0  0  0  0  0
   -3.4188   -3.3908    0.0033 H   0  0  0  0  0  0  0  0  0  0  0  0
    4.8923   -3.1668   -0.9340 H   0  0  0  0  0  0  0  0  0  0  0  0
    6.9141    1.3580   -1.7518 H   0  0  0  0  0  0  0  0  0  0  0  0
   -1.8985    0.8681   -2.6294 H   0  0  0  0  0  0  0  0  0  0  0  0
   -3.1730    1.1120   -1.4664 H   0  0  0  0  0  0  0  0  0  0  0  0
   -2.7590   -0.5360   -2.1121 H   0  0  0  0  0  0  0  0  0  0  0  0
   -0.7457    5.8512    0.1471 H   0  0  0  0  0  0  0  0  0  0  0  0
    1.5786    6.3137   -0.5399 H   0  0  0  0  0  0  0  0  0  0  0  0
    2.0277   -6.0921    0.2701 H   0  0  0  0  0  0  0  0  0  0  0  0
    4.2239   -5.5014   -0.6867 H   0  0  0  0  0  0  0  0  0  0  0  0
   -6.0649    1.8588   -0.8657 H   0  0  0  0  0  0  0  0  0  0  0  0
   -5.7328    1.0901   -2.4158 H   0  0  0  0  0  0  0  0  0  0  0  0
   -7.3536    1.6885   -2.0259 H   0  0  0  0  0  0  0  0  0  0  0  0
   -7.9924   -1.9426   -1.7241 H   0  0  0  0  0  0  0  0  0  0  0  0
   -7.2298   -1.0649   -3.0389 H   0  0  0  0  0  0  0  0  0  0  0  0
   -8.6881   -0.4008   -2.2700 H   0  0  0  0  0  0  0  0  0  0  0  0
   -7.5968   -1.0491    0.7856 H   0  0  0  0  0  0  0  0  0  0  0  0
   -7.1173    0.6364    0.9600 H   0  0  0  0  0  0  0  0  0  0  0  0
   -8.6046    0.2545    0.1344 H   0  0  0  0  0  0  0  0  0  0  0  0
  1 10  1  0  0  0  0
  1 12  1  0  0  0  0
  2 11  1  0  0  0  0
  2 34  1  0  0  0  0
  3 33  1  0  0  0  0
  3 39  1  0  0  0  0
  4 28  2  0  0  0  0
  5 33  2  0  0  0  0
  6 10  1  0  0  0  0
  6 15  1  0  0  0  0
  6 19  1  0  0  0  0
  7 12  1  0  0  0  0
  7 16  1  0  0  0  0
  7 21  1  0  0  0  0
  8 13  1  0  0  0  0
  8 31  1  0  0  0  0
  8 33  1  0  0  0  0
  9 26  1  0  0  0  0
  9 28  1  0  0  0  0
  9 60  1  0  0  0  0
 10 11  1  0  0  0  0
 10 20  1  0  0  0  0
 11 13  1  0  0  0  0
 11 43  1  0  0  0  0
 12 14  1  0  0  0  0
 12 44  1  0  0  0  0
 13 14  1  0  0  0  0
 13 45  1  0  0  0  0
 14 46  1  0  0  0  0
 14 47  1  0  0  0  0
 15 16  2  0  0  0  0
 15 17  1  0  0  0  0
 16 18  1  0  0  0  0
 17 22  1  0  0  0  0
 17 23  2  0  0  0  0
 18 24  2  0  0  0  0
 18 25  1  0  0  0  0
 19 22  1  0  0  0  0
 19 27  2  0  0  0  0
 20 48  1  0  0  0  0
 20 49  1  0  0  0  0
 20 50  1  0  0  0  0
 21 25  1  0  0  0  0
 21 29  2  0  0  0  0
 22 30  2  0  0  0  0
 23 24  1  0  0  0  0
 23 26  1  0  0  0  0
 24 28  1  0  0  0  0
 25 32  2  0  0  0  0
 26 51  1  0  0  0  0
 26 52  1  0  0  0  0
 27 35  1  0  0  0  0
 27 53  1  0  0  0  0
 29 37  1  0  0  0  0
 29 54  1  0  0  0  0
 30 36  1  0  0  0  0
 30 55  1  0  0  0  0
 31 56  1  0  0  0  0
 31 57  1  0  0  0  0
 31 58  1  0  0  0  0
 32 38  1  0  0  0  0
 32 59  1  0  0  0  0
 34 61  1  0  0  0  0
 34 62  1  0  0  0  0
 34 63  1  0  0  0  0
 35 36  2  0  0  0  0
 35 64  1  0  0  0  0
 36 65  1  0  0  0  0
 37 38  2  0  0  0  0
 37 66  1  0  0  0  0
 38 67  1  0  0  0  0
 39 40  1  0  0  0  0
 39 41  1  0  0  0  0
 39 42  1  0  0  0  0
 40 68  1  0  0  0  0
 40 69  1  0  0  0  0
 40 70  1  0  0  0  0
 41 71  1  0  0  0  0
 41 72  1  0  0  0  0
 41 73  1  0  0  0  0
 42 74  1  0  0  0  0
 42 75  1  0  0  0  0
 42 76  1  0  0  0  0
M  END
> <PUBCHEM_COMPOUND_CID>
44352873

> <PUBCHEM_CONFORMER_RMSD>
1

> <PUBCHEM_CONFORMER_DIVERSEORDER>
1
4
6
3
2
5

> <PUBCHEM_MMFF94_PARTIAL_CHARGES>
44
1 -0.56
10 0.54
11 0.28
12 0.54
13 0.3
15 -0.05
16 -0.05
17 -0.01
18 -0.01
19 -0.15
2 -0.56
21 -0.15
23 -0.14
24 0.09
26 0.44
27 -0.15
28 0.54
29 -0.15
3 -0.43
30 -0.15
31 0.3
32 -0.15
33 0.78
34 0.28
35 -0.15
36 -0.15
37 -0.15
38 -0.15
39 0.28
4 -0.57
5 -0.57
53 0.15
54 0.15
55 0.15
59 0.15
6 -0.04
60 0.37
64 0.15
65 0.15
66 0.15
67 0.15
7 -0.04
8 -0.66
9 -0.73

> <PUBCHEM_EFFECTIVE_ROTOR_COUNT>
6.2

> <PUBCHEM_PHARMACOPHORE_FEATURES>
16
1 1 acceptor
1 2 acceptor
1 4 acceptor
1 5 acceptor
1 6 cation
1 7 cation
1 9 donor
4 39 40 41 42 hydrophobe
5 6 15 17 19 22 rings
5 7 16 18 21 25 rings
5 9 23 24 26 28 rings
6 1 10 11 12 13 14 rings
6 15 16 17 18 23 24 rings
6 19 22 27 30 35 36 rings
6 21 25 29 32 37 38 rings
7 1 6 7 10 12 15 16 rings

> <PUBCHEM_HEAVY_ATOM_COUNT>
42

> <PUBCHEM_ATOM_DEF_STEREO_COUNT>
4

> <PUBCHEM_ATOM_UDEF_STEREO_COUNT>
0

> <PUBCHEM_BOND_DEF_STEREO_COUNT>
0

> <PUBCHEM_BOND_UDEF_STEREO_COUNT>
0

> <PUBCHEM_ISOTOPIC_ATOM_COUNT>
0

> <PUBCHEM_COMPONENT_COUNT>
1

> <PUBCHEM_CACTVS_TAUTO_COUNT>
2

> <PUBCHEM_CONFORMER_ID>
02A4C56900000001

> <PUBCHEM_MMFF94_ENERGY>
196.4104

> <PUBCHEM_FEATURE_SELFOVERLAP>
82.154

> <PUBCHEM_SHAPE_FINGERPRINT>
10483366 6 18409731768008861992
10622 236 18056191380789356811
10675989 125 18408890633398004384
10693767 8 18202283589419104262
11115154 58 17918278645575503545
11135609 187 18266463281581030872
11135926 11 18338529589785745242
11445158 3 17321595811982772857
11513181 2 17908718232709859430
11621639 179 18042952209125476893
11720765 8 18270667710892903097
1361 2 18411136982465576784
13911987 19 18190481500731838484
13944108 23 18260541204437579853
14068700 675 18060702784039956296
14117953 113 18410575115698554020
14415360 78 18120928675196045468
14681490 219 18409731720674629069
15082195 135 18195506286214661335
15183329 4 18413106165548125893
15324884 4 17608947712750946784
15328829 1 17703250446412548515
15351339 4 18188766137252427177
15439362 3 17979637058750498244
15444296 8 17694792826108344766
15484559 13 18412260675134497046
15927050 60 17761227518573167396
15950262 2 15359123657473672732
20775438 99 17833510601877038380
21133410 171 17465064208254714523
22121540 332 17315042573026701541
23522609 53 17916606262635267465
23559900 14 18269270334777214785
24771750 20 17899992808868796621
3388396 114 18337969883070332662
376196 1 17899405673985686369
3882209 13 17900803978136382378
4066623 53 18188204282889985620
4353968 344 18268720399255514078
4394409 98 18117294755481228236
46194498 28 18188482485091651599
463206 1 18410299150590384246
57527452 28 16415487059750673460
6004065 56 18340204206156110056
70251023 43 18193558865736539362

> <PUBCHEM_SHAPE_MULTIPOLES>
815.07
14.18
6.39
1.6
24.77
1.75
-0.35
-4.12
9.96
-7.99
-0.12
1.3
0.15
-0.69

> <PUBCHEM_SHAPE_SELFOVERLAP>
1851.009

> <PUBCHEM_SHAPE_VOLUME>
425.1

> <PUBCHEM_COORDINATE_TYPE>
2
5
10

$$$$
