49830487
  -OEChem-10062121563D

 58 60  0     1  0  0  0  0  0999 V2000
   -0.6980    2.8652   -1.3229 O   0  0  0  0  0  0  0  0  0  0  0  0
   -4.8626   -1.8410    0.7094 O   0  0  0  0  0  0  0  0  0  0  0  0
   -1.2242    1.9840    0.7564 N   0  0  0  0  0  0  0  0  0  0  0  0
    0.0210   -0.6247   -0.1016 N   0  0  0  0  0  0  0  0  0  0  0  0
   -2.5542   -4.7859    0.1570 N   0  0  0  0  0  0  0  0  0  0  0  0
    7.4127   -1.1686    0.1054 N   0  0  0  0  0  0  0  0  0  0  0  0
   -2.5741    2.4967    0.8191 C   0  0  1  0  0  0  0  0  0  0  0  0
    1.1197    0.2189   -0.1409 C   0  0  0  0  0  0  0  0  0  0  0  0
    0.9585    1.6001   -0.2488 C   0  0  0  0  0  0  0  0  0  0  0  0
   -3.5612    1.5383    0.1884 C   0  0  0  0  0  0  0  0  0  0  0  0
    0.1166   -2.0608    0.0093 C   0  0  0  0  0  0  0  0  0  0  0  0
   -0.3652    2.2054   -0.3245 C   0  0  0  0  0  0  0  0  0  0  0  0
   -1.2697   -2.7010    0.0375 C   0  0  0  0  0  0  0  0  0  0  0  0
    2.4001   -0.3304   -0.0707 C   0  0  0  0  0  0  0  0  0  0  0  0
    3.5191    0.5016   -0.1082 C   0  0  0  0  0  0  0  0  0  0  0  0
   -2.9367    2.8470    2.2608 C   0  0  0  0  0  0  0  0  0  0  0  0
    2.0774    2.4321   -0.2864 C   0  0  0  0  0  0  0  0  0  0  0  0
    3.3577    1.8829   -0.2160 C   0  0  0  0  0  0  0  0  0  0  0  0
   -3.7588    0.2749    0.7455 C   0  0  0  0  0  0  0  0  0  0  0  0
   -4.2726    1.9177   -0.9498 C   0  0  0  0  0  0  0  0  0  0  0  0
   -1.2076   -4.2253    0.1522 C   0  0  0  0  0  0  0  0  0  0  0  0
    4.8472   -0.0675   -0.0352 C   0  0  0  0  0  0  0  0  0  0  0  0
   -4.6681   -0.6091    0.1643 C   0  0  0  0  0  0  0  0  0  0  0  0
   -5.1817    1.0336   -1.5312 C   0  0  0  0  0  0  0  0  0  0  0  0
   -5.3795   -0.2297   -0.9739 C   0  0  0  0  0  0  0  0  0  0  0  0
    5.8873    0.6568    0.5366 C   0  0  0  0  0  0  0  0  0  0  0  0
    5.0883   -1.3418   -0.5367 C   0  0  0  0  0  0  0  0  0  0  0  0
    7.1401    0.0668    0.5823 C   0  0  0  0  0  0  0  0  0  0  0  0
    6.3770   -1.8425   -0.4430 C   0  0  0  0  0  0  0  0  0  0  0  0
   -5.8085   -2.6936    0.0656 C   0  0  0  0  0  0  0  0  0  0  0  0
   -2.5884    3.4361    0.2513 H   0  0  0  0  0  0  0  0  0  0  0  0
    0.6432   -2.3347    0.9317 H   0  0  0  0  0  0  0  0  0  0  0  0
    0.6733   -2.4691   -0.8429 H   0  0  0  0  0  0  0  0  0  0  0  0
   -0.9041    1.3927    1.5187 H   0  0  0  0  0  0  0  0  0  0  0  0
   -0.9023   -0.2142   -0.1784 H   0  0  0  0  0  0  0  0  0  0  0  0
   -1.8188   -2.4193   -0.8708 H   0  0  0  0  0  0  0  0  0  0  0  0
   -1.8362   -2.2925    0.8844 H   0  0  0  0  0  0  0  0  0  0  0  0
    2.5282   -1.4014    0.0484 H   0  0  0  0  0  0  0  0  0  0  0  0
   -2.8756    1.9778    2.9252 H   0  0  0  0  0  0  0  0  0  0  0  0
   -3.9541    3.2483    2.3247 H   0  0  0  0  0  0  0  0  0  0  0  0
   -2.2490    3.6030    2.6566 H   0  0  0  0  0  0  0  0  0  0  0  0
    1.9659    3.5099   -0.3749 H   0  0  0  0  0  0  0  0  0  0  0  0
    4.1995    2.5671   -0.2779 H   0  0  0  0  0  0  0  0  0  0  0  0
   -3.2063   -0.0356    1.6287 H   0  0  0  0  0  0  0  0  0  0  0  0
   -4.1293    2.8979   -1.3963 H   0  0  0  0  0  0  0  0  0  0  0  0
   -0.6491   -4.6432   -0.6921 H   0  0  0  0  0  0  0  0  0  0  0  0
   -0.6890   -4.5140    1.0729 H   0  0  0  0  0  0  0  0  0  0  0  0
   -5.7349    1.3299   -2.4178 H   0  0  0  0  0  0  0  0  0  0  0  0
   -6.1001   -0.8662   -1.4760 H   0  0  0  0  0  0  0  0  0  0  0  0
    5.7627    1.6423    0.9718 H   0  0  0  0  0  0  0  0  0  0  0  0
    4.3327   -1.9489   -1.0232 H   0  0  0  0  0  0  0  0  0  0  0  0
   -2.4998   -5.7946    0.2922 H   0  0  0  0  0  0  0  0  0  0  0  0
   -3.0767   -4.4185    0.9513 H   0  0  0  0  0  0  0  0  0  0  0  0
    7.9836    0.5868    1.0244 H   0  0  0  0  0  0  0  0  0  0  0  0
    6.6194   -2.8283   -0.8262 H   0  0  0  0  0  0  0  0  0  0  0  0
   -6.8182   -2.2704    0.0961 H   0  0  0  0  0  0  0  0  0  0  0  0
   -5.4941   -2.9459   -0.9528 H   0  0  0  0  0  0  0  0  0  0  0  0
   -5.8372   -3.6301    0.6323 H   0  0  0  0  0  0  0  0  0  0  0  0
  1 12  2  0  0  0  0
  2 23  1  0  0  0  0
  2 30  1  0  0  0  0
  3  7  1  0  0  0  0
  3 12  1  0  0  0  0
  3 34  1  0  0  0  0
  4  8  1  0  0  0  0
  4 11  1  0  0  0  0
  4 35  1  0  0  0  0
  5 21  1  0  0  0  0
  5 52  1  0  0  0  0
  5 53  1  0  0  0  0
  6 28  2  0  0  0  0
  6 29  1  0  0  0  0
  7 10  1  0  0  0  0
  7 16  1  0  0  0  0
  7 31  1  0  0  0  0
  8  9  2  0  0  0  0
  8 14  1  0  0  0  0
  9 12  1  0  0  0  0
  9 17  1  0  0  0  0
 10 19  2  0  0  0  0
 10 20  1  0  0  0  0
 11 13  1  0  0  0  0
 11 32  1  0  0  0  0
 11 33  1  0  0  0  0
 13 21  1  0  0  0  0
 13 36  1  0  0  0  0
 13 37  1  0  0  0  0
 14 15  2  0  0  0  0
 14 38  1  0  0  0  0
 15 18  1  0  0  0  0
 15 22  1  0  0  0  0
 16 39  1  0  0  0  0
 16 40  1  0  0  0  0
 16 41  1  0  0  0  0
 17 18  2  0  0  0  0
 17 42  1  0  0  0  0
 18 43  1  0  0  0  0
 19 23  1  0  0  0  0
 19 44  1  0  0  0  0
 20 24  2  0  0  0  0
 20 45  1  0  0  0  0
 21 46  1  0  0  0  0
 21 47  1  0  0  0  0
 22 26  2  0  0  0  0
 22 27  1  0  0  0  0
 23 25  2  0  0  0  0
 24 25  1  0  0  0  0
 24 48  1  0  0  0  0
 25 49  1  0  0  0  0
 26 28  1  0  0  0  0
 26 50  1  0  0  0  0
 27 29  2  0  0  0  0
 27 51  1  0  0  0  0
 28 54  1  0  0  0  0
 29 55  1  0  0  0  0
 30 56  1  0  0  0  0
 30 57  1  0  0  0  0
 30 58  1  0  0  0  0
M  END
> <PUBCHEM_COMPOUND_CID>
49830487

> <PUBCHEM_CONFORMER_RMSD>
1

> <PUBCHEM_CONFORMER_DIVERSEORDER>
1
149
91
63
129
10
67
113
138
82
60
156
162
150
47
84
54
25
157
23
174
169
43
20
110
77
120
99
80
7
46
132
112
61
124
175
168
58
145
12
144
94
92
160
153
79
22
176
130
115
66
163
155
104
55
56
96
42
21
133
28
86
30
97
109
64
57
142
35
33
90
40
165
39
152
31
107
45
62
179
75
95
134
32
114
164
154
16
101
38
50
19
18
146
103
140
68
59
87
100
119
76
81
141
105
170
102
14
172
148
72
85
98
71
128
135
29
48
69
34
93
65
131
151
127
108
143
118
83
126
73
15
36
106
178
173
123
88
116
5
166
158
9
111
8
41
159
139
177
26
37
74
161
117
24
70
27
78
89
51
49
53
13
125
6
52
171
137
136
17
167
44
147
3
121
11
122
4
2

> <PUBCHEM_MMFF94_PARTIAL_CHARGES>
41
1 -0.57
10 -0.14
11 0.37
12 0.54
14 -0.15
17 -0.15
18 -0.15
19 -0.15
2 -0.36
20 -0.15
21 0.27
23 0.08
24 -0.15
25 -0.15
26 -0.15
27 -0.15
28 0.16
29 0.16
3 -0.73
30 0.28
34 0.37
35 0.4
38 0.15
4 -0.87
42 0.15
43 0.15
44 0.15
45 0.15
48 0.15
49 0.15
5 -0.99
50 0.15
51 0.15
52 0.36
53 0.36
54 0.15
55 0.15
6 -0.62
7 0.44
8 0.1
9 0.09

> <PUBCHEM_EFFECTIVE_ROTOR_COUNT>
10

> <PUBCHEM_PHARMACOPHORE_FEATURES>
11
1 1 acceptor
1 2 acceptor
1 3 donor
1 4 cation
1 4 donor
1 5 cation
1 5 donor
1 6 acceptor
6 10 19 20 23 24 25 rings
6 6 22 26 27 28 29 rings
6 8 9 14 15 17 18 rings

> <PUBCHEM_HEAVY_ATOM_COUNT>
30

> <PUBCHEM_ATOM_DEF_STEREO_COUNT>
0

> <PUBCHEM_ATOM_UDEF_STEREO_COUNT>
1

> <PUBCHEM_BOND_DEF_STEREO_COUNT>
0

> <PUBCHEM_BOND_UDEF_STEREO_COUNT>
0

> <PUBCHEM_ISOTOPIC_ATOM_COUNT>
0

> <PUBCHEM_COMPONENT_COUNT>
1

> <PUBCHEM_CACTVS_TAUTO_COUNT>
7

> <PUBCHEM_CONFORMER_ID>
02F85A5700000001

> <PUBCHEM_MMFF94_ENERGY>
98.8465

> <PUBCHEM_FEATURE_SELFOVERLAP>
55.822

> <PUBCHEM_SHAPE_FINGERPRINT>
100830 39 18409729577707624170
11007060 377 18336273388184716552
11135926 11 18336541600291406317
11578080 2 16843302744068491282
11756154 67 18408327679492403412
12166972 35 17968380151430618893
12645989 146 18125442162228898071
13782708 43 17988079985823246350
14117953 113 18334573500100207749
14211702 104 18343309145525441830
14866123 147 18410008836703055242
15021287 119 17313107475253031854
17627616 140 18116427042642759755
18681886 176 18335693953408315256
19958102 18 18339082571484160502
20028762 73 18272649039135137222
20775438 99 16689595545602267487
21236236 1 18342740676285980184
22393880 68 18113889464642850717
23559900 14 18340195363019492457
3383291 50 18410855490246564363
563151 97 18122903136339700621
59755656 215 18339079294661529398
6376802 137 17846784031085944873
6431902 208 18343863312101820719
9896288 288 17988089872627342049

> <PUBCHEM_SHAPE_MULTIPOLES>
585.72
16.46
4.52
1.1
19.22
4.32
-0.19
5.22
0.49
-5.07
-0.6
-1.28
-0.82
0.23

> <PUBCHEM_SHAPE_SELFOVERLAP>
1247.656

> <PUBCHEM_SHAPE_VOLUME>
325.6

> <PUBCHEM_COORDINATE_TYPE>
2
5
10

$$$$
