10005638
  -OEChem-10052115153D

 64 68  0     0  0  0  0  0  0999 V2000
    3.3254   -4.2590   -0.3814 F   0  0  0  0  0  0  0  0  0  0  0  0
    1.4839   -4.3295   -1.5250 F   0  0  0  0  0  0  0  0  0  0  0  0
    2.9082   -2.7211   -1.8611 F   0  0  0  0  0  0  0  0  0  0  0  0
   -4.9949    1.9722   -0.6787 O   0  0  0  0  0  0  0  0  0  0  0  0
   -7.1045   -0.7229    0.0103 N   0  0  0  0  0  0  0  0  0  0  0  0
    3.7676    1.2600    0.4379 N   0  0  0  0  0  0  0  0  0  0  0  0
   -0.9022    1.1881    0.0082 N   0  0  0  0  0  0  0  0  0  0  0  0
   -2.3631   -0.4453    0.3681 N   0  0  0  0  0  0  0  0  0  0  0  0
    1.4313    1.2049    0.2288 N   0  0  0  0  0  0  0  0  0  0  0  0
    2.6707    3.2120   -0.2635 N   0  0  0  0  0  0  0  0  0  0  0  0
   -4.5225    0.7013   -0.1902 C   0  0  0  0  0  0  0  0  0  0  0  0
   -4.9896   -0.3465   -1.2239 C   0  0  0  0  0  0  0  0  0  0  0  0
   -5.2443    0.4432    1.1522 C   0  0  0  0  0  0  0  0  0  0  0  0
    5.0626    1.9024    0.3650 C   0  0  0  0  0  0  0  0  0  0  0  0
   -6.5186   -0.4411   -1.3063 C   0  0  0  0  0  0  0  0  0  0  0  0
   -6.7640    0.3271    0.9788 C   0  0  0  0  0  0  0  0  0  0  0  0
    5.6019    1.8684   -1.0597 C   0  0  0  0  0  0  0  0  0  0  0  0
    6.1051    1.1035    1.1373 C   0  0  0  0  0  0  0  0  0  0  0  0
    6.1992    0.4721   -1.2209 C   0  0  0  0  0  0  0  0  0  0  0  0
    6.5165   -0.0217    0.1904 C   0  0  0  0  0  0  0  0  0  0  0  0
   -3.0028    0.6899   -0.0411 C   0  0  0  0  0  0  0  0  0  0  0  0
   -2.1308    1.7167   -0.2716 C   0  0  0  0  0  0  0  0  0  0  0  0
   -8.5559   -0.8695   -0.0965 C   0  0  0  0  0  0  0  0  0  0  0  0
   -1.0918   -0.1114    0.3879 C   0  0  0  0  0  0  0  0  0  0  0  0
    2.5638    1.9252    0.1188 C   0  0  0  0  0  0  0  0  0  0  0  0
    0.3080    1.8753   -0.0844 C   0  0  0  0  0  0  0  0  0  0  0  0
   -0.0130   -1.0002    0.7635 C   0  0  0  0  0  0  0  0  0  0  0  0
    0.2745    3.1901   -0.4884 C   0  0  0  0  0  0  0  0  0  0  0  0
    1.5017    3.8166   -0.5610 C   0  0  0  0  0  0  0  0  0  0  0  0
    0.6130   -1.7787   -0.2066 C   0  0  0  0  0  0  0  0  0  0  0  0
    0.3927   -1.0733    2.0935 C   0  0  0  0  0  0  0  0  0  0  0  0
    1.6518   -2.6359    0.1558 C   0  0  0  0  0  0  0  0  0  0  0  0
    1.4315   -1.9306    2.4560 C   0  0  0  0  0  0  0  0  0  0  0  0
    2.0611   -2.7120    1.4871 C   0  0  0  0  0  0  0  0  0  0  0  0
    2.3273   -3.4705   -0.8794 C   0  0  0  0  0  0  0  0  0  0  0  0
   -4.5841   -1.3354   -0.9716 H   0  0  0  0  0  0  0  0  0  0  0  0
   -4.6046   -0.0885   -2.2191 H   0  0  0  0  0  0  0  0  0  0  0  0
   -4.8633   -0.4774    1.6141 H   0  0  0  0  0  0  0  0  0  0  0  0
   -5.0358    1.2604    1.8547 H   0  0  0  0  0  0  0  0  0  0  0  0
    5.0112    2.9227    0.7614 H   0  0  0  0  0  0  0  0  0  0  0  0
   -6.9298    0.4845   -1.7299 H   0  0  0  0  0  0  0  0  0  0  0  0
   -6.7686   -1.2510   -2.0028 H   0  0  0  0  0  0  0  0  0  0  0  0
   -7.1964    0.0817    1.9566 H   0  0  0  0  0  0  0  0  0  0  0  0
   -7.1839    1.2949    0.6755 H   0  0  0  0  0  0  0  0  0  0  0  0
    6.4002    2.6136   -1.1664 H   0  0  0  0  0  0  0  0  0  0  0  0
    4.8500    2.0770   -1.8271 H   0  0  0  0  0  0  0  0  0  0  0  0
    5.7372    0.7169    2.0932 H   0  0  0  0  0  0  0  0  0  0  0  0
    6.9772    1.7362    1.3440 H   0  0  0  0  0  0  0  0  0  0  0  0
    7.0914    0.4925   -1.8550 H   0  0  0  0  0  0  0  0  0  0  0  0
    5.4755   -0.2008   -1.6954 H   0  0  0  0  0  0  0  0  0  0  0  0
    5.9422   -0.9308    0.4039 H   0  0  0  0  0  0  0  0  0  0  0  0
    7.5762   -0.2708    0.3059 H   0  0  0  0  0  0  0  0  0  0  0  0
    3.6935    0.2796    0.6843 H   0  0  0  0  0  0  0  0  0  0  0  0
   -2.3210    2.7277   -0.5998 H   0  0  0  0  0  0  0  0  0  0  0  0
   -4.8074    2.6423    0.0007 H   0  0  0  0  0  0  0  0  0  0  0  0
   -9.0395    0.0462   -0.4558 H   0  0  0  0  0  0  0  0  0  0  0  0
   -8.8111   -1.6860   -0.7812 H   0  0  0  0  0  0  0  0  0  0  0  0
   -8.9890   -1.1296    0.8758 H   0  0  0  0  0  0  0  0  0  0  0  0
   -0.6037    3.7622   -0.7477 H   0  0  0  0  0  0  0  0  0  0  0  0
    1.5827    4.8535   -0.8695 H   0  0  0  0  0  0  0  0  0  0  0  0
    0.2978   -1.7230   -1.2464 H   0  0  0  0  0  0  0  0  0  0  0  0
   -0.0883   -0.4702    2.8598 H   0  0  0  0  0  0  0  0  0  0  0  0
    1.7507   -1.9890    3.4925 H   0  0  0  0  0  0  0  0  0  0  0  0
    2.8691   -3.3727    1.7888 H   0  0  0  0  0  0  0  0  0  0  0  0
  1 35  1  0  0  0  0
  2 35  1  0  0  0  0
  3 35  1  0  0  0  0
  4 11  1  0  0  0  0
  4 55  1  0  0  0  0
  5 15  1  0  0  0  0
  5 16  1  0  0  0  0
  5 23  1  0  0  0  0
  6 14  1  0  0  0  0
  6 25  1  0  0  0  0
  6 53  1  0  0  0  0
  7 22  1  0  0  0  0
  7 24  1  0  0  0  0
  7 26  1  0  0  0  0
  8 21  1  0  0  0  0
  8 24  2  0  0  0  0
  9 25  1  0  0  0  0
  9 26  2  0  0  0  0
 10 25  2  0  0  0  0
 10 29  1  0  0  0  0
 11 12  1  0  0  0  0
 11 13  1  0  0  0  0
 11 21  1  0  0  0  0
 12 15  1  0  0  0  0
 12 36  1  0  0  0  0
 12 37  1  0  0  0  0
 13 16  1  0  0  0  0
 13 38  1  0  0  0  0
 13 39  1  0  0  0  0
 14 17  1  0  0  0  0
 14 18  1  0  0  0  0
 14 40  1  0  0  0  0
 15 41  1  0  0  0  0
 15 42  1  0  0  0  0
 16 43  1  0  0  0  0
 16 44  1  0  0  0  0
 17 19  1  0  0  0  0
 17 45  1  0  0  0  0
 17 46  1  0  0  0  0
 18 20  1  0  0  0  0
 18 47  1  0  0  0  0
 18 48  1  0  0  0  0
 19 20  1  0  0  0  0
 19 49  1  0  0  0  0
 19 50  1  0  0  0  0
 20 51  1  0  0  0  0
 20 52  1  0  0  0  0
 21 22  2  0  0  0  0
 22 54  1  0  0  0  0
 23 56  1  0  0  0  0
 23 57  1  0  0  0  0
 23 58  1  0  0  0  0
 24 27  1  0  0  0  0
 26 28  1  0  0  0  0
 27 30  2  0  0  0  0
 27 31  1  0  0  0  0
 28 29  2  0  0  0  0
 28 59  1  0  0  0  0
 29 60  1  0  0  0  0
 30 32  1  0  0  0  0
 30 61  1  0  0  0  0
 31 33  2  0  0  0  0
 31 62  1  0  0  0  0
 32 34  2  0  0  0  0
 32 35  1  0  0  0  0
 33 34  1  0  0  0  0
 33 63  1  0  0  0  0
 34 64  1  0  0  0  0
M  END
> <PUBCHEM_COMPOUND_CID>
10005638

> <PUBCHEM_CONFORMER_RMSD>
1

> <PUBCHEM_CONFORMER_DIVERSEORDER>
1
113
212
129
180
196
116
34
152
76
191
81
97
72
33
121
213
143
104
159
145
57
80
78
86
170
217
208
167
193
178
24
105
172
93
13
99
203
163
161
38
91
23
185
200
207
114
176
171
109
84
181
148
94
44
168
137
64
123
189
141
195
10
216
20
90
150
218
214
156
95
202
128
124
182
149
18
187
42
183
87
147
135
199
209
101
77
130
27
175
133
155
37
74
210
15
174
82
66
198
188
47
179
28
173
79
26
100
119
127
165
136
55
75
63
65
162
131
31
40
106
88
112
46
35
219
89
166
36
102
110
39
68
190
61
146
205
71
122
184
115
117
7
120
158
118
96
67
108
139
103
41
154
107
14
134
21
48
160
201
50
52
177
12
186
43
142
17
69
85
151
53
59
83
62
211
98
58
125
169
140
9
11
92
3
22
70
4
192
60
6
204
153
126
206
56
19
16
49
29
144
32
215
54
51
111
132
164
73
8
138
5
30
45
197
157
25
194
2

> <PUBCHEM_MMFF94_PARTIAL_CHARGES>
38
1 -0.34
10 -0.62
11 0.46
14 0.37
15 0.27
16 0.27
2 -0.34
21 0.05
22 -0.3
23 0.27
24 0.13
25 0.72
26 0.29
27 0.05
28 -0.15
29 0.16
3 -0.34
30 -0.15
31 -0.15
32 -0.14
33 -0.15
34 -0.15
35 1.16
4 -0.68
5 -0.81
53 0.4
54 0.15
55 0.4
59 0.15
6 -0.87
60 0.15
61 0.15
62 0.15
63 0.15
64 0.15
7 0.33
8 -0.57
9 -0.62

> <PUBCHEM_EFFECTIVE_ROTOR_COUNT>
8.2

> <PUBCHEM_PHARMACOPHORE_FEATURES>
11
1 4 acceptor
1 4 donor
1 5 cation
1 6 donor
3 7 8 24 cation
4 6 9 10 25 cation
5 14 17 18 19 20 rings
5 7 8 21 22 24 rings
6 27 30 31 32 33 34 rings
6 5 11 12 13 15 16 rings
6 9 10 25 26 28 29 rings

> <PUBCHEM_HEAVY_ATOM_COUNT>
35

> <PUBCHEM_ATOM_DEF_STEREO_COUNT>
0

> <PUBCHEM_ATOM_UDEF_STEREO_COUNT>
0

> <PUBCHEM_BOND_DEF_STEREO_COUNT>
0

> <PUBCHEM_BOND_UDEF_STEREO_COUNT>
0

> <PUBCHEM_ISOTOPIC_ATOM_COUNT>
0

> <PUBCHEM_COMPONENT_COUNT>
1

> <PUBCHEM_CACTVS_TAUTO_COUNT>
3

> <PUBCHEM_CONFORMER_ID>
0098AC8600000001

> <PUBCHEM_MMFF94_ENERGY>
83.1128

> <PUBCHEM_FEATURE_SELFOVERLAP>
55.823

> <PUBCHEM_SHAPE_FINGERPRINT>
10050765 1 18266177224096086161
11135926 11 18341040900709241871
11421498 54 18060423499596793721
11578080 2 16734650984564322613
11719270 70 18411417336371544148
11991303 11 17241047742042276771
13009979 54 17844532107008345081
1361 2 18413390943180730950
13692114 37 18197207260081663163
14028597 1 17560531646119220921
14118638 360 18343017766939897097
14150023 79 18333448755054400602
14681490 219 18410576149842024300
14725015 67 18335415713659751882
15328829 1 17917997191930937625
15664445 248 18049721819510735219
16728300 4 17680118839367920274
1813 80 18268143155123040163
20028762 73 18342174517992066916
20771845 140 18130496496663444490
20771845 171 17458347433870379394
21344244 246 18412268307354425598
21781051 124 17677910091630968729
22311459 1 18408886265163582841
22956985 138 17826216403774685242
24771750 20 17898586520406384125
27425 322 15864925381998665900
3178227 256 18187933923204935889
3298306 158 18334858320929917564
335352 9 18262238927684244804
3411729 13 18333448720657160648
38695281 34 18342176712672992646
4017518 198 18130233770110297630
4093350 32 17489038071623897591
5265222 85 18118698836098842212
57359948 33 16226313821635896303
59755656 215 18259983777421223336
6004065 56 18340769350806372376
6138700 20 18334857204317626352
6679774 75 17677594506261319074
6700243 42 16837150624324695878

> <PUBCHEM_SHAPE_MULTIPOLES>
662.71
17.39
4.45
1.48
23.25
2.56
0.3
-2.77
-2.22
-6.24
-1.33
-0.55
1.16
0.22

> <PUBCHEM_SHAPE_SELFOVERLAP>
1445.299

> <PUBCHEM_SHAPE_VOLUME>
362.8

> <PUBCHEM_COORDINATE_TYPE>
2
5
10

$$$$
