135655504
  -OEChem-10052115193D

 32 35  0     0  0  0  0  0  0999 V2000
   -4.4437   -0.3435    0.0018 S   0  0  0  0  0  0  0  0  0  0  0  0
   -0.6398   -3.6169    0.0000 O   0  0  0  0  0  0  0  0  0  0  0  0
   -0.2564   -1.3812   -0.0011 N   0  0  0  0  0  0  0  0  0  0  0  0
   -2.4597   -2.1213    0.0006 N   0  0  0  0  0  0  0  0  0  0  0  0
    0.4454    0.7117   -0.0010 N   0  0  0  0  0  0  0  0  0  0  0  0
    1.0853   -1.4979   -0.0006 N   0  0  0  0  0  0  0  0  0  0  0  0
    5.5180    0.9727    0.0010 N   0  0  0  0  0  0  0  0  0  0  0  0
   -1.9611    0.2770   -0.0009 C   0  0  0  0  0  0  0  0  0  0  0  0
   -2.6349    1.5173   -0.0006 C   0  0  0  0  0  0  0  0  0  0  0  0
   -0.6182   -0.0524   -0.0015 C   0  0  0  0  0  0  0  0  0  0  0  0
   -2.8213   -0.7883    0.0003 C   0  0  0  0  0  0  0  0  0  0  0  0
   -4.0071    1.3283    0.0008 C   0  0  0  0  0  0  0  0  0  0  0  0
   -1.1130   -2.4906   -0.0002 C   0  0  0  0  0  0  0  0  0  0  0  0
   -1.9778    2.8464   -0.0016 C   0  0  0  0  0  0  0  0  0  0  0  0
    1.4564   -0.2125   -0.0006 C   0  0  0  0  0  0  0  0  0  0  0  0
   -5.0839    2.3447    0.0015 C   0  0  0  0  0  0  0  0  0  0  0  0
    2.8347    0.1897    0.0000 C   0  0  0  0  0  0  0  0  0  0  0  0
    3.1679    1.5397    0.0000 C   0  0  0  0  0  0  0  0  0  0  0  0
    3.8416   -0.7692    0.0006 C   0  0  0  0  0  0  0  0  0  0  0  0
    4.5120    1.8759    0.0004 C   0  0  0  0  0  0  0  0  0  0  0  0
    5.1557   -0.3298    0.0011 C   0  0  0  0  0  0  0  0  0  0  0  0
   -3.1920   -2.8236    0.0016 H   0  0  0  0  0  0  0  0  0  0  0  0
   -1.3456    2.9592   -0.8888 H   0  0  0  0  0  0  0  0  0  0  0  0
   -2.6959    3.6718   -0.0033 H   0  0  0  0  0  0  0  0  0  0  0  0
   -1.3472    2.9612    0.8865 H   0  0  0  0  0  0  0  0  0  0  0  0
   -5.0075    2.9813   -0.8864 H   0  0  0  0  0  0  0  0  0  0  0  0
   -6.0859    1.9029    0.0037 H   0  0  0  0  0  0  0  0  0  0  0  0
   -5.0046    2.9833    0.8878 H   0  0  0  0  0  0  0  0  0  0  0  0
    2.4219    2.3277   -0.0004 H   0  0  0  0  0  0  0  0  0  0  0  0
    3.6424   -1.8358    0.0006 H   0  0  0  0  0  0  0  0  0  0  0  0
    4.8248    2.9149    0.0003 H   0  0  0  0  0  0  0  0  0  0  0  0
    5.9783   -1.0373    0.0016 H   0  0  0  0  0  0  0  0  0  0  0  0
  1 11  1  0  0  0  0
  1 12  1  0  0  0  0
  2 13  2  0  0  0  0
  3  6  1  0  0  0  0
  3 10  1  0  0  0  0
  3 13  1  0  0  0  0
  4 11  1  0  0  0  0
  4 13  1  0  0  0  0
  4 22  1  0  0  0  0
  5 10  2  0  0  0  0
  5 15  1  0  0  0  0
  6 15  2  0  0  0  0
  7 20  2  0  0  0  0
  7 21  1  0  0  0  0
  8  9  1  0  0  0  0
  8 10  1  0  0  0  0
  8 11  2  0  0  0  0
  9 12  2  0  0  0  0
  9 14  1  0  0  0  0
 12 16  1  0  0  0  0
 14 23  1  0  0  0  0
 14 24  1  0  0  0  0
 14 25  1  0  0  0  0
 15 17  1  0  0  0  0
 16 26  1  0  0  0  0
 16 27  1  0  0  0  0
 16 28  1  0  0  0  0
 17 18  2  0  0  0  0
 17 19  1  0  0  0  0
 18 20  1  0  0  0  0
 18 29  1  0  0  0  0
 19 21  2  0  0  0  0
 19 30  1  0  0  0  0
 20 31  1  0  0  0  0
 21 32  1  0  0  0  0
M  END
> <PUBCHEM_COMPOUND_CID>
135655504

> <PUBCHEM_CONFORMER_RMSD>
0.6

> <PUBCHEM_CONFORMER_DIVERSEORDER>
1

> <PUBCHEM_MMFF94_PARTIAL_CHARGES>
25
1 -0.08
10 0.19
11 0.1
12 -0.14
13 0.64
14 0.18
15 0.46
16 0.18
17 0.05
18 -0.15
19 -0.15
2 -0.57
20 0.16
21 0.16
22 0.37
29 0.15
3 0.56
30 0.15
31 0.15
32 0.15
4 -0.49
5 -0.57
6 -0.71
7 -0.62
9 -0.18

> <PUBCHEM_EFFECTIVE_ROTOR_COUNT>
1

> <PUBCHEM_PHARMACOPHORE_FEATURES>
8
1 2 acceptor
1 4 donor
1 7 acceptor
3 5 6 15 cation
5 1 8 9 11 12 rings
5 3 5 6 10 15 rings
6 3 4 8 10 11 13 rings
6 7 17 18 19 20 21 rings

> <PUBCHEM_HEAVY_ATOM_COUNT>
21

> <PUBCHEM_ATOM_DEF_STEREO_COUNT>
0

> <PUBCHEM_ATOM_UDEF_STEREO_COUNT>
0

> <PUBCHEM_BOND_DEF_STEREO_COUNT>
0

> <PUBCHEM_BOND_UDEF_STEREO_COUNT>
0

> <PUBCHEM_ISOTOPIC_ATOM_COUNT>
0

> <PUBCHEM_COMPONENT_COUNT>
1

> <PUBCHEM_CACTVS_TAUTO_COUNT>
-1

> <PUBCHEM_CONFORMER_ID>
0815F05000000001

> <PUBCHEM_MMFF94_ENERGY>
45.961

> <PUBCHEM_FEATURE_SELFOVERLAP>
40.822

> <PUBCHEM_SHAPE_FINGERPRINT>
10319926 262 18269257102483720522
10411042 1 17690280830042040175
10493431 412 18411424982046606601
10608611 8 18341330089136005160
10616163 171 18339363097267973070
12107183 9 18191296088492549178
12173636 292 18410570695227608349
12236239 1 17894349977861162464
12390115 104 18270979967815483825
12403259 415 18202279238358491104
12500047 106 18340766030959643730
12788726 201 18046054132162215515
13140716 1 17832152988800768835
138480 1 17473826121847747043
14508225 48 17838322331470105967
14767858 380 18270100376320750357
14790565 3 18339930324829759025
15042514 8 18192437596073720331
15196674 1 18410855460128447620
15256400 18 18410294683892526460
17834072 32 18410857637761308209
19591789 44 18265614286562732462
19784866 170 18336270038041393737
204376 136 18410576145947301513
20510252 161 18342461443387537425
20645477 56 18409732863172645100
20645477 70 16916800548210168406
21033648 29 18341886415844110032
21065198 57 18339360881222480186
21236236 1 18413107286471448983
21267235 1 18337117851004344419
21421861 104 17823121355999177922
21524375 3 18272368629273041383
23227448 37 18340768238219536244
23366157 5 17827363180900510923
23402539 116 18342168977605373077
23557571 272 18200041766771820516
23558518 356 17972036113666081184
23559900 14 18272653403454860270
245318 6 16232811140624359036
293599 30 18410857629192375177
3004659 81 18335425622191826342
335352 9 18338517435524052918
350125 39 18265052444689787456
351380 180 18412824672827491860
3545911 37 18412547630636630892
4073 2 18114466773278305642
4214541 1 18410574002811537124
474 4 18267867190251656185
474229 33 18410294727053325843
495365 180 17274528911085694706
5104073 3 18335417989333023232
559249 180 18409726245329960794
58051976 378 18269835328792047589
59755656 215 18340492140974312518
633830 44 18200029530399243589
69090 78 18411135848647166022
7364860 26 17979918211809746975
77779 3 18410293653237388932
9709674 26 18342745143511157550
9981440 41 18335421249171431459

> <PUBCHEM_SHAPE_MULTIPOLES>
405.25
10.78
3.04
0.6
7.44
1.14
0
-6.01
-0.01
-2.07
0
-0.04
-0.03
0

> <PUBCHEM_SHAPE_SELFOVERLAP>
904.705

> <PUBCHEM_SHAPE_VOLUME>
220

> <PUBCHEM_COORDINATE_TYPE>
2
5
10

$$$$
