49830445
  -OEChem-10052120443D

 38 40  0     0  0  0  0  0  0999 V2000
   -5.0682   -0.0304    0.2820 S   0  0  0  0  0  0  0  0  0  0  0  0
   -6.4419   -0.3445   -0.0641 O   0  0  0  0  0  0  0  0  0  0  0  0
   -4.5297   -0.4056    1.5745 O   0  0  0  0  0  0  0  0  0  0  0  0
   -4.0470   -0.5772   -0.9925 N   0  0  0  0  0  0  0  0  0  0  0  0
    5.5952   -0.3945    0.4907 N   0  0  0  0  0  0  0  0  0  0  0  0
    5.8992    0.9008    0.3049 N   0  0  0  0  0  0  0  0  0  0  0  0
    4.5131    2.7719   -0.2514 N   0  0  0  0  0  0  0  0  0  0  0  0
    1.5478   -0.6333   -0.1035 C   0  0  0  0  0  0  0  0  0  0  0  0
    0.1178   -0.6183   -0.3300 C   0  0  0  0  0  0  0  0  0  0  0  0
    3.6599    0.5235    0.0207 C   0  0  0  0  0  0  0  0  0  0  0  0
    4.2671   -0.6874    0.3342 C   0  0  0  0  0  0  0  0  0  0  0  0
    2.2737    0.5603   -0.2039 C   0  0  0  0  0  0  0  0  0  0  0  0
   -2.6371   -0.5907   -0.7685 C   0  0  0  0  0  0  0  0  0  0  0  0
    2.1830   -1.8356    0.2128 C   0  0  0  0  0  0  0  0  0  0  0  0
    3.5622   -1.8883    0.4395 C   0  0  0  0  0  0  0  0  0  0  0  0
   -0.7023   -1.5349    0.3278 C   0  0  0  0  0  0  0  0  0  0  0  0
   -0.4396    0.3122   -1.2070 C   0  0  0  0  0  0  0  0  0  0  0  0
   -4.8801    1.7293    0.1022 C   0  0  0  0  0  0  0  0  0  0  0  0
   -2.0797   -1.5213    0.1087 C   0  0  0  0  0  0  0  0  0  0  0  0
   -1.8170    0.3260   -1.4263 C   0  0  0  0  0  0  0  0  0  0  0  0
    4.7193    1.4562    0.0196 C   0  0  0  0  0  0  0  0  0  0  0  0
   -5.6957    2.4820    1.1295 C   0  0  0  0  0  0  0  0  0  0  0  0
    1.8057    1.5158   -0.4172 H   0  0  0  0  0  0  0  0  0  0  0  0
    1.6452   -2.7795    0.2633 H   0  0  0  0  0  0  0  0  0  0  0  0
   -4.3164   -0.2605   -1.9337 H   0  0  0  0  0  0  0  0  0  0  0  0
   -3.8209    1.9707    0.2259 H   0  0  0  0  0  0  0  0  0  0  0  0
   -5.1986    1.9979   -0.9094 H   0  0  0  0  0  0  0  0  0  0  0  0
    4.0590   -2.8222    0.6779 H   0  0  0  0  0  0  0  0  0  0  0  0
   -0.3186   -2.2583    1.0420 H   0  0  0  0  0  0  0  0  0  0  0  0
    0.1614    1.0242   -1.7659 H   0  0  0  0  0  0  0  0  0  0  0  0
   -2.7050   -2.2458    0.6239 H   0  0  0  0  0  0  0  0  0  0  0  0
   -2.2403    1.0515   -2.1163 H   0  0  0  0  0  0  0  0  0  0  0  0
    6.3456   -1.0328    0.7239 H   0  0  0  0  0  0  0  0  0  0  0  0
   -6.7619    2.2527    1.0342 H   0  0  0  0  0  0  0  0  0  0  0  0
   -5.3886    2.2219    2.1476 H   0  0  0  0  0  0  0  0  0  0  0  0
   -5.5672    3.5611    1.0011 H   0  0  0  0  0  0  0  0  0  0  0  0
    5.2748    3.4431   -0.2531 H   0  0  0  0  0  0  0  0  0  0  0  0
    3.5985    3.1576   -0.4655 H   0  0  0  0  0  0  0  0  0  0  0  0
  1  2  2  0  0  0  0
  1  3  2  0  0  0  0
  1  4  1  0  0  0  0
  1 18  1  0  0  0  0
  4 13  1  0  0  0  0
  4 25  1  0  0  0  0
  5  6  1  0  0  0  0
  5 11  1  0  0  0  0
  5 33  1  0  0  0  0
  6 21  2  0  0  0  0
  7 21  1  0  0  0  0
  7 37  1  0  0  0  0
  7 38  1  0  0  0  0
  8  9  1  0  0  0  0
  8 12  2  0  0  0  0
  8 14  1  0  0  0  0
  9 16  2  0  0  0  0
  9 17  1  0  0  0  0
 10 11  2  0  0  0  0
 10 12  1  0  0  0  0
 10 21  1  0  0  0  0
 11 15  1  0  0  0  0
 12 23  1  0  0  0  0
 13 19  2  0  0  0  0
 13 20  1  0  0  0  0
 14 15  2  0  0  0  0
 14 24  1  0  0  0  0
 15 28  1  0  0  0  0
 16 19  1  0  0  0  0
 16 29  1  0  0  0  0
 17 20  2  0  0  0  0
 17 30  1  0  0  0  0
 18 22  1  0  0  0  0
 18 26  1  0  0  0  0
 18 27  1  0  0  0  0
 19 31  1  0  0  0  0
 20 32  1  0  0  0  0
 22 34  1  0  0  0  0
 22 35  1  0  0  0  0
 22 36  1  0  0  0  0
M  END
> <PUBCHEM_COMPOUND_CID>
49830445

> <PUBCHEM_CONFORMER_RMSD>
0.6

> <PUBCHEM_CONFORMER_DIVERSEORDER>
2
12
52
15
51
19
18
37
1
47
49
45
38
24
16
46
10
5
48
17
14
20
42
7
13
9
39
3
11
6
41
36
43
8
21
40
44
26
50
4
33
29
32
34
27
22
35
25
23
30
28
31

> <PUBCHEM_MMFF94_PARTIAL_CHARGES>
29
1 1.33
11 -0.15
12 -0.15
13 0.2
14 -0.15
15 -0.15
16 -0.15
17 -0.15
18 0.11
19 -0.15
2 -0.65
20 -0.15
21 0.37
23 0.15
24 0.15
25 0.42
28 0.15
29 0.15
3 -0.65
30 0.15
31 0.15
32 0.15
33 0.27
37 0.4
38 0.4
4 -0.76
5 0.3
6 -0.71
7 -0.88

> <PUBCHEM_EFFECTIVE_ROTOR_COUNT>
4

> <PUBCHEM_PHARMACOPHORE_FEATURES>
9
1 2 acceptor
1 3 acceptor
1 4 donor
1 5 donor
1 7 donor
3 6 7 21 cation
5 5 6 10 11 21 rings
6 8 10 11 12 14 15 rings
6 9 13 16 17 19 20 rings

> <PUBCHEM_HEAVY_ATOM_COUNT>
22

> <PUBCHEM_ATOM_DEF_STEREO_COUNT>
0

> <PUBCHEM_ATOM_UDEF_STEREO_COUNT>
0

> <PUBCHEM_BOND_DEF_STEREO_COUNT>
0

> <PUBCHEM_BOND_UDEF_STEREO_COUNT>
0

> <PUBCHEM_ISOTOPIC_ATOM_COUNT>
0

> <PUBCHEM_COMPONENT_COUNT>
1

> <PUBCHEM_CACTVS_TAUTO_COUNT>
35

> <PUBCHEM_CONFORMER_ID>
02F85A2D00000002

> <PUBCHEM_MMFF94_ENERGY>
54.736

> <PUBCHEM_FEATURE_SELFOVERLAP>
45.78

> <PUBCHEM_SHAPE_FINGERPRINT>
10 15 17603860157144395208
105312 117 15913325780510315773
10595046 47 18342170103055921359
106641 1 18113903805812653539
10670039 82 15984834700506724409
11089746 13 17703782635203747744
11370993 144 18334297526680930579
12107183 9 17836928902134177763
12236239 1 17846493751415895974
12403259 415 17822282462390837022
12596602 18 18335140878206634875
12670543 26 11959741451597725667
12788726 201 17560525005825474648
13073987 5 18410013217643192915
13167372 99 18342738486042517960
13288520 33 11386367037297613183
13668630 136 11674876667569312800
13675066 3 17603583023815105791
13785724 45 17693096267072602846
13955234 65 18261945281239761634
14251751 18 12252192882832077117
14251764 75 17536607557706305412
14341114 176 18113334215686642862
14573314 32 13326862131709513042
14790565 3 18411702062860271221
15048467 5 18343018899887850339
15163728 17 16916239754230199457
15183329 4 10159697971916668865
15209294 21 18410576159048481269
15475509 35 15937229146650962968
1601671 61 17274822445687188920
17349148 13 12251900373867760940
17844677 252 18339365166987957551
17857418 61 8358259245759194173
17980427 23 18412550886617844621
1813 80 16298108670157941479
18222031 100 8430327857152932540
18785283 64 17315084478485044796
19958102 18 11167932529506181017
20281389 69 18060416919548263385
20645477 56 17967524688302634822
21033648 29 17750212812147854021
21150785 3 15410887492098502645
21267235 1 18260545581525867782
21521239 73 10087631577548877693
21637258 2 12829500276769540721
22122407 14 18272380788594989177
22393880 68 11599725022299299939
23035841 295 8286199457794551989
23559900 14 18335692828981549314
25122255 55 12107784064779619785
2838139 119 17489300855019344609
3004659 81 10159695785398240788
312425 54 17531253816482988817
314173 85 16660649527357366359
34797466 226 17632585980260841045
3545911 37 18186798093612831238
4073 2 18113623421162083106
465052 167 11458425721982817648
5104073 3 17822840975532180640
531348 171 10375609074715946603
542803 24 18131347527005195342
54446538 1 18341891896533323073
7495541 125 12685100288684566382
8272917 22 18271807891708299974
90127 26 18339938017194657715

> <PUBCHEM_SHAPE_MULTIPOLES>
424.94
15.29
2.15
1.03
5.56
1.05
0.06
6.97
-3.8
-0.54
-0.39
1.04
0.08
-1.05

> <PUBCHEM_SHAPE_SELFOVERLAP>
916.444

> <PUBCHEM_SHAPE_VOLUME>
235.7

> <PUBCHEM_COORDINATE_TYPE>
2
5
10

$$$$
