54760383
  -OEChem-10052120443D

 67 72  0     0  0  0  0  0  0999 V2000
   -3.3974   -0.8515   -0.0043 N   0  0  0  0  0  0  0  0  0  0  0  0
   -3.4113    1.3777    0.0085 N   0  0  0  0  0  0  0  0  0  0  0  0
    6.6993    0.3729   -0.0204 N   0  0  0  0  0  0  0  0  0  0  0  0
   -5.5048    0.1929    0.0080 N   0  0  0  0  0  0  0  0  0  0  0  0
    9.4319    1.1634    0.2390 N   0  0  0  0  0  0  0  0  0  0  0  0
   -1.0018   -1.2534   -0.0140 N   0  0  0  0  0  0  0  0  0  0  0  0
    0.2484    0.8425   -0.0057 N   0  0  0  0  0  0  0  0  0  0  0  0
    1.3337   -1.2278   -0.0210 N   0  0  0  0  0  0  0  0  0  0  0  0
   -3.8970   -2.2790   -0.0067 C   0  0  0  0  0  0  0  0  0  0  0  0
   -3.4371   -3.0627   -1.2489 C   0  0  0  0  0  0  0  0  0  0  0  0
   -3.4444   -3.1174    1.2067 C   0  0  0  0  0  0  0  0  0  0  0  0
   -3.2026   -4.4793   -0.7467 C   0  0  0  0  0  0  0  0  0  0  0  0
   -2.6114   -4.2587    0.6343 C   0  0  0  0  0  0  0  0  0  0  0  0
   -2.0873   -0.4654   -0.0061 C   0  0  0  0  0  0  0  0  0  0  0  0
   -4.1539    0.2903    0.0045 C   0  0  0  0  0  0  0  0  0  0  0  0
   -2.1176    0.9201    0.0020 C   0  0  0  0  0  0  0  0  0  0  0  0
    7.0392    1.6445    0.6302 C   0  0  0  0  0  0  0  0  0  0  0  0
    7.7604   -0.6389   -0.0288 C   0  0  0  0  0  0  0  0  0  0  0  0
    8.3760    2.1748    0.1069 C   0  0  0  0  0  0  0  0  0  0  0  0
    9.0746   -0.0349   -0.5299 C   0  0  0  0  0  0  0  0  0  0  0  0
   -0.8907    1.5759    0.0021 C   0  0  0  0  0  0  0  0  0  0  0  0
    5.3585   -0.0276   -0.0212 C   0  0  0  0  0  0  0  0  0  0  0  0
    0.1238   -0.5067   -0.0132 C   0  0  0  0  0  0  0  0  0  0  0  0
   10.7152    1.6996   -0.2131 C   0  0  0  0  0  0  0  0  0  0  0  0
   -6.5867    1.1536    0.0166 C   0  0  0  0  0  0  0  0  0  0  0  0
    4.9904   -1.2336    0.5752 C   0  0  0  0  0  0  0  0  0  0  0  0
    4.3899    0.7795   -0.6181 C   0  0  0  0  0  0  0  0  0  0  0  0
    2.6854   -0.8257   -0.0225 C   0  0  0  0  0  0  0  0  0  0  0  0
    3.6540   -1.6327    0.5746 C   0  0  0  0  0  0  0  0  0  0  0  0
    3.0535    0.3804   -0.6188 C   0  0  0  0  0  0  0  0  0  0  0  0
   -7.9105    0.7139    0.0175 C   0  0  0  0  0  0  0  0  0  0  0  0
   -6.3057    2.5198    0.0236 C   0  0  0  0  0  0  0  0  0  0  0  0
   -8.9533    1.6404    0.0254 C   0  0  0  0  0  0  0  0  0  0  0  0
   -7.3483    3.4464    0.0316 C   0  0  0  0  0  0  0  0  0  0  0  0
   -8.6721    3.0065    0.0323 C   0  0  0  0  0  0  0  0  0  0  0  0
   -4.9862   -2.2592   -0.0014 H   0  0  0  0  0  0  0  0  0  0  0  0
   -4.1931   -3.0370   -2.0409 H   0  0  0  0  0  0  0  0  0  0  0  0
   -2.5122   -2.6642   -1.6789 H   0  0  0  0  0  0  0  0  0  0  0  0
   -2.8869   -2.5450    1.9547 H   0  0  0  0  0  0  0  0  0  0  0  0
   -4.3288   -3.5302    1.7081 H   0  0  0  0  0  0  0  0  0  0  0  0
   -2.5344   -5.0465   -1.4008 H   0  0  0  0  0  0  0  0  0  0  0  0
   -4.1538   -5.0195   -0.6733 H   0  0  0  0  0  0  0  0  0  0  0  0
   -2.6608   -5.1574    1.2560 H   0  0  0  0  0  0  0  0  0  0  0  0
   -1.5601   -3.9599    0.5542 H   0  0  0  0  0  0  0  0  0  0  0  0
    7.0931    1.4904    1.7158 H   0  0  0  0  0  0  0  0  0  0  0  0
    6.2758    2.4103    0.4510 H   0  0  0  0  0  0  0  0  0  0  0  0
    7.4965   -1.4731   -0.6908 H   0  0  0  0  0  0  0  0  0  0  0  0
    7.9029   -1.0393    0.9832 H   0  0  0  0  0  0  0  0  0  0  0  0
    8.6394    3.0692    0.6846 H   0  0  0  0  0  0  0  0  0  0  0  0
    8.2633    2.4839   -0.9411 H   0  0  0  0  0  0  0  0  0  0  0  0
    8.9848    0.2032   -1.5986 H   0  0  0  0  0  0  0  0  0  0  0  0
    9.8605   -0.7934   -0.4299 H   0  0  0  0  0  0  0  0  0  0  0  0
   -5.9244   -0.7310    0.0028 H   0  0  0  0  0  0  0  0  0  0  0  0
   -0.7807    2.6524    0.0079 H   0  0  0  0  0  0  0  0  0  0  0  0
   10.9990    2.5725    0.3852 H   0  0  0  0  0  0  0  0  0  0  0  0
   10.6931    1.9968   -1.2679 H   0  0  0  0  0  0  0  0  0  0  0  0
   11.5098    0.9570   -0.0807 H   0  0  0  0  0  0  0  0  0  0  0  0
    5.7152   -1.8799    1.0620 H   0  0  0  0  0  0  0  0  0  0  0  0
    4.6607    1.7108   -1.1090 H   0  0  0  0  0  0  0  0  0  0  0  0
    1.1937   -2.2253    0.1096 H   0  0  0  0  0  0  0  0  0  0  0  0
    3.3790   -2.5727    1.0464 H   0  0  0  0  0  0  0  0  0  0  0  0
    2.3441    1.0154   -1.1387 H   0  0  0  0  0  0  0  0  0  0  0  0
   -8.1449   -0.3474    0.0121 H   0  0  0  0  0  0  0  0  0  0  0  0
   -5.2923    2.9045    0.0232 H   0  0  0  0  0  0  0  0  0  0  0  0
   -9.9840    1.2982    0.0260 H   0  0  0  0  0  0  0  0  0  0  0  0
   -7.1301    4.5103    0.0371 H   0  0  0  0  0  0  0  0  0  0  0  0
   -9.4839    3.7280    0.0384 H   0  0  0  0  0  0  0  0  0  0  0  0
  1  9  1  0  0  0  0
  1 14  1  0  0  0  0
  1 15  1  0  0  0  0
  2 15  2  0  0  0  0
  2 16  1  0  0  0  0
  3 17  1  0  0  0  0
  3 18  1  0  0  0  0
  3 22  1  0  0  0  0
  4 15  1  0  0  0  0
  4 25  1  0  0  0  0
  4 53  1  0  0  0  0
  5 19  1  0  0  0  0
  5 20  1  0  0  0  0
  5 24  1  0  0  0  0
  6 14  2  0  0  0  0
  6 23  1  0  0  0  0
  7 21  1  0  0  0  0
  7 23  2  0  0  0  0
  8 23  1  0  0  0  0
  8 28  1  0  0  0  0
  8 60  1  0  0  0  0
  9 10  1  0  0  0  0
  9 11  1  0  0  0  0
  9 36  1  0  0  0  0
 10 12  1  0  0  0  0
 10 37  1  0  0  0  0
 10 38  1  0  0  0  0
 11 13  1  0  0  0  0
 11 39  1  0  0  0  0
 11 40  1  0  0  0  0
 12 13  1  0  0  0  0
 12 41  1  0  0  0  0
 12 42  1  0  0  0  0
 13 43  1  0  0  0  0
 13 44  1  0  0  0  0
 14 16  1  0  0  0  0
 16 21  2  0  0  0  0
 17 19  1  0  0  0  0
 17 45  1  0  0  0  0
 17 46  1  0  0  0  0
 18 20  1  0  0  0  0
 18 47  1  0  0  0  0
 18 48  1  0  0  0  0
 19 49  1  0  0  0  0
 19 50  1  0  0  0  0
 20 51  1  0  0  0  0
 20 52  1  0  0  0  0
 21 54  1  0  0  0  0
 22 26  2  0  0  0  0
 22 27  1  0  0  0  0
 24 55  1  0  0  0  0
 24 56  1  0  0  0  0
 24 57  1  0  0  0  0
 25 31  2  0  0  0  0
 25 32  1  0  0  0  0
 26 29  1  0  0  0  0
 26 58  1  0  0  0  0
 27 30  2  0  0  0  0
 27 59  1  0  0  0  0
 28 29  2  0  0  0  0
 28 30  1  0  0  0  0
 29 61  1  0  0  0  0
 30 62  1  0  0  0  0
 31 33  1  0  0  0  0
 31 63  1  0  0  0  0
 32 34  2  0  0  0  0
 32 64  1  0  0  0  0
 33 35  2  0  0  0  0
 33 65  1  0  0  0  0
 34 35  1  0  0  0  0
 34 66  1  0  0  0  0
 35 67  1  0  0  0  0
M  END
> <PUBCHEM_COMPOUND_CID>
54760383

> <PUBCHEM_CONFORMER_RMSD>
1

> <PUBCHEM_CONFORMER_DIVERSEORDER>
1
41
37
32
15
38
45
27
40
35
39
42
12
21
19
6
33
25
11
14
24
30
28
44
5
17
26
4
7
2
29
18
8
36
13
34
16
9
22
43
31
20
10
23
3

> <PUBCHEM_MMFF94_PARTIAL_CHARGES>
43
1 0.05
14 0.11
15 0.27
16 0.23
17 0.37
18 0.37
19 0.27
2 -0.57
20 0.27
21 0.16
22 0.1
23 0.72
24 0.27
25 0.1
26 -0.15
27 -0.15
28 0.1
29 -0.15
3 -0.84
30 -0.15
31 -0.15
32 -0.15
33 -0.15
34 -0.15
35 -0.15
4 -0.58
5 -0.81
53 0.4
54 0.15
58 0.15
59 0.15
6 -0.57
60 0.4
61 0.15
62 0.15
63 0.15
64 0.15
65 0.15
66 0.15
67 0.15
7 -0.62
8 -0.6
9 0.26

> <PUBCHEM_EFFECTIVE_ROTOR_COUNT>
8.2

> <PUBCHEM_PHARMACOPHORE_FEATURES>
12
1 3 cation
1 4 donor
1 5 cation
1 8 donor
4 1 2 4 15 cation
4 6 7 8 23 cation
5 1 2 14 15 16 rings
5 9 10 11 12 13 rings
6 22 26 27 28 29 30 rings
6 25 31 32 33 34 35 rings
6 3 5 17 18 19 20 rings
6 6 7 14 16 21 23 rings

> <PUBCHEM_HEAVY_ATOM_COUNT>
35

> <PUBCHEM_ATOM_DEF_STEREO_COUNT>
0

> <PUBCHEM_ATOM_UDEF_STEREO_COUNT>
0

> <PUBCHEM_BOND_DEF_STEREO_COUNT>
0

> <PUBCHEM_BOND_UDEF_STEREO_COUNT>
0

> <PUBCHEM_ISOTOPIC_ATOM_COUNT>
0

> <PUBCHEM_COMPONENT_COUNT>
1

> <PUBCHEM_CACTVS_TAUTO_COUNT>
6

> <PUBCHEM_CONFORMER_ID>
034393BF00000001

> <PUBCHEM_MMFF94_ENERGY>
120.1731

> <PUBCHEM_FEATURE_SELFOVERLAP>
61.037

> <PUBCHEM_SHAPE_FINGERPRINT>
10 15 18113617867626541504
10050765 1 18195527215110032009
10190206 1 18341035390762573727
10369192 42 18336263428540231069
10411042 1 17906733962500099031
10939801 23 18335136445673823457
11135609 187 18340487747771277721
11135926 11 17967806163300879374
11315181 36 17704076209140157251
12013929 2 18343586205950901356
12144603 126 18113901568182405268
12522641 33 17988077791232349063
12539745 222 16661212585308313675
12539765 74 17916307130958280077
12741549 16 13551195476931151295
12758862 11 18201435899970903729
13248334 5 17834395615155971671
14040222 383 18410007771466283131
14394314 77 18260828198051087256
150020 25 17988926700066094032
15064986 266 18410856581547961351
15347591 1 18192997247202023428
15461852 350 17632853157433828855
1577012 14 18260259768737651066
15927050 60 18411697652821155447
16989713 51 17559387174784918238
19315958 150 18341055116281241143
20505436 4 18187640276317418787
21781055 127 17845088450917469787
23559900 14 18341604975274337392
23576562 1 16772932839812495593
24771293 8 18340772542468499749
249057 3 18335140895112443933
25019877 29 18338800006039074327
335352 9 18413102862665748821
3411729 13 18119811306143758963
4073 2 18334016120798665594
4403749 210 17988356100459686958
44280117 145 18267584800479008438
44389302 135 18335408043429183642
44802255 64 17458890592873652831
4625314 4 18412545431998399948
4874694 18 18272368659886711742
5265222 85 18411698764842138387
58083652 198 15482669118067741986
6691757 9 18202572774273086979
99344 41 18410293627605086222
9953998 17 18334294292586101668
9962374 69 8718532901382116072

> <PUBCHEM_SHAPE_MULTIPOLES>
680.44
32.71
4.24
0.78
46.34
3.95
0.01
-30.83
0.12
-9.58
-0.03
-0.04
0.4
-0.26

> <PUBCHEM_SHAPE_SELFOVERLAP>
1483.965

> <PUBCHEM_SHAPE_VOLUME>
362

> <PUBCHEM_COORDINATE_TYPE>
2
5
10

$$$$
