6914613
  -OEChem-10062122003D

 50 53  0     1  0  0  0  0  0999 V2000
    2.6222    1.3254   -0.7773 O   0  0  0  0  0  0  0  0  0  0  0  0
    2.1347   -2.7854   -1.5965 N   0  0  0  0  0  0  0  0  0  0  0  0
    6.0130    0.7016    0.5881 N   0  0  0  0  0  0  0  0  0  0  0  0
    0.7704    4.2642    0.3256 N   0  0  0  0  0  0  0  0  0  0  0  0
   -6.5440   -0.7136   -0.1006 N   0  0  0  0  0  0  0  0  0  0  0  0
    4.0741   -0.8073    0.7823 C   0  0  0  0  0  0  0  0  0  0  0  0
    4.7349    0.3359   -0.0330 C   0  0  1  0  0  0  0  0  0  0  0  0
    3.0928   -1.6102    0.0247 C   0  0  0  0  0  0  0  0  0  0  0  0
    1.8064   -2.0210    0.4736 C   0  0  0  0  0  0  0  0  0  0  0  0
    1.2265   -2.7567   -0.5623 C   0  0  0  0  0  0  0  0  0  0  0  0
    3.8650    1.5953   -0.1419 C   0  0  0  0  0  0  0  0  0  0  0  0
    3.2657   -2.0954   -1.2512 C   0  0  0  0  0  0  0  0  0  0  0  0
    1.0775   -1.8371    1.6653 C   0  0  0  0  0  0  0  0  0  0  0  0
   -0.0510   -3.3197   -0.4655 C   0  0  0  0  0  0  0  0  0  0  0  0
   -0.2015   -2.3946    1.7764 C   0  0  0  0  0  0  0  0  0  0  0  0
   -0.7551   -3.1242    0.7260 C   0  0  0  0  0  0  0  0  0  0  0  0
    1.5633    2.1216   -0.4268 C   0  0  0  0  0  0  0  0  0  0  0  0
    0.2717    1.6282   -0.4601 C   0  0  0  0  0  0  0  0  0  0  0  0
    1.7688    3.4265   -0.0339 C   0  0  0  0  0  0  0  0  0  0  0  0
   -0.7821    2.4597   -0.0971 C   0  0  0  0  0  0  0  0  0  0  0  0
   -0.4823    3.7575    0.2847 C   0  0  0  0  0  0  0  0  0  0  0  0
   -2.1528    1.9830   -0.1174 C   0  0  0  0  0  0  0  0  0  0  0  0
   -2.5297    0.6808   -0.0945 C   0  0  0  0  0  0  0  0  0  0  0  0
   -3.9216    0.1967   -0.0956 C   0  0  0  0  0  0  0  0  0  0  0  0
   -4.9366    1.0492    0.2913 C   0  0  0  0  0  0  0  0  0  0  0  0
   -4.1887   -1.1008   -0.4851 C   0  0  0  0  0  0  0  0  0  0  0  0
   -6.2279    0.5471    0.2713 C   0  0  0  0  0  0  0  0  0  0  0  0
   -5.5135   -1.5067   -0.4703 C   0  0  0  0  0  0  0  0  0  0  0  0
    4.8548   -1.5033    1.1215 H   0  0  0  0  0  0  0  0  0  0  0  0
    3.6276   -0.3905    1.6934 H   0  0  0  0  0  0  0  0  0  0  0  0
    4.9603   -0.0154   -1.0458 H   0  0  0  0  0  0  0  0  0  0  0  0
    3.7111    1.9837    0.8749 H   0  0  0  0  0  0  0  0  0  0  0  0
    4.3923    2.3574   -0.7301 H   0  0  0  0  0  0  0  0  0  0  0  0
    4.0893   -2.0222   -1.9474 H   0  0  0  0  0  0  0  0  0  0  0  0
    1.9876   -3.2501   -2.4818 H   0  0  0  0  0  0  0  0  0  0  0  0
    1.4914   -1.2707    2.4945 H   0  0  0  0  0  0  0  0  0  0  0  0
    5.8498    1.0486    1.5327 H   0  0  0  0  0  0  0  0  0  0  0  0
    6.4384    1.4717    0.0732 H   0  0  0  0  0  0  0  0  0  0  0  0
   -0.4835   -3.8868   -1.2830 H   0  0  0  0  0  0  0  0  0  0  0  0
   -0.7692   -2.2545    2.6924 H   0  0  0  0  0  0  0  0  0  0  0  0
   -1.7508   -3.5470    0.8333 H   0  0  0  0  0  0  0  0  0  0  0  0
    0.1190    0.6053   -0.7904 H   0  0  0  0  0  0  0  0  0  0  0  0
    2.7478    3.8923   -0.0085 H   0  0  0  0  0  0  0  0  0  0  0  0
   -1.2575    4.4582    0.5816 H   0  0  0  0  0  0  0  0  0  0  0  0
   -2.8997    2.7713   -0.1573 H   0  0  0  0  0  0  0  0  0  0  0  0
   -1.7849   -0.1090   -0.0555 H   0  0  0  0  0  0  0  0  0  0  0  0
   -4.7808    2.0680    0.6249 H   0  0  0  0  0  0  0  0  0  0  0  0
   -3.4103   -1.7886   -0.7966 H   0  0  0  0  0  0  0  0  0  0  0  0
   -7.0690    1.1647    0.5687 H   0  0  0  0  0  0  0  0  0  0  0  0
   -5.7891   -2.5136   -0.7660 H   0  0  0  0  0  0  0  0  0  0  0  0
  1 11  1  0  0  0  0
  1 17  1  0  0  0  0
  2 10  1  0  0  0  0
  2 12  1  0  0  0  0
  2 35  1  0  0  0  0
  3  7  1  0  0  0  0
  3 37  1  0  0  0  0
  3 38  1  0  0  0  0
  4 19  1  0  0  0  0
  4 21  2  0  0  0  0
  5 27  2  0  0  0  0
  5 28  1  0  0  0  0
  6  7  1  0  0  0  0
  6  8  1  0  0  0  0
  6 29  1  0  0  0  0
  6 30  1  0  0  0  0
  7 11  1  0  0  0  0
  7 31  1  0  0  0  0
  8  9  1  0  0  0  0
  8 12  2  0  0  0  0
  9 10  1  0  0  0  0
  9 13  2  0  0  0  0
 10 14  2  0  0  0  0
 11 32  1  0  0  0  0
 11 33  1  0  0  0  0
 12 34  1  0  0  0  0
 13 15  1  0  0  0  0
 13 36  1  0  0  0  0
 14 16  1  0  0  0  0
 14 39  1  0  0  0  0
 15 16  2  0  0  0  0
 15 40  1  0  0  0  0
 16 41  1  0  0  0  0
 17 18  1  0  0  0  0
 17 19  2  0  0  0  0
 18 20  2  0  0  0  0
 18 42  1  0  0  0  0
 19 43  1  0  0  0  0
 20 21  1  0  0  0  0
 20 22  1  0  0  0  0
 21 44  1  0  0  0  0
 22 23  2  0  0  0  0
 22 45  1  0  0  0  0
 23 24  1  0  0  0  0
 23 46  1  0  0  0  0
 24 25  2  0  0  0  0
 24 26  1  0  0  0  0
 25 27  1  0  0  0  0
 25 47  1  0  0  0  0
 26 28  2  0  0  0  0
 26 48  1  0  0  0  0
 27 49  1  0  0  0  0
 28 50  1  0  0  0  0
M  END
> <PUBCHEM_COMPOUND_CID>
6914613

> <PUBCHEM_CONFORMER_RMSD>
1

> <PUBCHEM_CONFORMER_DIVERSEORDER>
1
120
163
144
197
38
245
642
218
452
50
701
667
304
7
244
40
297
108
624
481
499
29
138
141
430
517
48
489
712
467
98
349
353
416
26
111
247
81
463
296
290
186
477
251
535
200
572
419
343
10
366
2
351
23
56
11
8
286
622
526
148
322
329
91
726
238
21
301
441
97
512
280
506
633
638
358
171
37
208
345
431
734
145
59
674
510
12
76
690
233
567
440
407
509
28
64
380
603
307
279
640
167
60
465
62
679
466
5
51
116
458
45
25
285
439
608
36
53
216
283
41
541
121
636
107
128
241
6
17
591
63
546
194
9
184
378
524
153
39
281
315
592
462
73
413
530
716
235
65
658
298
114
456
262
457
13
583
159
516
655
180
46
212
75
383
101
721
4
211
414
629
134
118
249
166
31
20
14
86
112
601
450
226
600
425
545
300
115
165
132
616
599
58
179
201
484
47
149
142
27
539
102
187
400
22
529
676
371
32
217
577
566
356
520
589
239
464
709
602
332
236
293
169
72
426
274
61

> <PUBCHEM_MMFF94_PARTIAL_CHARGES>
44
1 -0.36
10 -0.15
11 0.28
12 -0.3
13 -0.15
14 -0.15
15 -0.15
16 -0.15
17 0.08
18 -0.15
19 0.16
2 0.03
20 0.03
21 0.16
22 -0.18
23 -0.18
24 0.03
25 -0.15
26 -0.15
27 0.16
28 0.16
3 -0.99
34 0.15
35 0.27
36 0.15
37 0.36
38 0.36
39 0.15
4 -0.62
40 0.15
41 0.15
42 0.15
43 0.15
44 0.15
45 0.15
46 0.15
47 0.15
48 0.15
49 0.15
5 -0.62
50 0.15
6 0.18
7 0.27
8 -0.18

> <PUBCHEM_EFFECTIVE_ROTOR_COUNT>
7

> <PUBCHEM_PHARMACOPHORE_FEATURES>
11
1 1 acceptor
1 2 cation
1 2 donor
1 3 cation
1 3 donor
1 4 acceptor
1 5 acceptor
5 2 8 9 10 12 rings
6 4 17 18 19 20 21 rings
6 5 24 25 26 27 28 rings
6 9 10 13 14 15 16 rings

> <PUBCHEM_HEAVY_ATOM_COUNT>
28

> <PUBCHEM_ATOM_DEF_STEREO_COUNT>
1

> <PUBCHEM_ATOM_UDEF_STEREO_COUNT>
0

> <PUBCHEM_BOND_DEF_STEREO_COUNT>
1

> <PUBCHEM_BOND_UDEF_STEREO_COUNT>
0

> <PUBCHEM_ISOTOPIC_ATOM_COUNT>
0

> <PUBCHEM_COMPONENT_COUNT>
1

> <PUBCHEM_CACTVS_TAUTO_COUNT>
1

> <PUBCHEM_CONFORMER_ID>
0069823500000001

> <PUBCHEM_MMFF94_ENERGY>
72.7945

> <PUBCHEM_FEATURE_SELFOVERLAP>
55.913

> <PUBCHEM_SHAPE_FINGERPRINT>
10006869 2 18336532847085078410
10498660 4 18193272984492550375
108634 29 18261684713731200842
10864689 126 18264493884483515567
1100329 8 18265048205461990930
12166972 35 17386289770707273566
12838863 1 18335688451935056322
13140716 1 18193553600454618344
13402501 40 18335421287387864363
1361 2 18412544348785582427
14178342 30 17832977248985981624
14394314 77 18412263939114645081
14725015 67 18261944163978149600
14787075 74 18333733511322224022
15721738 202 18342747355814941419
15927050 60 17765149862643255748
15968369 153 17911517919821066491
17492 54 18187942685048274564
17909252 39 17986687965147570694
20028762 73 18272932764605788350
20642791 35 18050010995970111529
20764821 26 17977948212967956044
21133410 90 17345194608779997976
21197605 99 18194687188094626843
21304304 249 18187922846979742202
22113638 7 18339357590686778932
23559900 14 18412252944704703185
338550 245 18263083365451377413
3680242 22 18260546675961755123
392239 28 18264489490351793426
394071 54 18271532992679284683
463206 1 18409731806990381453
513532 50 18059586784449228798
5309563 4 18411416181294782621
6004065 56 18341324600241744849
6287921 2 18057052306450830267
6443956 14 18409169870517873565
9896288 288 17984134856477906216

> <PUBCHEM_SHAPE_MULTIPOLES>
550.43
11.57
5.16
1.1
13.47
2.12
-0.16
-0.84
0.35
-2.21
-0.07
-0.56
-0.87
0.08

> <PUBCHEM_SHAPE_SELFOVERLAP>
1203.703

> <PUBCHEM_SHAPE_VOLUME>
297

> <PUBCHEM_COORDINATE_TYPE>
2
5
10

$$$$
