18516214
  -OEChem-10062121523D

 28 30  0     0  0  0  0  0  0999 V2000
   -3.4854    0.6062    0.0361 S   0  0  0  0  0  0  0  0  0  0  0  0
    1.6637    0.4292   -2.2084 F   0  0  0  0  0  0  0  0  0  0  0  0
    4.9556   -1.9382    0.2248 F   0  0  0  0  0  0  0  0  0  0  0  0
   -4.6783   -2.1071   -0.0643 O   0  0  0  0  0  0  0  0  0  0  0  0
   -0.6295    3.4358    0.1651 N   0  0  0  0  0  0  0  0  0  0  0  0
   -2.7347   -3.3232   -0.0179 N   0  0  0  0  0  0  0  0  0  0  0  0
   -0.9017    0.6509    0.1072 C   0  0  0  0  0  0  0  0  0  0  0  0
    0.3783    1.2359    0.1527 C   0  0  0  0  0  0  0  0  0  0  0  0
   -2.0130    1.4988    0.0924 C   0  0  0  0  0  0  0  0  0  0  0  0
    1.5628    0.4146    0.1677 C   0  0  0  0  0  0  0  0  0  0  0  0
   -1.3005   -0.7273    0.0713 C   0  0  0  0  0  0  0  0  0  0  0  0
   -2.6652   -0.8883    0.0308 C   0  0  0  0  0  0  0  0  0  0  0  0
    0.4420    2.6195    0.1797 C   0  0  0  0  0  0  0  0  0  0  0  0
   -1.8632    2.8867    0.1216 C   0  0  0  0  0  0  0  0  0  0  0  0
    2.1698    0.0367   -1.0300 C   0  0  0  0  0  0  0  0  0  0  0  0
    2.1019   -0.0025    1.3847 C   0  0  0  0  0  0  0  0  0  0  0  0
    3.3159   -0.7580   -1.0107 C   0  0  0  0  0  0  0  0  0  0  0  0
    3.2479   -0.7973    1.4041 C   0  0  0  0  0  0  0  0  0  0  0  0
   -3.4212   -2.0974   -0.0132 C   0  0  0  0  0  0  0  0  0  0  0  0
    3.8549   -1.1750    0.2063 C   0  0  0  0  0  0  0  0  0  0  0  0
   -0.5985   -1.5520    0.0752 H   0  0  0  0  0  0  0  0  0  0  0  0
    1.3968    3.1373    0.2144 H   0  0  0  0  0  0  0  0  0  0  0  0
   -2.7013    3.5728    0.1113 H   0  0  0  0  0  0  0  0  0  0  0  0
    1.6413    0.2825    2.3278 H   0  0  0  0  0  0  0  0  0  0  0  0
    3.7885   -1.0524   -1.9430 H   0  0  0  0  0  0  0  0  0  0  0  0
    3.6679   -1.1224    2.3513 H   0  0  0  0  0  0  0  0  0  0  0  0
   -1.7235   -3.3934    0.0147 H   0  0  0  0  0  0  0  0  0  0  0  0
   -3.2473   -4.1983   -0.0549 H   0  0  0  0  0  0  0  0  0  0  0  0
  1  9  1  0  0  0  0
  1 12  1  0  0  0  0
  2 15  1  0  0  0  0
  3 20  1  0  0  0  0
  4 19  2  0  0  0  0
  5 13  1  0  0  0  0
  5 14  2  0  0  0  0
  6 19  1  0  0  0  0
  6 27  1  0  0  0  0
  6 28  1  0  0  0  0
  7  8  1  0  0  0  0
  7  9  2  0  0  0  0
  7 11  1  0  0  0  0
  8 10  1  0  0  0  0
  8 13  2  0  0  0  0
  9 14  1  0  0  0  0
 10 15  2  0  0  0  0
 10 16  1  0  0  0  0
 11 12  2  0  0  0  0
 11 21  1  0  0  0  0
 12 19  1  0  0  0  0
 13 22  1  0  0  0  0
 14 23  1  0  0  0  0
 15 17  1  0  0  0  0
 16 18  2  0  0  0  0
 16 24  1  0  0  0  0
 17 20  2  0  0  0  0
 17 25  1  0  0  0  0
 18 20  1  0  0  0  0
 18 26  1  0  0  0  0
M  END
> <PUBCHEM_COMPOUND_CID>
18516214

> <PUBCHEM_CONFORMER_RMSD>
0.6

> <PUBCHEM_CONFORMER_DIVERSEORDER>
1
15
6
10
14
5
16
12
13
9
8
4
11
7
2
3

> <PUBCHEM_MMFF94_PARTIAL_CHARGES>
25
1 -0.08
11 -0.15
12 -0.05
13 0.16
14 0.16
15 0.19
16 -0.15
17 -0.15
18 -0.15
19 0.71
2 -0.19
20 0.19
21 0.15
22 0.15
23 0.15
24 0.15
25 0.15
26 0.15
27 0.37
28 0.37
3 -0.19
4 -0.57
5 -0.62
6 -0.8
9 0.04

> <PUBCHEM_EFFECTIVE_ROTOR_COUNT>
2

> <PUBCHEM_PHARMACOPHORE_FEATURES>
6
1 4 acceptor
1 5 acceptor
1 6 donor
5 1 7 9 11 12 rings
6 10 15 16 17 18 20 rings
6 5 7 8 9 13 14 rings

> <PUBCHEM_HEAVY_ATOM_COUNT>
20

> <PUBCHEM_ATOM_DEF_STEREO_COUNT>
0

> <PUBCHEM_ATOM_UDEF_STEREO_COUNT>
0

> <PUBCHEM_BOND_DEF_STEREO_COUNT>
0

> <PUBCHEM_BOND_UDEF_STEREO_COUNT>
0

> <PUBCHEM_ISOTOPIC_ATOM_COUNT>
0

> <PUBCHEM_COMPONENT_COUNT>
1

> <PUBCHEM_CACTVS_TAUTO_COUNT>
2

> <PUBCHEM_CONFORMER_ID>
011A88F600000001

> <PUBCHEM_MMFF94_ENERGY>
50.6464

> <PUBCHEM_FEATURE_SELFOVERLAP>
30.512

> <PUBCHEM_SHAPE_FINGERPRINT>
10616163 171 18338797789103212658
11578080 2 17677587857389038044
11582403 64 16113667617982119160
12236239 1 17677624046867336688
12363563 72 18340487863007745087
12500047 106 18050561842499912440
12553582 1 18338527433838834451
13083527 12 17909244112362685769
13140716 1 18342177786820946857
13538477 17 18189055313242811572
13583140 156 17700667629174723914
14115302 16 18259983743314764285
14178342 30 17987532441495678587
14787075 74 18043807796247913736
14863182 85 16749595959305864935
15042514 8 18338803299767364353
15885798 251 18411702131954099635
16752209 62 18190167997846527369
16945 1 18267022765100322281
17804303 29 18342455920006912129
18186145 218 11819270001842674976
19049666 15 17342380679441490012
19591789 44 17692826887023549257
20291156 8 18336264630139380955
20600515 1 18271249317709575756
20645477 70 17907292509916135711
20871998 22 18340484594537639465
21452121 199 18337949116149556120
21650355 55 18340201899616240793
21731516 1 18336274538718467321
22112679 90 17969519112465046204
23184049 29 18410852196095799001
232386 152 18408885122522459908
23366157 5 18044377364345459557
23402539 116 18198892613886066405
23419403 2 17466457538621108828
23557571 272 18058447617108885144
23559900 14 18126843790756386294
23598288 3 18043269958498968361
23728640 28 18192715540259421801
2748010 2 18268419299866176557
3084891 72 18267861680125191365
3091708 16 9207022857691595569
314173 41 18265337398701187011
335352 9 18411135823689661397
3421961 26 18196090177884746683
463206 1 18262513809723197803
568465 68 17203607064829374014
5902787 121 18411418453231891585
602551 16 18268989791797695378
7364860 26 17909832372732702457
77492 1 17605284977894928592
7970288 3 18410572928759516235
81228 2 18200602380273907025
9709674 26 18056199068669826342

> <PUBCHEM_SHAPE_MULTIPOLES>
385.06
7.59
3.34
1.1
2.26
0.76
-0.24
-6.67
0.28
-3.27
0.17
1.16
-0.03
-0.25

> <PUBCHEM_SHAPE_SELFOVERLAP>
849.72

> <PUBCHEM_SHAPE_VOLUME>
209.8

> <PUBCHEM_COORDINATE_TYPE>
2
5
10

$$$$
