49830477
  -OEChem-10052115183D

 42 45  0     1  0  0  0  0  0999 V2000
    4.0961    0.7783    1.6443 O   0  0  0  0  0  0  0  0  0  0  0  0
    2.7381   -2.2488    1.1107 O   0  0  0  0  0  0  0  0  0  0  0  0
   -1.2018   -1.9952   -0.1460 O   0  0  0  0  0  0  0  0  0  0  0  0
    3.0894   -0.7309   -0.6330 N   0  0  0  0  0  0  0  0  0  0  0  0
    6.1319    1.8140    1.3677 N   0  0  0  0  0  0  0  0  0  0  0  0
    0.1104   -2.4519   -0.1298 N   0  0  0  0  0  0  0  0  0  0  0  0
   -6.3239    1.4539    0.1255 N   0  0  0  0  0  0  0  0  0  0  0  0
   -7.1124    0.4019   -0.1510 N   0  0  0  0  0  0  0  0  0  0  0  0
    5.2252    0.5140   -0.4487 C   0  0  2  0  0  0  0  0  0  0  0  0
    4.6795    1.5442   -1.4436 C   0  0  0  0  0  0  0  0  0  0  0  0
    4.5484   -0.8513   -0.5923 C   0  0  0  0  0  0  0  0  0  0  0  0
    3.1494    1.5740   -1.4774 C   0  0  0  0  0  0  0  0  0  0  0  0
    2.5762    0.1745   -1.6675 C   0  0  0  0  0  0  0  0  0  0  0  0
    5.0805    1.0308    0.9540 C   0  0  0  0  0  0  0  0  0  0  0  0
    2.3091   -1.4895    0.2432 C   0  0  0  0  0  0  0  0  0  0  0  0
    0.8484   -1.3734    0.1483 C   0  0  0  0  0  0  0  0  0  0  0  0
    0.0643   -0.2190    0.3162 C   0  0  0  0  0  0  0  0  0  0  0  0
   -1.2163   -0.6641    0.1208 C   0  0  0  0  0  0  0  0  0  0  0  0
   -2.5114   -0.0484    0.1378 C   0  0  0  0  0  0  0  0  0  0  0  0
   -3.6476   -0.8281   -0.1128 C   0  0  0  0  0  0  0  0  0  0  0  0
   -4.9067   -0.2055   -0.0914 C   0  0  0  0  0  0  0  0  0  0  0  0
   -4.9887    1.1566    0.1758 C   0  0  0  0  0  0  0  0  0  0  0  0
   -2.6224    1.3178    0.4033 C   0  0  0  0  0  0  0  0  0  0  0  0
   -3.8688    1.9519    0.4281 C   0  0  0  0  0  0  0  0  0  0  0  0
   -6.2467   -0.6058   -0.2822 C   0  0  0  0  0  0  0  0  0  0  0  0
    6.2971    0.3750   -0.6431 H   0  0  0  0  0  0  0  0  0  0  0  0
    5.0562    2.5486   -1.2168 H   0  0  0  0  0  0  0  0  0  0  0  0
    5.0451    1.2900   -2.4469 H   0  0  0  0  0  0  0  0  0  0  0  0
    4.8531   -1.3214   -1.5353 H   0  0  0  0  0  0  0  0  0  0  0  0
    4.8567   -1.5228    0.2166 H   0  0  0  0  0  0  0  0  0  0  0  0
    2.7691    2.0042   -0.5432 H   0  0  0  0  0  0  0  0  0  0  0  0
    2.8131    2.2263   -2.2911 H   0  0  0  0  0  0  0  0  0  0  0  0
    1.4889    0.2136   -1.7045 H   0  0  0  0  0  0  0  0  0  0  0  0
    2.8989   -0.2332   -2.6338 H   0  0  0  0  0  0  0  0  0  0  0  0
    6.1427    2.2233    2.2960 H   0  0  0  0  0  0  0  0  0  0  0  0
    6.9277    2.0187    0.7720 H   0  0  0  0  0  0  0  0  0  0  0  0
    0.3904    0.7840    0.5508 H   0  0  0  0  0  0  0  0  0  0  0  0
   -3.5924   -1.8921   -0.3222 H   0  0  0  0  0  0  0  0  0  0  0  0
   -1.7432    1.9283    0.5984 H   0  0  0  0  0  0  0  0  0  0  0  0
   -3.9573    3.0128    0.6341 H   0  0  0  0  0  0  0  0  0  0  0  0
   -6.6269   -1.5912   -0.5117 H   0  0  0  0  0  0  0  0  0  0  0  0
   -6.7625    2.3547    0.2705 H   0  0  0  0  0  0  0  0  0  0  0  0
  1 14  2  0  0  0  0
  2 15  2  0  0  0  0
  3  6  1  0  0  0  0
  3 18  1  0  0  0  0
  4 11  1  0  0  0  0
  4 13  1  0  0  0  0
  4 15  1  0  0  0  0
  5 14  1  0  0  0  0
  5 35  1  0  0  0  0
  5 36  1  0  0  0  0
  6 16  2  0  0  0  0
  7  8  1  0  0  0  0
  7 22  1  0  0  0  0
  7 42  1  0  0  0  0
  8 25  2  0  0  0  0
  9 10  1  0  0  0  0
  9 11  1  0  0  0  0
  9 14  1  0  0  0  0
  9 26  1  0  0  0  0
 10 12  1  0  0  0  0
 10 27  1  0  0  0  0
 10 28  1  0  0  0  0
 11 29  1  0  0  0  0
 11 30  1  0  0  0  0
 12 13  1  0  0  0  0
 12 31  1  0  0  0  0
 12 32  1  0  0  0  0
 13 33  1  0  0  0  0
 13 34  1  0  0  0  0
 15 16  1  0  0  0  0
 16 17  1  0  0  0  0
 17 18  2  0  0  0  0
 17 37  1  0  0  0  0
 18 19  1  0  0  0  0
 19 20  2  0  0  0  0
 19 23  1  0  0  0  0
 20 21  1  0  0  0  0
 20 38  1  0  0  0  0
 21 22  2  0  0  0  0
 21 25  1  0  0  0  0
 22 24  1  0  0  0  0
 23 24  2  0  0  0  0
 23 39  1  0  0  0  0
 24 40  1  0  0  0  0
 25 41  1  0  0  0  0
M  END
> <PUBCHEM_COMPOUND_CID>
49830477

> <PUBCHEM_CONFORMER_RMSD>
0.8

> <PUBCHEM_CONFORMER_DIVERSEORDER>
1
191
68
54
81
151
171
165
86
47
132
93
53
97
146
179
109
230
79
194
16
83
214
217
172
105
70
29
94
190
57
50
174
186
118
157
229
42
119
219
107
17
67
5
77
170
183
56
228
182
9
37
30
75
134
127
33
122
25
26
152
103
224
164
80
130
31
158
227
24
44
38
62
177
22
120
13
58
124
169
113
100
236
136
141
209
216
192
187
35
96
11
92
235
69
121
147
95
212
108
8
28
23
195
48
15
46
137
180
176
220
84
128
154
12
125
27
131
145
102
72
51
71
155
140
166
181
59
99
149
213
21
117
210
215
205
4
139
52
19
207
193
115
221
201
167
110
231
6
189
76
206
232
112
87
202
144
20
43
2
184
168
66
45
153
104
188
163
225
49
200
126
148
185
234
106
64
41
89
218
211
91
135
10
161
116
65
173
39
156
90
7
78
40
159
36
204
199
160
101
123
61
111
74
223
142
233
34
222
114
60
55
226
162
175
133
63
73
18
3
178
85
14
88
82
143
32
203
198
98
208
138
150
129
197
196

> <PUBCHEM_MMFF94_PARTIAL_CHARGES>
30
1 -0.57
11 0.3
13 0.3
14 0.57
15 0.72
16 0.2
17 -0.15
18 0.09
19 0.05
2 -0.57
20 -0.15
22 -0.15
23 -0.15
24 -0.15
25 0.14
3 -0.02
35 0.37
36 0.37
37 0.15
38 0.15
39 0.15
4 -0.66
40 0.15
41 0.15
42 0.27
5 -0.8
6 -0.41
7 0.3
8 -0.71
9 0.06

> <PUBCHEM_EFFECTIVE_ROTOR_COUNT>
5.2

> <PUBCHEM_PHARMACOPHORE_FEATURES>
10
1 1 acceptor
1 2 acceptor
1 5 donor
1 6 acceptor
1 7 donor
1 8 acceptor
5 3 6 16 17 18 rings
5 7 8 21 22 25 rings
6 19 20 21 22 23 24 rings
6 4 9 10 11 12 13 rings

> <PUBCHEM_HEAVY_ATOM_COUNT>
25

> <PUBCHEM_ATOM_DEF_STEREO_COUNT>
0

> <PUBCHEM_ATOM_UDEF_STEREO_COUNT>
1

> <PUBCHEM_BOND_DEF_STEREO_COUNT>
0

> <PUBCHEM_BOND_UDEF_STEREO_COUNT>
0

> <PUBCHEM_ISOTOPIC_ATOM_COUNT>
0

> <PUBCHEM_COMPONENT_COUNT>
1

> <PUBCHEM_CACTVS_TAUTO_COUNT>
10

> <PUBCHEM_CONFORMER_ID>
02F85A4D00000001

> <PUBCHEM_MMFF94_ENERGY>
50.0878

> <PUBCHEM_FEATURE_SELFOVERLAP>
50.841

> <PUBCHEM_SHAPE_FINGERPRINT>
10595046 47 18408606942355416431
10670039 82 18338529538552320292
10688039 33 15864066559641540788
11646440 116 18272662267460465481
11796584 16 8502367832655010333
12107183 9 17541940884631428001
12166972 35 18336830801645438816
12236239 1 18410294688245646111
12403259 118 18042128806936235451
12633257 1 16515686671498153946
13402501 40 18131064965671245760
13533116 47 15719665481336265152
13617811 41 18408879655694555233
13685833 64 9583516525451837749
14211702 104 9294701209473637673
14347332 77 11743849036285471291
14420673 8 8646773309265571289
14461889 52 18113625620464790395
14528608 73 18413109450739203991
14739800 52 18342725322167995504
14767858 380 18340762724404759463
15183329 4 18261116279167846301
15348495 7 14057013757884566573
15510800 12 12685906192865787760
173720 79 18260542338023491914
19377110 9 18187368757301292147
20511986 3 18261944168673893799
21033648 29 18058719343131865352
21150785 3 16702016500658290309
21298829 104 18336271171480737109
21315764 268 18410568466546373876
21475661 188 17987223616652868400
221357 26 17346600755271534832
22149856 69 18268731475764849163
22950370 63 10303813163939033799
23016692 55 10015868690859581440
23559900 14 18338808840407473934
245318 6 17533241853169461237
2916195 48 18272930539717828568
3004659 81 18341898429178866230
335352 9 18261682502387429366
3472631 163 18200592613713181724
34797466 226 16988566813957206845
3680242 22 18187364307535734256
4325135 7 18410013222043226607
46194498 28 15052009061482255936
465052 167 9079116661305042848
474 4 18040723566756832362
5104073 3 18262805056187324251
513532 50 18201167564095366294
5372103 7 16055737937197603872
53794403 172 18196932390744054968
653340 110 18191021201490047732
67856867 119 18265048033774705715
8509985 295 18040152933576566508
8863177 126 11815028189600488533
960060 61 13758356674237732282
9981440 41 18334019393363291947

> <PUBCHEM_SHAPE_MULTIPOLES>
471.98
16.81
2.14
1.18
11.81
0.4
-0.04
-7.81
0.67
-0.81
0.19
-2.13
-0.42
-0.36

> <PUBCHEM_SHAPE_SELFOVERLAP>
1042.232

> <PUBCHEM_SHAPE_VOLUME>
253.7

> <PUBCHEM_COORDINATE_TYPE>
2
5
10

$$$$
