44460468
  -OEChem-10062122043D

 66 72  0     1  0  0  0  0  0999 V2000
   -2.5427    1.2097    0.8194 O   0  0  0  0  0  0  0  0  0  0  0  0
   -2.8552   -1.1273    0.9282 O   0  0  0  0  0  0  0  0  0  0  0  0
    2.1370    0.8418   -0.2691 O   0  0  0  0  0  0  0  0  0  0  0  0
   -2.1398   -1.2774   -1.9497 O   0  0  0  0  0  0  0  0  0  0  0  0
    4.0086    1.3624    1.8422 O   0  0  0  0  0  0  0  0  0  0  0  0
    0.4347    4.5077    2.3906 O   0  0  0  0  0  0  0  0  0  0  0  0
    1.8586   -1.9356    0.1430 O   0  0  0  0  0  0  0  0  0  0  0  0
   -0.5728   -4.5503    3.2746 O   0  0  0  0  0  0  0  0  0  0  0  0
   -7.1400   -1.7958   -1.4848 O   0  0  0  0  0  0  0  0  0  0  0  0
   -8.0621    0.7631   -2.0568 O   0  0  0  0  0  0  0  0  0  0  0  0
    6.3245   -2.2732   -0.0042 O   0  0  0  0  0  0  0  0  0  0  0  0
    7.3489   -1.8456   -2.5523 O   0  0  0  0  0  0  0  0  0  0  0  0
   -0.4535   -0.3066   -0.4878 C   0  0  1  0  0  0  0  0  0  0  0  0
   -1.8388   -0.1584   -1.1213 C   0  0  2  0  0  0  0  0  0  0  0  0
   -2.8329    0.0175    0.0457 C   0  0  2  0  0  0  0  0  0  0  0  0
   -0.1729    0.9899    0.2430 C   0  0  0  0  0  0  0  0  0  0  0  0
   -0.4790   -1.4550    0.4951 C   0  0  0  0  0  0  0  0  0  0  0  0
   -1.2439    1.6486    0.8695 C   0  0  0  0  0  0  0  0  0  0  0  0
    1.1211    1.5314    0.3455 C   0  0  0  0  0  0  0  0  0  0  0  0
   -1.6696   -1.7721    1.1613 C   0  0  0  0  0  0  0  0  0  0  0  0
    1.3439    2.7052    1.0823 C   0  0  0  0  0  0  0  0  0  0  0  0
   -4.2433    0.2152   -0.5222 C   0  0  0  0  0  0  0  0  0  0  0  0
    2.7211    3.2995    1.2211 C   0  0  0  0  0  0  0  0  0  0  0  0
    3.7987    2.3075    0.7926 C   0  0  2  0  0  0  0  0  0  0  0  0
    3.3431    1.5899   -0.4826 C   0  0  1  0  0  0  0  0  0  0  0  0
   -1.0274    2.8261    1.5838 C   0  0  0  0  0  0  0  0  0  0  0  0
    0.2586    3.3517    1.6876 C   0  0  0  0  0  0  0  0  0  0  0  0
    0.6806   -2.1868    0.7795 C   0  0  0  0  0  0  0  0  0  0  0  0
   -1.7011   -2.8131    2.0909 C   0  0  0  0  0  0  0  0  0  0  0  0
   -5.0638   -0.8892   -0.7518 C   0  0  0  0  0  0  0  0  0  0  0  0
   -4.7062    1.4995   -0.8083 C   0  0  0  0  0  0  0  0  0  0  0  0
    4.4155    0.6695   -1.0332 C   0  0  0  0  0  0  0  0  0  0  0  0
    0.6481   -3.2237    1.7120 C   0  0  0  0  0  0  0  0  0  0  0  0
   -0.5416   -3.5360    2.3672 C   0  0  0  0  0  0  0  0  0  0  0  0
   -6.3474   -0.7094   -1.2672 C   0  0  0  0  0  0  0  0  0  0  0  0
   -5.9897    1.6793   -1.3241 C   0  0  0  0  0  0  0  0  0  0  0  0
    4.8877   -0.3916   -0.2607 C   0  0  0  0  0  0  0  0  0  0  0  0
   -6.8103    0.5750   -1.5535 C   0  0  0  0  0  0  0  0  0  0  0  0
    4.9289    0.8836   -2.3124 C   0  0  0  0  0  0  0  0  0  0  0  0
    5.8733   -1.2389   -0.7675 C   0  0  0  0  0  0  0  0  0  0  0  0
    5.9145    0.0365   -2.8190 C   0  0  0  0  0  0  0  0  0  0  0  0
    6.3867   -1.0248   -2.0466 C   0  0  0  0  0  0  0  0  0  0  0  0
    0.2716   -0.4960   -1.2880 H   0  0  0  0  0  0  0  0  0  0  0  0
   -1.8576    0.7281   -1.7714 H   0  0  0  0  0  0  0  0  0  0  0  0
    2.7709    4.1902    0.5829 H   0  0  0  0  0  0  0  0  0  0  0  0
    2.8928    3.6038    2.2604 H   0  0  0  0  0  0  0  0  0  0  0  0
    4.7479    2.8319    0.6313 H   0  0  0  0  0  0  0  0  0  0  0  0
    3.1210    2.3455   -1.2505 H   0  0  0  0  0  0  0  0  0  0  0  0
   -1.8668    3.3298    2.0574 H   0  0  0  0  0  0  0  0  0  0  0  0
   -1.4513   -1.3284   -2.6344 H   0  0  0  0  0  0  0  0  0  0  0  0
   -2.6326   -3.0571    2.5960 H   0  0  0  0  0  0  0  0  0  0  0  0
   -4.7102   -1.8955   -0.5421 H   0  0  0  0  0  0  0  0  0  0  0  0
   -4.0855    2.3779   -0.6565 H   0  0  0  0  0  0  0  0  0  0  0  0
    1.5453   -3.7976    1.9313 H   0  0  0  0  0  0  0  0  0  0  0  0
    4.3175    1.8540    2.6222 H   0  0  0  0  0  0  0  0  0  0  0  0
   -6.3366    2.6850   -1.5462 H   0  0  0  0  0  0  0  0  0  0  0  0
   -0.4242    4.8073    2.7347 H   0  0  0  0  0  0  0  0  0  0  0  0
    2.5408   -2.5454    0.4723 H   0  0  0  0  0  0  0  0  0  0  0  0
    4.4706   -0.6088    0.7167 H   0  0  0  0  0  0  0  0  0  0  0  0
    4.5715    1.7056   -2.9268 H   0  0  0  0  0  0  0  0  0  0  0  0
   -1.4749   -4.6283    3.6297 H   0  0  0  0  0  0  0  0  0  0  0  0
    6.3057    0.2147   -3.8171 H   0  0  0  0  0  0  0  0  0  0  0  0
   -6.6554   -2.5993   -1.2288 H   0  0  0  0  0  0  0  0  0  0  0  0
   -8.2092    1.7150   -2.1922 H   0  0  0  0  0  0  0  0  0  0  0  0
    5.8581   -2.2664    0.8493 H   0  0  0  0  0  0  0  0  0  0  0  0
    7.5824   -1.5458   -3.4477 H   0  0  0  0  0  0  0  0  0  0  0  0
  1 15  1  0  0  0  0
  1 18  1  0  0  0  0
  2 15  1  0  0  0  0
  2 20  1  0  0  0  0
  3 19  1  0  0  0  0
  3 25  1  0  0  0  0
  4 14  1  0  0  0  0
  4 50  1  0  0  0  0
  5 24  1  0  0  0  0
  5 55  1  0  0  0  0
  6 27  1  0  0  0  0
  6 57  1  0  0  0  0
  7 28  1  0  0  0  0
  7 58  1  0  0  0  0
  8 34  1  0  0  0  0
  8 61  1  0  0  0  0
  9 35  1  0  0  0  0
  9 63  1  0  0  0  0
 10 38  1  0  0  0  0
 10 64  1  0  0  0  0
 11 40  1  0  0  0  0
 11 65  1  0  0  0  0
 12 42  1  0  0  0  0
 12 66  1  0  0  0  0
 13 14  1  0  0  0  0
 13 16  1  0  0  0  0
 13 17  1  0  0  0  0
 13 43  1  0  0  0  0
 14 15  1  0  0  0  0
 14 44  1  0  0  0  0
 15 22  1  0  0  0  0
 16 18  2  0  0  0  0
 16 19  1  0  0  0  0
 17 20  1  0  0  0  0
 17 28  2  0  0  0  0
 18 26  1  0  0  0  0
 19 21  2  0  0  0  0
 20 29  2  0  0  0  0
 21 23  1  0  0  0  0
 21 27  1  0  0  0  0
 22 30  2  0  0  0  0
 22 31  1  0  0  0  0
 23 24  1  0  0  0  0
 23 45  1  0  0  0  0
 23 46  1  0  0  0  0
 24 25  1  0  0  0  0
 24 47  1  0  0  0  0
 25 32  1  0  0  0  0
 25 48  1  0  0  0  0
 26 27  2  0  0  0  0
 26 49  1  0  0  0  0
 28 33  1  0  0  0  0
 29 34  1  0  0  0  0
 29 51  1  0  0  0  0
 30 35  1  0  0  0  0
 30 52  1  0  0  0  0
 31 36  2  0  0  0  0
 31 53  1  0  0  0  0
 32 37  2  0  0  0  0
 32 39  1  0  0  0  0
 33 34  2  0  0  0  0
 33 54  1  0  0  0  0
 35 38  2  0  0  0  0
 36 38  1  0  0  0  0
 36 56  1  0  0  0  0
 37 40  1  0  0  0  0
 37 59  1  0  0  0  0
 39 41  2  0  0  0  0
 39 60  1  0  0  0  0
 40 42  2  0  0  0  0
 41 42  1  0  0  0  0
 41 62  1  0  0  0  0
M  END
> <PUBCHEM_COMPOUND_CID>
44460468

> <PUBCHEM_CONFORMER_RMSD>
0.8

> <PUBCHEM_CONFORMER_DIVERSEORDER>
1
8
12
5
10
6
9
7
2
11
4
3

> <PUBCHEM_MMFF94_PARTIAL_CHARGES>
60
1 -0.36
10 -0.53
11 -0.53
12 -0.53
13 0.29
14 0.28
15 0.7
16 -0.14
17 -0.14
18 0.08
19 0.08
2 -0.36
20 0.08
21 -0.14
22 -0.14
23 0.14
24 0.28
25 0.42
26 -0.15
27 0.08
28 0.08
29 -0.15
3 -0.36
30 -0.15
31 -0.15
32 -0.14
33 -0.15
34 0.08
35 0.08
36 -0.15
37 -0.15
38 0.08
39 -0.15
4 -0.68
40 0.08
41 -0.15
42 0.08
49 0.15
5 -0.68
50 0.4
51 0.15
52 0.15
53 0.15
54 0.15
55 0.4
56 0.15
57 0.45
58 0.45
59 0.15
6 -0.53
60 0.15
61 0.45
62 0.15
63 0.45
64 0.45
65 0.45
66 0.45
7 -0.53
8 -0.53
9 -0.53

> <PUBCHEM_EFFECTIVE_ROTOR_COUNT>
3.4

> <PUBCHEM_PHARMACOPHORE_FEATURES>
21
1 1 acceptor
1 10 donor
1 11 donor
1 12 donor
1 2 acceptor
1 3 acceptor
1 4 acceptor
1 4 donor
1 5 acceptor
1 5 donor
1 6 donor
1 7 donor
1 8 donor
1 9 donor
6 1 13 14 15 16 18 rings
6 16 18 19 21 26 27 rings
6 17 20 28 29 33 34 rings
6 2 13 14 15 17 20 rings
6 22 30 31 35 36 38 rings
6 3 19 21 23 24 25 rings
6 32 37 39 40 41 42 rings

> <PUBCHEM_HEAVY_ATOM_COUNT>
42

> <PUBCHEM_ATOM_DEF_STEREO_COUNT>
4

> <PUBCHEM_ATOM_UDEF_STEREO_COUNT>
1

> <PUBCHEM_BOND_DEF_STEREO_COUNT>
0

> <PUBCHEM_BOND_UDEF_STEREO_COUNT>
0

> <PUBCHEM_ISOTOPIC_ATOM_COUNT>
0

> <PUBCHEM_COMPONENT_COUNT>
1

> <PUBCHEM_CACTVS_TAUTO_COUNT>
918

> <PUBCHEM_CONFORMER_ID>
02A669B400000001

> <PUBCHEM_MMFF94_ENERGY>
143.4392

> <PUBCHEM_FEATURE_SELFOVERLAP>
108.224

> <PUBCHEM_SHAPE_FINGERPRINT>
10165383 225 17822009779117268071
10290309 65 17620486040156824400
10693767 8 17846488262326126125
11991303 11 17313392270145179187
12107698 1 18059857242418138692
12124843 1 18410019827449792598
12202916 173 18343862204713032054
12633046 712 18050595080951207456
12788726 201 18269565944628154344
1361 87 18266765596018662718
13782708 43 18339079419036011983
13811026 1 18131345298529059444
14068700 675 18272651195641502244
14400156 260 18054510197804685977
14931854 50 18336836303493147174
15160629 131 17844820187001815487
15183329 4 18040719142982742100
15351339 4 18335694984611325834
15629462 23 17988375814575411849
18681886 176 17845638305826516447
19958102 18 18187090542251965436
20775438 99 17484776535910549838
21133410 230 17388290998124438755
21279426 13 18410292544803523795
21781051 124 17749395900983792819
21814621 53 16988558022591422147
22440779 20 16592280966149538058
23536364 44 18200026240465786101
23559900 14 18339370776748625952
23569943 247 17917441864959560639
244849 19 18124598849108674314
25223398 141 17531824565981383931
3298306 158 18335973246889247067
3383291 50 18202003218212227630
3633792 109 18260553307924166124
404807 14 16339797615961720518
4058900 60 17749957639824767667
4403749 210 16906915122554704840
45266715 3 18342452673681542754
508180 173 18202562861330624417
513532 50 17988064691143992792
5265222 85 17750529531567997559
70251023 43 17704078382657385332
9658208 31 18115582793758216259
9981440 41 16548024644021954745

> <PUBCHEM_SHAPE_MULTIPOLES>
793.91
16.28
4.44
2.67
4.64
0.76
0.04
2.12
-18.21
-1.22
5.06
-1.23
0.82
2.3

> <PUBCHEM_SHAPE_SELFOVERLAP>
1813.886

> <PUBCHEM_SHAPE_VOLUME>
405.1

> <PUBCHEM_COORDINATE_TYPE>
2
5
10

$$$$
