136027072
  -OEChem-10052115183D

 49 52  0     0  0  0  0  0  0999 V2000
   -7.1036    0.3132    1.6667 O   0  0  0  0  0  0  0  0  0  0  0  0
    1.4666    1.8990    0.7459 O   0  0  0  0  0  0  0  0  0  0  0  0
   -1.0045    1.3303   -0.3002 N   0  0  0  0  0  0  0  0  0  0  0  0
    0.1349    1.1716   -1.0076 N   0  0  0  0  0  0  0  0  0  0  0  0
   -3.8256   -1.6041   -1.4322 C   0  0  0  0  0  0  0  0  0  0  0  0
   -2.3196   -1.7944   -1.5410 C   0  0  0  0  0  0  0  0  0  0  0  0
   -4.1857   -0.5701   -0.3965 C   0  0  0  0  0  0  0  0  0  0  0  0
   -1.6388   -0.4580   -1.7712 C   0  0  0  0  0  0  0  0  0  0  0  0
   -3.2941    0.4505   -0.0159 C   0  0  0  0  0  0  0  0  0  0  0  0
   -1.9402    0.5038   -0.6394 C   0  0  0  0  0  0  0  0  0  0  0  0
   -5.4708   -0.6052    0.1678 C   0  0  0  0  0  0  0  0  0  0  0  0
   -3.6947    1.4019    0.9320 C   0  0  0  0  0  0  0  0  0  0  0  0
   -5.8597    0.3431    1.1114 C   0  0  0  0  0  0  0  0  0  0  0  0
   -4.9720    1.3435    1.4933 C   0  0  0  0  0  0  0  0  0  0  0  0
   -6.4627   -1.6529   -0.2371 C   0  0  0  0  0  0  0  0  0  0  0  0
    3.7895    0.9049   -0.6102 C   0  0  0  0  0  0  0  0  0  0  0  0
    2.5104    1.2314   -1.3348 C   0  0  0  0  0  0  0  0  0  0  0  0
    4.0204   -0.3570   -0.0386 C   0  0  0  0  0  0  0  0  0  0  0  0
    1.3409    1.4824   -0.4032 C   0  0  0  0  0  0  0  0  0  0  0  0
    5.2434   -0.6003    0.6309 C   0  0  0  0  0  0  0  0  0  0  0  0
    4.7507    1.9124   -0.5232 C   0  0  0  0  0  0  0  0  0  0  0  0
    3.0644   -1.3827   -0.1165 C   0  0  0  0  0  0  0  0  0  0  0  0
    6.1994    0.4256    0.7089 C   0  0  0  0  0  0  0  0  0  0  0  0
    5.9533    1.6731    0.1351 C   0  0  0  0  0  0  0  0  0  0  0  0
    5.4742   -1.8620    1.2026 C   0  0  0  0  0  0  0  0  0  0  0  0
    3.3105   -2.6304    0.4573 C   0  0  0  0  0  0  0  0  0  0  0  0
    4.5131   -2.8696    1.1156 C   0  0  0  0  0  0  0  0  0  0  0  0
   -4.2537   -2.5814   -1.1843 H   0  0  0  0  0  0  0  0  0  0  0  0
   -4.2335   -1.2901   -2.4008 H   0  0  0  0  0  0  0  0  0  0  0  0
   -1.9359   -2.2530   -0.6200 H   0  0  0  0  0  0  0  0  0  0  0  0
   -2.0932   -2.4812   -2.3646 H   0  0  0  0  0  0  0  0  0  0  0  0
   -0.5865   -0.7395   -1.8635 H   0  0  0  0  0  0  0  0  0  0  0  0
   -1.9627   -0.0046   -2.7153 H   0  0  0  0  0  0  0  0  0  0  0  0
   -3.0225    2.1979    1.2414 H   0  0  0  0  0  0  0  0  0  0  0  0
   -5.2603    2.0925    2.2263 H   0  0  0  0  0  0  0  0  0  0  0  0
   -6.1855   -2.6206    0.1938 H   0  0  0  0  0  0  0  0  0  0  0  0
   -7.4829   -1.4281    0.0897 H   0  0  0  0  0  0  0  0  0  0  0  0
   -6.5144   -1.7417   -1.3276 H   0  0  0  0  0  0  0  0  0  0  0  0
    2.2783    0.4420   -2.0600 H   0  0  0  0  0  0  0  0  0  0  0  0
    2.6325    2.1423   -1.9360 H   0  0  0  0  0  0  0  0  0  0  0  0
    0.0791    0.9992   -2.0056 H   0  0  0  0  0  0  0  0  0  0  0  0
   -7.1891    1.0495    2.2963 H   0  0  0  0  0  0  0  0  0  0  0  0
    4.5771    2.8921   -0.9607 H   0  0  0  0  0  0  0  0  0  0  0  0
    2.1095   -1.2509   -0.6171 H   0  0  0  0  0  0  0  0  0  0  0  0
    7.1464    0.2610    1.2188 H   0  0  0  0  0  0  0  0  0  0  0  0
    6.7010    2.4580    0.2033 H   0  0  0  0  0  0  0  0  0  0  0  0
    6.4071   -2.0713    1.7220 H   0  0  0  0  0  0  0  0  0  0  0  0
    2.5628   -3.4154    0.3903 H   0  0  0  0  0  0  0  0  0  0  0  0
    4.7041   -3.8411    1.5621 H   0  0  0  0  0  0  0  0  0  0  0  0
  1 13  1  0  0  0  0
  1 42  1  0  0  0  0
  2 19  2  0  0  0  0
  3  4  1  0  0  0  0
  3 10  2  3  0  0  0
  4 19  1  0  0  0  0
  4 41  1  0  0  0  0
  5  6  1  0  0  0  0
  5  7  1  0  0  0  0
  5 28  1  0  0  0  0
  5 29  1  0  0  0  0
  6  8  1  0  0  0  0
  6 30  1  0  0  0  0
  6 31  1  0  0  0  0
  7  9  2  0  0  0  0
  7 11  1  0  0  0  0
  8 10  1  0  0  0  0
  8 32  1  0  0  0  0
  8 33  1  0  0  0  0
  9 10  1  0  0  0  0
  9 12  1  0  0  0  0
 11 13  2  0  0  0  0
 11 15  1  0  0  0  0
 12 14  2  0  0  0  0
 12 34  1  0  0  0  0
 13 14  1  0  0  0  0
 14 35  1  0  0  0  0
 15 36  1  0  0  0  0
 15 37  1  0  0  0  0
 15 38  1  0  0  0  0
 16 17  1  0  0  0  0
 16 18  1  0  0  0  0
 16 21  2  0  0  0  0
 17 19  1  0  0  0  0
 17 39  1  0  0  0  0
 17 40  1  0  0  0  0
 18 20  1  0  0  0  0
 18 22  2  0  0  0  0
 20 23  1  0  0  0  0
 20 25  2  0  0  0  0
 21 24  1  0  0  0  0
 21 43  1  0  0  0  0
 22 26  1  0  0  0  0
 22 44  1  0  0  0  0
 23 24  2  0  0  0  0
 23 45  1  0  0  0  0
 24 46  1  0  0  0  0
 25 27  1  0  0  0  0
 25 47  1  0  0  0  0
 26 27  2  0  0  0  0
 26 48  1  0  0  0  0
 27 49  1  0  0  0  0
M  END
> <PUBCHEM_COMPOUND_CID>
136027072

> <PUBCHEM_CONFORMER_RMSD>
0.8

> <PUBCHEM_CONFORMER_DIVERSEORDER>
1
24
20
33
12
4
27
34
19
37
15
8
5
6
29
32
23
2
18
16
13
25
22
26
11
35
31
28
14
30
17
21
3
9
36
7
10

> <PUBCHEM_MMFF94_PARTIAL_CHARGES>
35
1 -0.53
10 0.3
11 -0.14
12 -0.15
13 0.08
14 -0.15
15 0.14
16 -0.14
17 0.2
19 0.57
2 -0.57
21 -0.15
22 -0.15
23 -0.15
24 -0.15
25 -0.15
26 -0.15
27 -0.15
3 -0.51
34 0.15
35 0.15
4 -0.37
41 0.37
42 0.45
43 0.15
44 0.15
45 0.15
46 0.15
47 0.15
48 0.15
49 0.15
5 0.14
7 -0.14
8 0.06
9 0.09

> <PUBCHEM_EFFECTIVE_ROTOR_COUNT>
4.6

> <PUBCHEM_PHARMACOPHORE_FEATURES>
8
1 1 donor
1 2 acceptor
1 3 acceptor
1 4 donor
6 16 18 20 21 23 24 rings
6 18 20 22 25 26 27 rings
6 5 6 7 8 9 10 rings
6 7 9 11 12 13 14 rings

> <PUBCHEM_HEAVY_ATOM_COUNT>
27

> <PUBCHEM_ATOM_DEF_STEREO_COUNT>
0

> <PUBCHEM_ATOM_UDEF_STEREO_COUNT>
0

> <PUBCHEM_BOND_DEF_STEREO_COUNT>
0

> <PUBCHEM_BOND_UDEF_STEREO_COUNT>
1

> <PUBCHEM_ISOTOPIC_ATOM_COUNT>
0

> <PUBCHEM_COMPONENT_COUNT>
1

> <PUBCHEM_CACTVS_TAUTO_COUNT>
-1

> <PUBCHEM_CONFORMER_ID>
081B9BC000000001

> <PUBCHEM_MMFF94_ENERGY>
89.9061

> <PUBCHEM_FEATURE_SELFOVERLAP>
40.649

> <PUBCHEM_SHAPE_FINGERPRINT>
10 15 17489309727973216025
10319926 262 17275100669843025147
10674148 151 17846225484376159636
10939801 23 18130227163538407976
12107183 9 17979641134610567993
12236239 1 18413390947217189701
12422481 6 18270401560031879015
12596602 18 17988928872496450888
12633257 1 17918274259680534277
12788726 201 17561093474943740120
13533116 47 18407762534383737688
13551218 46 18335422340055895375
13782708 43 16226048890150224339
13914758 101 18261388924403621525
14251764 18 18273216426258825045
14341114 328 18343579651277088734
14394314 77 18341897394171070913
146900 427 18343296011985221792
14849402 71 18269271443243527608
15183329 4 18201721764852180301
15250474 111 18270674389144802199
15352257 5 17676212407112998603
15537594 2 18410014338523889510
15799311 1 18188221977849497226
16110190 28 18343017778917457223
17492 89 18191298270367667970
17857418 61 18411697699326102645
1813 80 17676493830143829052
19377110 9 18413102870896870264
20511986 3 18271231772989087672
20554085 129 16630526173174210595
21197605 99 18334296513364535330
21315763 178 18413103987456440060
21421861 104 18341333306245695852
21424621 283 15051190986894071827
21623969 137 17821729442275125130
22061861 79 17022901250556561647
23522609 53 18195272055097848421
3633792 109 18261096475611416031
3663271 9 18342742918285230913
3680242 22 18410575050615161590
4073 2 18192996147716314936
46194498 28 16443065019584643158
463206 1 18335698394789393642
5104073 3 18130220561851355577
513202 73 17895473631748328349
54039377 194 18262519170533121858
5758199 1 18339078311383192980
7226269 152 16773803584750045545
86090 222 16950574237726464810

> <PUBCHEM_SHAPE_MULTIPOLES>
533.95
18.75
2.57
1.46
7.18
1.13
-0.08
2.37
7.27
-2.92
0.27
1.27
0.14
-2.94

> <PUBCHEM_SHAPE_SELFOVERLAP>
1176.407

> <PUBCHEM_SHAPE_VOLUME>
287.2

> <PUBCHEM_COORDINATE_TYPE>
2
5
10

$$$$
