49830304
  -OEChem-10052120443D

 50 53  0     0  0  0  0  0  0999 V2000
    2.9598   -5.0030    0.4340 Cl  0  0  0  0  0  0  0  0  0  0  0  0
   -6.2091    0.2642    1.5775 O   0  0  0  0  0  0  0  0  0  0  0  0
   -0.6617   -1.9354   -0.8175 N   0  0  0  0  0  0  0  0  0  0  0  0
   -4.7558    0.3864   -0.2290 N   0  0  0  0  0  0  0  0  0  0  0  0
    1.3199   -0.9179   -0.1677 N   0  0  0  0  0  0  0  0  0  0  0  0
   -6.2108    2.1172    0.1810 N   0  0  0  0  0  0  0  0  0  0  0  0
    1.1008   -3.3173   -0.2118 N   0  0  0  0  0  0  0  0  0  0  0  0
    4.8275    1.4909    1.4121 N   0  0  0  0  0  0  0  0  0  0  0  0
    4.4111    3.5191    0.1806 N   0  0  0  0  0  0  0  0  0  0  0  0
   -1.3069   -0.6574   -1.0469 C   0  0  0  0  0  0  0  0  0  0  0  0
   -4.1085   -0.8903   -0.0293 C   0  0  0  0  0  0  0  0  0  0  0  0
   -2.4899   -0.8242   -2.0038 C   0  0  0  0  0  0  0  0  0  0  0  0
   -1.7286   -0.0402    0.2882 C   0  0  0  0  0  0  0  0  0  0  0  0
   -3.6948   -1.5186   -1.3626 C   0  0  0  0  0  0  0  0  0  0  0  0
   -2.9205   -0.7581    0.9261 C   0  0  0  0  0  0  0  0  0  0  0  0
    0.6428   -2.0623   -0.3810 C   0  0  0  0  0  0  0  0  0  0  0  0
   -5.7659    0.8660    0.6002 C   0  0  0  0  0  0  0  0  0  0  0  0
    2.5894   -1.0787    0.2599 C   0  0  0  0  0  0  0  0  0  0  0  0
    3.3281    0.1292    0.4911 C   0  0  0  0  0  0  0  0  0  0  0  0
    2.3770   -3.4046    0.2174 C   0  0  0  0  0  0  0  0  0  0  0  0
    3.1768   -2.3092    0.4720 C   0  0  0  0  0  0  0  0  0  0  0  0
    3.2174    1.4001   -0.1328 C   0  0  0  0  0  0  0  0  0  0  0  0
   -7.2548    2.8452    0.8629 C   0  0  0  0  0  0  0  0  0  0  0  0
    4.3269    0.2151    1.4368 C   0  0  0  0  0  0  0  0  0  0  0  0
    4.1657    2.2259    0.4640 C   0  0  0  0  0  0  0  0  0  0  0  0
    2.4189    1.9586   -1.1442 C   0  0  0  0  0  0  0  0  0  0  0  0
    2.6314    3.2951   -1.4775 C   0  0  0  0  0  0  0  0  0  0  0  0
    3.6138    4.0043   -0.7995 C   0  0  0  0  0  0  0  0  0  0  0  0
   -0.5978    0.0181   -1.5425 H   0  0  0  0  0  0  0  0  0  0  0  0
   -4.8464   -1.5527    0.4406 H   0  0  0  0  0  0  0  0  0  0  0  0
   -2.8000    0.1673   -2.3572 H   0  0  0  0  0  0  0  0  0  0  0  0
   -2.1826   -1.3873   -2.8939 H   0  0  0  0  0  0  0  0  0  0  0  0
   -2.0026    1.0088    0.1165 H   0  0  0  0  0  0  0  0  0  0  0  0
   -0.8998   -0.0232    1.0048 H   0  0  0  0  0  0  0  0  0  0  0  0
   -4.5359   -1.5030   -2.0666 H   0  0  0  0  0  0  0  0  0  0  0  0
   -3.4495   -2.5747   -1.1949 H   0  0  0  0  0  0  0  0  0  0  0  0
   -2.6041   -1.7602    1.2422 H   0  0  0  0  0  0  0  0  0  0  0  0
   -3.2173   -0.2233    1.8365 H   0  0  0  0  0  0  0  0  0  0  0  0
   -1.1890   -2.7918   -0.9407 H   0  0  0  0  0  0  0  0  0  0  0  0
   -4.4127    0.9968   -0.9641 H   0  0  0  0  0  0  0  0  0  0  0  0
   -5.8168    2.5183   -0.6643 H   0  0  0  0  0  0  0  0  0  0  0  0
    4.2013   -2.4332    0.8024 H   0  0  0  0  0  0  0  0  0  0  0  0
   -7.2723    2.5899    1.9253 H   0  0  0  0  0  0  0  0  0  0  0  0
   -7.0699    3.9146    0.7375 H   0  0  0  0  0  0  0  0  0  0  0  0
   -8.2120    2.5814    0.4062 H   0  0  0  0  0  0  0  0  0  0  0  0
    4.7315   -0.5018    2.1388 H   0  0  0  0  0  0  0  0  0  0  0  0
    5.5696    1.8380    2.0037 H   0  0  0  0  0  0  0  0  0  0  0  0
    1.6604    1.3814   -1.6623 H   0  0  0  0  0  0  0  0  0  0  0  0
    2.0404    3.7708   -2.2528 H   0  0  0  0  0  0  0  0  0  0  0  0
    3.7929    5.0474   -1.0469 H   0  0  0  0  0  0  0  0  0  0  0  0
  1 20  1  0  0  0  0
  2 17  2  0  0  0  0
  3 10  1  0  0  0  0
  3 16  1  0  0  0  0
  3 39  1  0  0  0  0
  4 11  1  0  0  0  0
  4 17  1  0  0  0  0
  4 40  1  0  0  0  0
  5 16  2  0  0  0  0
  5 18  1  0  0  0  0
  6 17  1  0  0  0  0
  6 23  1  0  0  0  0
  6 41  1  0  0  0  0
  7 16  1  0  0  0  0
  7 20  2  0  0  0  0
  8 24  1  0  0  0  0
  8 25  1  0  0  0  0
  8 47  1  0  0  0  0
  9 25  1  0  0  0  0
  9 28  2  0  0  0  0
 10 12  1  0  0  0  0
 10 13  1  0  0  0  0
 10 29  1  0  0  0  0
 11 14  1  0  0  0  0
 11 15  1  0  0  0  0
 11 30  1  0  0  0  0
 12 14  1  0  0  0  0
 12 31  1  0  0  0  0
 12 32  1  0  0  0  0
 13 15  1  0  0  0  0
 13 33  1  0  0  0  0
 13 34  1  0  0  0  0
 14 35  1  0  0  0  0
 14 36  1  0  0  0  0
 15 37  1  0  0  0  0
 15 38  1  0  0  0  0
 18 19  1  0  0  0  0
 18 21  2  0  0  0  0
 19 22  1  0  0  0  0
 19 24  2  0  0  0  0
 20 21  1  0  0  0  0
 21 42  1  0  0  0  0
 22 25  2  0  0  0  0
 22 26  1  0  0  0  0
 23 43  1  0  0  0  0
 23 44  1  0  0  0  0
 23 45  1  0  0  0  0
 24 46  1  0  0  0  0
 26 27  2  0  0  0  0
 26 48  1  0  0  0  0
 27 28  1  0  0  0  0
 27 49  1  0  0  0  0
 28 50  1  0  0  0  0
M  END
> <PUBCHEM_COMPOUND_CID>
49830304

> <PUBCHEM_CONFORMER_RMSD>
0.8

> <PUBCHEM_CONFORMER_DIVERSEORDER>
1
53
292
192
105
259
290
217
43
322
58
67
116
339
194
279
288
120
230
186
291
38
273
146
263
297
102
121
48
144
182
286
148
280
119
287
196
13
360
52
277
229
311
201
374
221
39
278
172
208
47
12
375
171
168
154
103
368
310
166
214
124
210
41
365
193
315
348
249
244
84
180
29
283
381
354
236
76
98
379
165
352
123
65
307
78
132
218
281
227
358
344
317
138
131
224
260
170
319
289
341
309
197
333
24
181
321
362
37
106
167
198
26
367
372
9
276
164
117
203
382
268
359
130
323
28
245
96
56
318
233
219
68
247
175
350
60
206
129
293
228
135
314
308
31
320
22
226
316
189
271
156
118
15
93
136
246
187
35
241
161
272
61
251
174
176
213
14
100
363
95
18
66
240
326
64
159
49
303
90
134
74
85
149
262
140
285
275
373
353
200
376
301
222
139
97
153
190
212
44
89
223
330
79
46
294
143
274
282
51
264
20
45
75
267
91
284
151
216
298
10
377
183
332
155
254
261
112
304
257
126
204
232
231
19
199
169
202
351
270
115
92
252
380
86
50
211
150
334
137
295
250
331
40
207
195
73
237
42
296
36
30
177
324
215
258
269
128
357
17
32
34
162
220
336
125
356
88
266
209
69
110
142
205
141
369
82
305
152
21
299
5
366
107
345
163
191
306
179
328
255
158
225
104
6
25
72
109
77
188
178
370
114
87
127
256
27
59
33
157
145
122
185
361
243
71
133
242
94
248
234
342
147
2
253
346
11
113
8
343
101
81
335
378
349
184
16
111
62
83
300
54
325
364
99
3
327
239
313
23
355
7
55
371
173
338
160
302
63
329
70
312
57
265
235
238
108
347
80
340
337
4

> <PUBCHEM_MMFF94_PARTIAL_CHARGES>
32
1 -0.18
10 0.37
11 0.3
16 0.72
17 0.69
18 0.36
19 -0.05
2 -0.57
20 0.49
21 -0.15
23 0.3
24 -0.3
25 0.11
26 -0.15
27 -0.15
28 0.16
3 -0.87
39 0.4
4 -0.73
40 0.37
41 0.37
42 0.15
46 0.15
47 0.27
48 0.15
49 0.15
5 -0.62
50 0.15
6 -0.73
7 -0.62
8 0.03
9 -0.57

> <PUBCHEM_EFFECTIVE_ROTOR_COUNT>
7.2

> <PUBCHEM_PHARMACOPHORE_FEATURES>
13
1 2 acceptor
1 3 donor
1 4 donor
1 6 donor
1 7 acceptor
1 8 cation
1 8 donor
1 9 acceptor
4 3 5 7 16 cation
5 8 19 22 24 25 rings
6 10 11 12 13 14 15 rings
6 5 7 16 18 20 21 rings
6 9 22 25 26 27 28 rings

> <PUBCHEM_HEAVY_ATOM_COUNT>
28

> <PUBCHEM_ATOM_DEF_STEREO_COUNT>
0

> <PUBCHEM_ATOM_UDEF_STEREO_COUNT>
0

> <PUBCHEM_BOND_DEF_STEREO_COUNT>
0

> <PUBCHEM_BOND_UDEF_STEREO_COUNT>
0

> <PUBCHEM_ISOTOPIC_ATOM_COUNT>
0

> <PUBCHEM_COMPONENT_COUNT>
1

> <PUBCHEM_CACTVS_TAUTO_COUNT>
48

> <PUBCHEM_CONFORMER_ID>
02F859A000000001

> <PUBCHEM_MMFF94_ENERGY>
53.0006

> <PUBCHEM_FEATURE_SELFOVERLAP>
66.136

> <PUBCHEM_SHAPE_FINGERPRINT>
10483366 6 18263663839799567380
10917259 69 18120662585779464076
10937287 8 18194120956885853038
11049842 53 16845297085767324615
12422481 6 18040428885204606205
12633257 1 17240759639782828249
13785724 45 17980485563783146742
13878862 14 18195227954821273293
13965767 371 18042393802772187260
14114211 80 18044950210035147124
14251764 75 18118973734773825148
14347332 77 8935004759522675063
14790565 3 18195247938797958757
14918310 93 17344073953641121622
15342168 16 18339079397033615775
15348495 7 18188219702387346939
15439362 3 18341056324158295628
15475509 8 18412834586540017076
15950262 2 16197874034180912832
16992787 43 18338524045996290182
17810953 82 18410858763006017916
19301679 30 17400919696249348146
19377110 9 18339926043211250663
1979834 28 18187089480883548157
20511986 3 17845923100301211489
20715895 44 18411417289454302513
20739085 24 18335691729443171050
21033648 144 17823684463932556412
21049683 271 18191314788954846134
21315764 268 18191024492104389509
22122407 14 18269288880688650881
23522609 53 11748365732012192583
23559900 14 18336268933786815099
245318 6 18262528116221733429
24771293 8 18199445767889543266
373842 8 18265896857231779725
397830 11 18187942681502374691
4409770 3 16824742558306010366
474 4 18337662131114933142
57724786 102 18412260597845534903
6034566 193 18047481302702516181
6058803 2 18200854254368273359
633830 44 18270963556671560806
6609424 69 18192992604210307180
68570916 9 18342176636550192651
7970288 3 8862128037116254800
960060 61 11743851282262872264

> <PUBCHEM_SHAPE_MULTIPOLES>
537.36
14.39
5.47
1.37
27.44
1.27
-0.24
-12.49
5.77
-8
-0.47
0.49
-0.31
-2.24

> <PUBCHEM_SHAPE_SELFOVERLAP>
1155.512

> <PUBCHEM_SHAPE_VOLUME>
296.4

> <PUBCHEM_COORDINATE_TYPE>
2
5
10

$$$$
