24905196
  -OEChem-10052115143D

 41 45  0     0  0  0  0  0  0999 V2000
    5.2736    1.0050   -0.5001 O   0  0  0  0  0  0  0  0  0  0  0  0
   -2.1933    0.1826    0.0113 N   0  0  0  0  0  0  0  0  0  0  0  0
   -1.0173    0.8242   -0.1203 N   0  0  0  0  0  0  0  0  0  0  0  0
   -3.0622   -2.0693    0.2020 N   0  0  0  0  0  0  0  0  0  0  0  0
   -1.2787   -3.7324    0.1410 N   0  0  0  0  0  0  0  0  0  0  0  0
    1.0245   -3.1463   -0.0802 N   0  0  0  0  0  0  0  0  0  0  0  0
   -3.4755    0.9819    0.0760 C   0  0  0  0  0  0  0  0  0  0  0  0
   -3.7520    1.8502   -1.1690 C   0  0  0  0  0  0  0  0  0  0  0  0
   -3.5082    1.9488    1.2732 C   0  0  0  0  0  0  0  0  0  0  0  0
   -3.7765    3.2914   -0.6721 C   0  0  0  0  0  0  0  0  0  0  0  0
   -4.2577    3.1700    0.7628 C   0  0  0  0  0  0  0  0  0  0  0  0
   -2.0705   -1.1737    0.0724 C   0  0  0  0  0  0  0  0  0  0  0  0
   -0.7160   -1.4394   -0.0264 C   0  0  0  0  0  0  0  0  0  0  0  0
   -0.1216   -0.1691   -0.1426 C   0  0  0  0  0  0  0  0  0  0  0  0
    1.2772    0.1335   -0.2751 C   0  0  0  0  0  0  0  0  0  0  0  0
   -0.3292   -2.7749    0.0117 C   0  0  0  0  0  0  0  0  0  0  0  0
    2.0478    0.3428    0.8768 C   0  0  0  0  0  0  0  0  0  0  0  0
    1.8472    0.2150   -1.5482 C   0  0  0  0  0  0  0  0  0  0  0  0
   -2.5678   -3.3258    0.2269 C   0  0  0  0  0  0  0  0  0  0  0  0
    3.4143    0.6385    0.7297 C   0  0  0  0  0  0  0  0  0  0  0  0
    3.9441    0.7107   -0.5545 C   0  0  0  0  0  0  0  0  0  0  0  0
    3.2038    0.5076   -1.7180 C   0  0  0  0  0  0  0  0  0  0  0  0
    4.4962    0.9069    1.6090 C   0  0  0  0  0  0  0  0  0  0  0  0
    5.5981    1.1218    0.8139 C   0  0  0  0  0  0  0  0  0  0  0  0
   -4.2740    0.2369    0.1773 H   0  0  0  0  0  0  0  0  0  0  0  0
   -4.7374    1.5902   -1.5749 H   0  0  0  0  0  0  0  0  0  0  0  0
   -3.0207    1.7116   -1.9716 H   0  0  0  0  0  0  0  0  0  0  0  0
   -2.4999    2.2399    1.5903 H   0  0  0  0  0  0  0  0  0  0  0  0
   -4.0052    1.5011    2.1399 H   0  0  0  0  0  0  0  0  0  0  0  0
   -4.4268    3.9281   -1.2788 H   0  0  0  0  0  0  0  0  0  0  0  0
   -2.7648    3.7133   -0.6971 H   0  0  0  0  0  0  0  0  0  0  0  0
   -4.0424    4.0657    1.3523 H   0  0  0  0  0  0  0  0  0  0  0  0
   -5.3390    2.9912    0.7892 H   0  0  0  0  0  0  0  0  0  0  0  0
    1.6064    0.2795    1.8680 H   0  0  0  0  0  0  0  0  0  0  0  0
    1.2385    0.0501   -2.4356 H   0  0  0  0  0  0  0  0  0  0  0  0
   -3.3020   -4.1177    0.3296 H   0  0  0  0  0  0  0  0  0  0  0  0
    3.6531    0.5723   -2.7018 H   0  0  0  0  0  0  0  0  0  0  0  0
    1.7540   -2.4555   -0.1774 H   0  0  0  0  0  0  0  0  0  0  0  0
    1.2622   -4.1286   -0.0486 H   0  0  0  0  0  0  0  0  0  0  0  0
    4.4750    0.9395    2.6892 H   0  0  0  0  0  0  0  0  0  0  0  0
    6.6322    1.3563    1.0196 H   0  0  0  0  0  0  0  0  0  0  0  0
  1 21  1  0  0  0  0
  1 24  1  0  0  0  0
  2  3  1  0  0  0  0
  2  7  1  0  0  0  0
  2 12  1  0  0  0  0
  3 14  2  0  0  0  0
  4 12  2  0  0  0  0
  4 19  1  0  0  0  0
  5 16  1  0  0  0  0
  5 19  2  0  0  0  0
  6 16  1  0  0  0  0
  6 38  1  0  0  0  0
  6 39  1  0  0  0  0
  7  8  1  0  0  0  0
  7  9  1  0  0  0  0
  7 25  1  0  0  0  0
  8 10  1  0  0  0  0
  8 26  1  0  0  0  0
  8 27  1  0  0  0  0
  9 11  1  0  0  0  0
  9 28  1  0  0  0  0
  9 29  1  0  0  0  0
 10 11  1  0  0  0  0
 10 30  1  0  0  0  0
 10 31  1  0  0  0  0
 11 32  1  0  0  0  0
 11 33  1  0  0  0  0
 12 13  1  0  0  0  0
 13 14  1  0  0  0  0
 13 16  2  0  0  0  0
 14 15  1  0  0  0  0
 15 17  2  0  0  0  0
 15 18  1  0  0  0  0
 17 20  1  0  0  0  0
 17 34  1  0  0  0  0
 18 22  2  0  0  0  0
 18 35  1  0  0  0  0
 19 36  1  0  0  0  0
 20 21  2  0  0  0  0
 20 23  1  0  0  0  0
 21 22  1  0  0  0  0
 22 37  1  0  0  0  0
 23 24  2  0  0  0  0
 23 40  1  0  0  0  0
 24 41  1  0  0  0  0
M  END
> <PUBCHEM_COMPOUND_CID>
24905196

> <PUBCHEM_CONFORMER_RMSD>
0.6

> <PUBCHEM_CONFORMER_DIVERSEORDER>
2
3
16
8
15
7
12
10
4
11
9
5
13
6
14
1

> <PUBCHEM_MMFF94_PARTIAL_CHARGES>
26
1 -0.28
12 0.11
14 0.23
15 0.05
16 0.41
17 -0.15
18 -0.15
19 0.47
2 0.31
21 0.14
22 -0.15
23 -0.15
24 -0.01
3 -0.71
34 0.15
35 0.15
36 0.15
37 0.15
38 0.4
39 0.4
4 -0.57
40 0.15
41 0.15
5 -0.62
6 -0.9
7 0.26

> <PUBCHEM_EFFECTIVE_ROTOR_COUNT>
3

> <PUBCHEM_PHARMACOPHORE_FEATURES>
11
1 1 acceptor
1 3 acceptor
1 6 cation
1 6 donor
3 2 4 12 cation
3 4 5 19 cation
5 1 20 21 23 24 rings
5 2 3 12 13 14 rings
5 7 8 9 10 11 rings
6 15 17 18 20 21 22 rings
6 4 5 12 13 16 19 rings

> <PUBCHEM_HEAVY_ATOM_COUNT>
24

> <PUBCHEM_ATOM_DEF_STEREO_COUNT>
0

> <PUBCHEM_ATOM_UDEF_STEREO_COUNT>
0

> <PUBCHEM_BOND_DEF_STEREO_COUNT>
0

> <PUBCHEM_BOND_UDEF_STEREO_COUNT>
0

> <PUBCHEM_ISOTOPIC_ATOM_COUNT>
0

> <PUBCHEM_COMPONENT_COUNT>
1

> <PUBCHEM_CACTVS_TAUTO_COUNT>
5

> <PUBCHEM_CONFORMER_ID>
017C05EC00000002

> <PUBCHEM_MMFF94_ENERGY>
52.81

> <PUBCHEM_FEATURE_SELFOVERLAP>
56.204

> <PUBCHEM_SHAPE_FINGERPRINT>
10319926 262 18270102626941499384
10411042 1 17762055845270230211
105312 117 18410011005212815557
11049842 53 18190203242527617702
11582403 64 17558799885224578780
11725454 13 17774424032474197460
12107183 9 18190729857247254930
12173636 292 18410292506222755919
12236239 1 17532082972688507078
12390115 104 18342469118557593713
12422481 6 17678725749033688488
12500047 106 18412260653621963902
12623949 98 12830078559202847408
12788726 201 17973740351919737718
12930653 34 18411699902259846694
13140716 1 17905052795924156715
13583140 156 17988637554040324686
13878862 14 17398104955747136541
13965767 371 18042400227542303212
14178000 22 18409443661681598813
14178342 30 18335704974441855822
14294032 229 18409171004985072317
14508225 48 17909536595905169719
15042514 8 18120380010620445779
15230672 131 18335987455501723670
15842332 3 17605004787102611212
16752209 62 18337101396995436291
16988056 13 16677234276925020661
1741750 31 18411420587835802017
17913733 40 18197235658895658465
17980427 26 17981313504849804303
19784866 34 18269837506646817985
20510252 161 18270967971823866835
20554085 129 18127666297946466857
21033648 29 18412543176160174008
21033650 10 18189920745495928116
21065201 7 18341057410405388582
21279426 13 18200886076339358774
212916 134 18411972542710128816
21304303 282 18196344036359057031
23557571 272 18201168744773613044
23559900 14 18272100370749295670
283562 15 18339073904324734763
3091708 16 9197188800017785211
469060 322 18336846268228808721
474 4 18123744250002365737
5265222 85 18196948880193467334
57124632 79 18049154476095511113
633830 44 17843406185299975197
7808743 9 18336554892867605820
84936 182 17983292621511427897
9849439 229 18194964046177056585
9862522 239 17895184459768165349
9981440 41 18335983056832084209

> <PUBCHEM_SHAPE_MULTIPOLES>
463.13
10.11
4.02
1.24
7.99
3.14
0.15
-9.48
-1.45
-5.97
-0.36
0.84
-0.65
0.38

> <PUBCHEM_SHAPE_SELFOVERLAP>
1045.799

> <PUBCHEM_SHAPE_VOLUME>
244.9

> <PUBCHEM_COORDINATE_TYPE>
2
5
10

$$$$
