17856673
  -OEChem-10062121553D

 25 27  0     0  0  0  0  0  0999 V2000
   -4.2787   -0.8933   -0.1299 O   0  0  0  0  0  0  0  0  0  0  0  0
   -2.2073    0.2027    0.0142 N   0  0  0  0  0  0  0  0  0  0  0  0
   -0.8881   -1.5837   -0.2299 N   0  0  0  0  0  0  0  0  0  0  0  0
   -2.1987   -1.9756   -0.2793 N   0  0  0  0  0  0  0  0  0  0  0  0
    0.1918    0.6667    0.0721 C   0  0  0  0  0  0  0  0  0  0  0  0
   -0.9410   -0.2987   -0.0534 C   0  0  0  0  0  0  0  0  0  0  0  0
    1.5947    0.2269    0.0364 C   0  0  0  0  0  0  0  0  0  0  0  0
   -0.1401    1.9635    0.2405 C   0  0  0  0  0  0  0  0  0  0  0  0
   -2.5145    1.5213    0.1842 C   0  0  0  0  0  0  0  0  0  0  0  0
   -3.0570   -0.8729   -0.1287 C   0  0  0  0  0  0  0  0  0  0  0  0
   -1.5190    2.4108    0.2962 C   0  0  0  0  0  0  0  0  0  0  0  0
    2.4583    0.7283   -0.9377 C   0  0  0  0  0  0  0  0  0  0  0  0
    2.0621   -0.6915    0.9766 C   0  0  0  0  0  0  0  0  0  0  0  0
    3.7888    0.3112   -0.9719 C   0  0  0  0  0  0  0  0  0  0  0  0
    3.3928   -1.1086    0.9424 C   0  0  0  0  0  0  0  0  0  0  0  0
    4.2560   -0.6071   -0.0318 C   0  0  0  0  0  0  0  0  0  0  0  0
    0.6178    2.7337    0.3527 H   0  0  0  0  0  0  0  0  0  0  0  0
   -3.5607    1.7969    0.2199 H   0  0  0  0  0  0  0  0  0  0  0  0
   -1.7170    3.4675    0.4317 H   0  0  0  0  0  0  0  0  0  0  0  0
    2.1120    1.4409   -1.6825 H   0  0  0  0  0  0  0  0  0  0  0  0
    1.4053   -1.0890    1.7465 H   0  0  0  0  0  0  0  0  0  0  0  0
   -2.4403   -2.9495   -0.4113 H   0  0  0  0  0  0  0  0  0  0  0  0
    4.4609    0.7004   -1.7311 H   0  0  0  0  0  0  0  0  0  0  0  0
    3.7572   -1.8227    1.6751 H   0  0  0  0  0  0  0  0  0  0  0  0
    5.2921   -0.9319   -0.0584 H   0  0  0  0  0  0  0  0  0  0  0  0
  1 10  2  0  0  0  0
  2  6  1  0  0  0  0
  2  9  1  0  0  0  0
  2 10  1  0  0  0  0
  3  4  1  0  0  0  0
  3  6  2  0  0  0  0
  4 10  1  0  0  0  0
  4 22  1  0  0  0  0
  5  6  1  0  0  0  0
  5  7  1  0  0  0  0
  5  8  2  0  0  0  0
  7 12  2  0  0  0  0
  7 13  1  0  0  0  0
  8 11  1  0  0  0  0
  8 17  1  0  0  0  0
  9 11  2  0  0  0  0
  9 18  1  0  0  0  0
 11 19  1  0  0  0  0
 12 14  1  0  0  0  0
 12 20  1  0  0  0  0
 13 15  2  0  0  0  0
 13 21  1  0  0  0  0
 14 16  2  0  0  0  0
 14 23  1  0  0  0  0
 15 16  1  0  0  0  0
 15 24  1  0  0  0  0
 16 25  1  0  0  0  0
M  END
> <PUBCHEM_COMPOUND_CID>
17856673

> <PUBCHEM_CONFORMER_RMSD>
0.6

> <PUBCHEM_CONFORMER_DIVERSEORDER>
1
2

> <PUBCHEM_MMFF94_PARTIAL_CHARGES>
25
1 -0.57
10 0.69
11 -0.15
12 -0.15
13 -0.15
14 -0.15
15 -0.15
16 -0.15
17 0.15
18 0.15
19 0.15
2 -0.23
20 0.15
21 0.15
22 0.37
23 0.15
24 0.15
25 0.15
3 -0.51
4 -0.37
5 -0.01
6 0.5
7 0.03
8 -0.15
9 -0.04

> <PUBCHEM_EFFECTIVE_ROTOR_COUNT>
1

> <PUBCHEM_PHARMACOPHORE_FEATURES>
5
1 1 acceptor
1 4 donor
5 2 3 4 6 10 rings
6 2 5 6 8 9 11 rings
6 7 12 13 14 15 16 rings

> <PUBCHEM_HEAVY_ATOM_COUNT>
16

> <PUBCHEM_ATOM_DEF_STEREO_COUNT>
0

> <PUBCHEM_ATOM_UDEF_STEREO_COUNT>
0

> <PUBCHEM_BOND_DEF_STEREO_COUNT>
0

> <PUBCHEM_BOND_UDEF_STEREO_COUNT>
0

> <PUBCHEM_ISOTOPIC_ATOM_COUNT>
0

> <PUBCHEM_COMPONENT_COUNT>
1

> <PUBCHEM_CACTVS_TAUTO_COUNT>
2

> <PUBCHEM_CONFORMER_ID>
011078A100000001

> <PUBCHEM_MMFF94_ENERGY>
51.6831

> <PUBCHEM_FEATURE_SELFOVERLAP>
25.49

> <PUBCHEM_SHAPE_FINGERPRINT>
10616163 171 18411421678926852430
11578080 2 17752172133585006620
12202030 40 17131291068526743212
12236239 1 18113620067118976902
12553582 1 18340202011380433367
13103583 49 17902832774921551299
13538477 17 18335699391116161768
13581323 91 18342735196076275082
13862211 1 18341608248656829031
14115302 16 17968663829430036086
14144814 61 18409448059812440928
15279307 12 18190181187548499906
15375462 189 18333739025981162977
15669948 3 18411981347445501782
15848700 24 18130780205091350573
16752209 62 18339066112984404227
16945 1 18342455915643392321
17804303 29 18272932730409612425
18186145 218 13767927888629614500
19049666 15 17129872621159425996
19422 9 18260268508347011442
200 152 18114178640131536442
20510252 161 18202284667107397928
20871998 184 18202560653120919069
21029758 27 18262245507753126389
21267235 1 18336274491516336666
21634736 98 18263087759361183092
232386 152 18412261744432952444
23402539 116 18201429273315783351
23463225 33 18335700499085803346
23557571 272 18131355207066214008
23559900 14 18129660782485768036
23598291 2 17968664783466377854
2748010 2 18052529173754932325
3082319 5 18113622283158649364
34934 24 18126563663566158372
427121 178 16195131602788565873
43471831 8 18337388214938051475
465052 167 18267313208528111039
474 4 17460045178724413220
5104073 3 18410854326821338016
57096353 35 18187655725472238756
6992083 37 18044101159335617892
7364860 26 18056196019016471984
77492 1 18041002800087603632
81228 2 18342188738560186257
90525 40 18337955593086670214
9709674 26 18341620282870388414

> <PUBCHEM_SHAPE_MULTIPOLES>
308.46
7.03
2.02
0.86
2.3
0.53
0.01
-2.16
-0.52
-1.62
0.12
0.67
-0.01
-0.82

> <PUBCHEM_SHAPE_SELFOVERLAP>
688.657

> <PUBCHEM_SHAPE_VOLUME>
163.2

> <PUBCHEM_COORDINATE_TYPE>
2
5
10

$$$$
