49830481
  -OEChem-10052120443D

 43 45  0     1  0  0  0  0  0999 V2000
    1.6034   -0.2805   -2.1687 O   0  0  0  0  0  0  0  0  0  0  0  0
    1.9638   -0.9711    0.0154 N   0  0  0  0  0  0  0  0  0  0  0  0
    3.1454   -3.5573    0.5159 N   0  0  0  0  0  0  0  0  0  0  0  0
   -7.0973    0.5286    0.6453 N   0  0  0  0  0  0  0  0  0  0  0  0
    3.3893   -1.1765   -0.1067 C   0  0  1  0  0  0  0  0  0  0  0  0
    4.1389    0.1102    0.1761 C   0  0  0  0  0  0  0  0  0  0  0  0
    3.8758   -2.3229    0.7943 C   0  0  0  0  0  0  0  0  0  0  0  0
    1.1523   -0.5308   -1.0368 C   0  0  0  0  0  0  0  0  0  0  0  0
   -0.2613   -0.3490   -0.7487 C   0  0  0  0  0  0  0  0  0  0  0  0
    3.6576    1.0022    1.1344 C   0  0  0  0  0  0  0  0  0  0  0  0
    5.3106    0.4020   -0.5219 C   0  0  0  0  0  0  0  0  0  0  0  0
   -2.9733   -0.0005   -0.1961 C   0  0  0  0  0  0  0  0  0  0  0  0
   -1.0103    0.5701   -1.4836 C   0  0  0  0  0  0  0  0  0  0  0  0
   -0.8683   -1.0937    0.2626 C   0  0  0  0  0  0  0  0  0  0  0  0
    4.3480    2.1859    1.3948 C   0  0  0  0  0  0  0  0  0  0  0  0
    6.0012    1.5856   -0.2616 C   0  0  0  0  0  0  0  0  0  0  0  0
   -2.3662    0.7444   -1.2073 C   0  0  0  0  0  0  0  0  0  0  0  0
   -2.2243   -0.9193    0.5389 C   0  0  0  0  0  0  0  0  0  0  0  0
   -4.3797    0.1806    0.0908 C   0  0  0  0  0  0  0  0  0  0  0  0
    5.5198    2.4776    0.6967 C   0  0  0  0  0  0  0  0  0  0  0  0
   -4.9837    1.4142   -0.1248 C   0  0  0  0  0  0  0  0  0  0  0  0
   -5.1330   -0.8794    0.5834 C   0  0  0  0  0  0  0  0  0  0  0  0
   -6.3331    1.5354    0.1657 C   0  0  0  0  0  0  0  0  0  0  0  0
   -6.4758   -0.6557    0.8421 C   0  0  0  0  0  0  0  0  0  0  0  0
    3.5793   -1.4533   -1.1529 H   0  0  0  0  0  0  0  0  0  0  0  0
    4.9484   -2.4951    0.6468 H   0  0  0  0  0  0  0  0  0  0  0  0
    3.7307   -2.0670    1.8507 H   0  0  0  0  0  0  0  0  0  0  0  0
    1.5694   -1.0715    0.9450 H   0  0  0  0  0  0  0  0  0  0  0  0
    2.7574    0.7962    1.7066 H   0  0  0  0  0  0  0  0  0  0  0  0
    5.6972   -0.2855   -1.2696 H   0  0  0  0  0  0  0  0  0  0  0  0
   -0.5561    1.1586   -2.2767 H   0  0  0  0  0  0  0  0  0  0  0  0
   -0.3281   -1.8370    0.8417 H   0  0  0  0  0  0  0  0  0  0  0  0
    3.2908   -3.8282   -0.4558 H   0  0  0  0  0  0  0  0  0  0  0  0
    3.5290   -4.3115    1.0840 H   0  0  0  0  0  0  0  0  0  0  0  0
    3.9756    2.8788    2.1436 H   0  0  0  0  0  0  0  0  0  0  0  0
    6.9141    1.8126   -0.8045 H   0  0  0  0  0  0  0  0  0  0  0  0
   -2.9158    1.4505   -1.8237 H   0  0  0  0  0  0  0  0  0  0  0  0
   -2.6489   -1.5042    1.3503 H   0  0  0  0  0  0  0  0  0  0  0  0
    6.0580    3.3987    0.9001 H   0  0  0  0  0  0  0  0  0  0  0  0
   -4.4496    2.2889   -0.4795 H   0  0  0  0  0  0  0  0  0  0  0  0
   -4.7330   -1.8741    0.7470 H   0  0  0  0  0  0  0  0  0  0  0  0
   -6.8501    2.4785    0.0219 H   0  0  0  0  0  0  0  0  0  0  0  0
   -7.1091   -1.4515    1.2204 H   0  0  0  0  0  0  0  0  0  0  0  0
  1  8  2  0  0  0  0
  2  5  1  0  0  0  0
  2  8  1  0  0  0  0
  2 28  1  0  0  0  0
  3  7  1  0  0  0  0
  3 33  1  0  0  0  0
  3 34  1  0  0  0  0
  4 23  2  0  0  0  0
  4 24  1  0  0  0  0
  5  6  1  0  0  0  0
  5  7  1  0  0  0  0
  5 25  1  0  0  0  0
  6 10  2  0  0  0  0
  6 11  1  0  0  0  0
  7 26  1  0  0  0  0
  7 27  1  0  0  0  0
  8  9  1  0  0  0  0
  9 13  2  0  0  0  0
  9 14  1  0  0  0  0
 10 15  1  0  0  0  0
 10 29  1  0  0  0  0
 11 16  2  0  0  0  0
 11 30  1  0  0  0  0
 12 17  2  0  0  0  0
 12 18  1  0  0  0  0
 12 19  1  0  0  0  0
 13 17  1  0  0  0  0
 13 31  1  0  0  0  0
 14 18  2  0  0  0  0
 14 32  1  0  0  0  0
 15 20  2  0  0  0  0
 15 35  1  0  0  0  0
 16 20  1  0  0  0  0
 16 36  1  0  0  0  0
 17 37  1  0  0  0  0
 18 38  1  0  0  0  0
 19 21  2  0  0  0  0
 19 22  1  0  0  0  0
 20 39  1  0  0  0  0
 21 23  1  0  0  0  0
 21 40  1  0  0  0  0
 22 24  2  0  0  0  0
 22 41  1  0  0  0  0
 23 42  1  0  0  0  0
 24 43  1  0  0  0  0
M  END
> <PUBCHEM_COMPOUND_CID>
49830481

> <PUBCHEM_CONFORMER_RMSD>
0.8

> <PUBCHEM_CONFORMER_DIVERSEORDER>
1
8
6
12
3
14
4
11
15
2
9
5
13
10
7

> <PUBCHEM_MMFF94_PARTIAL_CHARGES>
38
1 -0.57
10 -0.15
11 -0.15
13 -0.15
14 -0.15
15 -0.15
16 -0.15
17 -0.15
18 -0.15
2 -0.73
20 -0.15
21 -0.15
22 -0.15
23 0.16
24 0.16
28 0.37
29 0.15
3 -0.99
30 0.15
31 0.15
32 0.15
33 0.36
34 0.36
35 0.15
36 0.15
37 0.15
38 0.15
39 0.15
4 -0.62
40 0.15
41 0.15
42 0.15
43 0.15
5 0.44
6 -0.14
7 0.27
8 0.54
9 0.09

> <PUBCHEM_EFFECTIVE_ROTOR_COUNT>
6

> <PUBCHEM_PHARMACOPHORE_FEATURES>
8
1 1 acceptor
1 2 donor
1 3 cation
1 3 donor
1 4 acceptor
6 4 19 21 22 23 24 rings
6 6 10 11 15 16 20 rings
6 9 12 13 14 17 18 rings

> <PUBCHEM_HEAVY_ATOM_COUNT>
24

> <PUBCHEM_ATOM_DEF_STEREO_COUNT>
0

> <PUBCHEM_ATOM_UDEF_STEREO_COUNT>
1

> <PUBCHEM_BOND_DEF_STEREO_COUNT>
0

> <PUBCHEM_BOND_UDEF_STEREO_COUNT>
0

> <PUBCHEM_ISOTOPIC_ATOM_COUNT>
0

> <PUBCHEM_COMPONENT_COUNT>
1

> <PUBCHEM_CACTVS_TAUTO_COUNT>
2

> <PUBCHEM_CONFORMER_ID>
02F85A5100000001

> <PUBCHEM_MMFF94_ENERGY>
72.3247

> <PUBCHEM_FEATURE_SELFOVERLAP>
40.598

> <PUBCHEM_SHAPE_FINGERPRINT>
10 15 18259984907087384113
10165383 225 18261397780594323044
10670039 82 15769790030324030760
11828532 37 12966835884068707413
11991303 11 16200145534704142893
12403259 415 18114456756348844111
12596602 18 18409731738418611371
12616971 3 17988065721704385966
12670543 26 11312062041212877789
12730499 353 18408887343595720930
12788726 201 17418098676204832281
13073987 5 18335425634612088793
13533116 47 18336828585004685186
13685833 64 11386364846384426173
13878862 14 18195503957587785684
13955234 65 18337101277511968378
14251732 16 18412546548315441387
14251751 18 11602826812941477057
14341114 176 18410858750131386212
14461889 52 18114186383862990163
14565420 104 18335977679801989904
146900 427 18342736325621161930
14840074 17 17275387629319516529
14933364 13 18342179972763926577
15119646 104 12685084861367877493
15183329 4 11527957750269488309
15475509 35 16806434822336282186
17844677 252 18340492153716750281
17857418 61 13912322399935279273
1813 80 15647059235365137711
18335252 114 17203890751746481752
1979834 28 18113618993456255100
21033648 29 18268421525075948328
21130935 74 18261680277589251163
21315764 119 14261083089998230588
21641784 216 15626236688647975257
21859007 373 16371270157407381175
22061861 79 9007059067340942137
22122407 14 18060429026929456009
2215653 11 11095887081334487936
23559900 14 18041287577847069222
23569914 2 17689382284266337449
2916195 48 18411699889997001793
29717793 49 9511461121541327519
312425 54 18114185194763268665
3178227 256 18336540539825231666
3383291 50 16951140581469045395
34797466 226 17775012271564141031
3663271 9 18411422787434070995
4058900 60 16558486201213187687
4073 2 18260553367499924171
4340502 62 18260264162061855458
5104073 3 18042115471104901753
6438161 24 10735887131968645452
6697151 62 17686873061065419918

> <PUBCHEM_SHAPE_MULTIPOLES>
473.1
17.83
2.38
1.27
13.84
0.95
-0.36
-7.81
5.2
-3.9
0.85
-0.47
-0.16
0.82

> <PUBCHEM_SHAPE_SELFOVERLAP>
1026.735

> <PUBCHEM_SHAPE_VOLUME>
256.2

> <PUBCHEM_COORDINATE_TYPE>
2
5
10

$$$$
