25016188
  -OEChem-10052120443D

 47 51  0     0  0  0  0  0  0999 V2000
   -2.4573    1.5478    1.4396 Cl  0  0  0  0  0  0  0  0  0  0  0  0
    6.0537    0.6274    0.1157 S   0  0  0  0  0  0  0  0  0  0  0  0
   -7.1489    0.3090   -0.1161 O   0  0  0  0  0  0  0  0  0  0  0  0
    3.2193    2.1345    0.1599 N   0  0  0  0  0  0  0  0  0  0  0  0
   -4.3957   -0.2521   -0.0515 N   0  0  0  0  0  0  0  0  0  0  0  0
    2.0826    0.0467    0.0499 N   0  0  0  0  0  0  0  0  0  0  0  0
    0.9295   -1.9794   -0.0609 N   0  0  0  0  0  0  0  0  0  0  0  0
    3.2597   -2.0662   -0.0404 N   0  0  0  0  0  0  0  0  0  0  0  0
    1.9943    2.9308    0.1864 C   0  0  0  0  0  0  0  0  0  0  0  0
    1.2802    3.3066   -1.0788 C   0  0  0  0  0  0  0  0  0  0  0  0
    1.9829    4.3593   -0.2728 C   0  0  0  0  0  0  0  0  0  0  0  0
    3.2440    0.7291    0.0938 C   0  0  0  0  0  0  0  0  0  0  0  0
    4.4455    0.0304    0.0717 C   0  0  0  0  0  0  0  0  0  0  0  0
   -5.2742   -0.7179    1.0304 C   0  0  0  0  0  0  0  0  0  0  0  0
   -5.0667    0.0201   -1.3273 C   0  0  0  0  0  0  0  0  0  0  0  0
   -6.4845    0.2021    1.1429 C   0  0  0  0  0  0  0  0  0  0  0  0
   -6.2886    0.9004   -1.0892 C   0  0  0  0  0  0  0  0  0  0  0  0
   -3.0592   -0.6644   -0.0403 C   0  0  0  0  0  0  0  0  0  0  0  0
    4.4222   -1.3620    0.0045 C   0  0  0  0  0  0  0  0  0  0  0  0
    2.1598   -1.2953   -0.0139 C   0  0  0  0  0  0  0  0  0  0  0  0
   -2.0765    0.0794    0.6129 C   0  0  0  0  0  0  0  0  0  0  0  0
   -2.7174   -1.8449   -0.7000 C   0  0  0  0  0  0  0  0  0  0  0  0
   -0.4099   -1.5378   -0.0533 C   0  0  0  0  0  0  0  0  0  0  0  0
    5.7368   -1.9167   -0.0096 C   0  0  0  0  0  0  0  0  0  0  0  0
   -0.7518   -0.3573    0.6065 C   0  0  0  0  0  0  0  0  0  0  0  0
   -1.3926   -2.2815   -0.7064 C   0  0  0  0  0  0  0  0  0  0  0  0
    6.7128   -0.9479    0.0463 C   0  0  0  0  0  0  0  0  0  0  0  0
    1.3812    2.7042    1.0531 H   0  0  0  0  0  0  0  0  0  0  0  0
    1.7213    3.0194   -2.0252 H   0  0  0  0  0  0  0  0  0  0  0  0
    0.1972    3.2978   -1.0665 H   0  0  0  0  0  0  0  0  0  0  0  0
    1.3724    5.0628    0.2798 H   0  0  0  0  0  0  0  0  0  0  0  0
    2.8953    4.7781   -0.6792 H   0  0  0  0  0  0  0  0  0  0  0  0
    4.1243    2.5924    0.1978 H   0  0  0  0  0  0  0  0  0  0  0  0
   -4.7453   -0.7389    1.9902 H   0  0  0  0  0  0  0  0  0  0  0  0
   -5.6030   -1.7390    0.8014 H   0  0  0  0  0  0  0  0  0  0  0  0
   -5.3807   -0.9294   -1.7776 H   0  0  0  0  0  0  0  0  0  0  0  0
   -4.3878    0.5238   -2.0251 H   0  0  0  0  0  0  0  0  0  0  0  0
   -6.1954    1.2021    1.4885 H   0  0  0  0  0  0  0  0  0  0  0  0
   -7.1974   -0.2056    1.8664 H   0  0  0  0  0  0  0  0  0  0  0  0
   -6.8562    1.0106   -2.0186 H   0  0  0  0  0  0  0  0  0  0  0  0
   -5.9982    1.9044   -0.7565 H   0  0  0  0  0  0  0  0  0  0  0  0
   -3.4698   -2.4417   -1.2095 H   0  0  0  0  0  0  0  0  0  0  0  0
    1.0418   -2.9718   -0.2451 H   0  0  0  0  0  0  0  0  0  0  0  0
    5.9568   -2.9756   -0.0584 H   0  0  0  0  0  0  0  0  0  0  0  0
   -0.0173    0.2171    1.1623 H   0  0  0  0  0  0  0  0  0  0  0  0
   -1.1390   -3.2033   -1.2236 H   0  0  0  0  0  0  0  0  0  0  0  0
    7.7840   -1.0921    0.0496 H   0  0  0  0  0  0  0  0  0  0  0  0
  1 21  1  0  0  0  0
  2 13  1  0  0  0  0
  2 27  1  0  0  0  0
  3 16  1  0  0  0  0
  3 17  1  0  0  0  0
  4  9  1  0  0  0  0
  4 12  1  0  0  0  0
  4 33  1  0  0  0  0
  5 14  1  0  0  0  0
  5 15  1  0  0  0  0
  5 18  1  0  0  0  0
  6 12  2  0  0  0  0
  6 20  1  0  0  0  0
  7 20  1  0  0  0  0
  7 23  1  0  0  0  0
  7 43  1  0  0  0  0
  8 19  1  0  0  0  0
  8 20  2  0  0  0  0
  9 10  1  0  0  0  0
  9 11  1  0  0  0  0
  9 28  1  0  0  0  0
 10 11  1  0  0  0  0
 10 29  1  0  0  0  0
 10 30  1  0  0  0  0
 11 31  1  0  0  0  0
 11 32  1  0  0  0  0
 12 13  1  0  0  0  0
 13 19  2  0  0  0  0
 14 16  1  0  0  0  0
 14 34  1  0  0  0  0
 14 35  1  0  0  0  0
 15 17  1  0  0  0  0
 15 36  1  0  0  0  0
 15 37  1  0  0  0  0
 16 38  1  0  0  0  0
 16 39  1  0  0  0  0
 17 40  1  0  0  0  0
 17 41  1  0  0  0  0
 18 21  2  0  0  0  0
 18 22  1  0  0  0  0
 19 24  1  0  0  0  0
 21 25  1  0  0  0  0
 22 26  2  0  0  0  0
 22 42  1  0  0  0  0
 23 25  2  0  0  0  0
 23 26  1  0  0  0  0
 24 27  2  0  0  0  0
 24 44  1  0  0  0  0
 25 45  1  0  0  0  0
 26 46  1  0  0  0  0
 27 47  1  0  0  0  0
M  END
> <PUBCHEM_COMPOUND_CID>
25016188

> <PUBCHEM_CONFORMER_RMSD>
0.8

> <PUBCHEM_CONFORMER_DIVERSEORDER>
1
73
66
31
86
65
53
85
8
14
26
80
45
37
13
43
82
78
16
95
33
88
63
20
15
72
5
42
87
41
49
55
39
35
38
75
17
6
94
29
11
21
81
59
84
10
77
3
98
52
34
58
76
32
67
12
54
62
30
69
92
23
47
96
19
2
46
4
56
71
24
97
18
44
93
28
83
22
90
79
27
61
64
57
74
89
9
51
7
68
91
25
36
60
99
50
48
40
70

> <PUBCHEM_MMFF94_PARTIAL_CHARGES>
39
1 -0.18
10 -0.2
11 -0.2
12 0.41
13 0.04
14 0.37
15 0.37
16 0.28
17 0.28
18 0.1
19 0.26
2 -0.08
20 0.72
21 0.18
22 -0.15
23 0.1
24 -0.15
25 -0.15
26 -0.15
27 -0.11
28 0.1
29 0.1
3 -0.56
30 0.1
31 0.1
32 0.1
33 0.4
4 -0.67
42 0.15
43 0.4
44 0.15
45 0.15
46 0.15
47 0.15
5 -0.84
6 -0.62
7 -0.6
8 -0.57
9 0.07

> <PUBCHEM_EFFECTIVE_ROTOR_COUNT>
6.8

> <PUBCHEM_PHARMACOPHORE_FEATURES>
9
1 3 acceptor
1 4 donor
1 5 cation
1 7 donor
4 6 7 8 20 cation
5 2 13 19 24 27 rings
6 18 21 22 23 25 26 rings
6 3 5 14 15 16 17 rings
6 6 8 12 13 19 20 rings

> <PUBCHEM_HEAVY_ATOM_COUNT>
27

> <PUBCHEM_ATOM_DEF_STEREO_COUNT>
0

> <PUBCHEM_ATOM_UDEF_STEREO_COUNT>
0

> <PUBCHEM_BOND_DEF_STEREO_COUNT>
0

> <PUBCHEM_BOND_UDEF_STEREO_COUNT>
0

> <PUBCHEM_ISOTOPIC_ATOM_COUNT>
0

> <PUBCHEM_COMPONENT_COUNT>
1

> <PUBCHEM_CACTVS_TAUTO_COUNT>
6

> <PUBCHEM_CONFORMER_ID>
017DB77C00000001

> <PUBCHEM_MMFF94_ENERGY>
93.1089

> <PUBCHEM_FEATURE_SELFOVERLAP>
45.749

> <PUBCHEM_SHAPE_FINGERPRINT>
10074138 170 15737370607862582259
10688039 33 18040999501827267660
10763959 59 18261107474294861933
11045977 3 17967540099004015139
11421498 54 13118547525282857156
12166972 35 18272369775940022360
12236239 1 17989203750298321655
12838862 33 18340751720450691792
13402501 40 18260543407412508476
13583140 156 18113340812704195019
14068700 675 18059852852903864944
14117953 113 18342458110287168325
14170010 4 18411698798948669184
14464042 87 18131637767968063408
15183329 4 18272931609154246047
15419008 47 17749106669407188285
15420108 30 17696482784017481633
15439362 3 18119812662847463956
15483637 11 18048876295169552996
16087824 20 18338516344207129924
16993438 75 17899978235887005581
17492 89 18122625221864595446
17980427 23 18059583451253990893
18335252 114 18337942425138810869
18681886 176 18343011216138974307
19301679 30 17973995156152601378
20715895 44 18342174458389908789
21033648 29 17676476276628093141
21033650 10 15553073020061440827
21133410 38 16760853253263148473
21133410 90 17631719492253710361
21267235 1 18341339911821500986
21298829 104 18343022211371595384
21344244 181 11963666661392235024
21792961 116 18041835100758011142
221357 26 18335134267840743132
23559900 14 18270955851188683315
24771293 8 18127677431250764576
249057 3 18412825797924372255
3103668 31 18118402835521520772
3178227 256 18336558161400612787
335352 9 18412262848234454846
340366 18 18342176704214842806
350125 39 18341896289883817080
397830 11 17823994518444633195
4073 2 18041002890013613162
57724786 102 17604431945755481644
58902169 19 18130211723599880383
59755656 520 17822006523627782787
9981440 41 17402325370841764904

> <PUBCHEM_SHAPE_MULTIPOLES>
530.59
16.96
3.43
1.02
9.05
4.01
-0.02
-2.38
-0.21
-3.84
0.7
1.44
0.25
-0.29

> <PUBCHEM_SHAPE_SELFOVERLAP>
1130.19

> <PUBCHEM_SHAPE_VOLUME>
297.3

> <PUBCHEM_COORDINATE_TYPE>
2
5
10

$$$$
