25165081
  -OEChem-10052115143D

 39 42  0     0  0  0  0  0  0999 V2000
   -0.2443   -1.7735    0.2019 O   0  0  0  0  0  0  0  0  0  0  0  0
    3.8526   -0.0298   -0.3172 N   0  0  0  0  0  0  0  0  0  0  0  0
    1.0904   -2.1339    0.0618 N   0  0  0  0  0  0  0  0  0  0  0  0
   -5.6799    1.1665    0.0451 N   0  0  0  0  0  0  0  0  0  0  0  0
   -6.3020    0.1650    0.6893 N   0  0  0  0  0  0  0  0  0  0  0  0
    5.1304    0.1819   -1.0117 C   0  0  0  0  0  0  0  0  0  0  0  0
    4.0600   -0.2536    1.1205 C   0  0  0  0  0  0  0  0  0  0  0  0
    5.8791    1.3848   -0.4354 C   0  0  0  0  0  0  0  0  0  0  0  0
    4.7738    0.9348    1.7664 C   0  0  0  0  0  0  0  0  0  0  0  0
    6.0941    1.2363    1.0664 C   0  0  0  0  0  0  0  0  0  0  0  0
    3.1278   -1.1533   -0.9103 C   0  0  0  0  0  0  0  0  0  0  0  0
    1.6593   -1.1101   -0.5809 C   0  0  0  0  0  0  0  0  0  0  0  0
    0.7419   -0.0850   -0.8694 C   0  0  0  0  0  0  0  0  0  0  0  0
   -0.4395   -0.5515   -0.3565 C   0  0  0  0  0  0  0  0  0  0  0  0
   -1.7790   -0.0437   -0.2879 C   0  0  0  0  0  0  0  0  0  0  0  0
   -2.7752   -0.8106    0.3293 C   0  0  0  0  0  0  0  0  0  0  0  0
   -4.0806   -0.2947    0.3860 C   0  0  0  0  0  0  0  0  0  0  0  0
   -4.3447    0.9528   -0.1682 C   0  0  0  0  0  0  0  0  0  0  0  0
   -2.0718    1.2064   -0.8365 C   0  0  0  0  0  0  0  0  0  0  0  0
   -3.3665    1.7334   -0.7879 C   0  0  0  0  0  0  0  0  0  0  0  0
   -5.3258   -0.7221    0.8949 C   0  0  0  0  0  0  0  0  0  0  0  0
    4.9497    0.3764   -2.0760 H   0  0  0  0  0  0  0  0  0  0  0  0
    5.7629   -0.7133   -0.9458 H   0  0  0  0  0  0  0  0  0  0  0  0
    4.6442   -1.1672    1.2942 H   0  0  0  0  0  0  0  0  0  0  0  0
    3.0998   -0.3805    1.6342 H   0  0  0  0  0  0  0  0  0  0  0  0
    5.3096    2.3017   -0.6342 H   0  0  0  0  0  0  0  0  0  0  0  0
    6.8467    1.4943   -0.9382 H   0  0  0  0  0  0  0  0  0  0  0  0
    4.9575    0.7252    2.8263 H   0  0  0  0  0  0  0  0  0  0  0  0
    4.1264    1.8200    1.7229 H   0  0  0  0  0  0  0  0  0  0  0  0
    6.8034    0.4213    1.2559 H   0  0  0  0  0  0  0  0  0  0  0  0
    6.5369    2.1510    1.4756 H   0  0  0  0  0  0  0  0  0  0  0  0
    3.5692   -2.1171   -0.6237 H   0  0  0  0  0  0  0  0  0  0  0  0
    3.1892   -1.1029   -2.0064 H   0  0  0  0  0  0  0  0  0  0  0  0
    0.9240    0.8511   -1.3769 H   0  0  0  0  0  0  0  0  0  0  0  0
   -2.5774   -1.7855    0.7644 H   0  0  0  0  0  0  0  0  0  0  0  0
   -1.3020    1.8064   -1.3172 H   0  0  0  0  0  0  0  0  0  0  0  0
   -3.5961    2.7040   -1.2132 H   0  0  0  0  0  0  0  0  0  0  0  0
   -5.5609   -1.6444    1.4073 H   0  0  0  0  0  0  0  0  0  0  0  0
   -6.2272    1.9745   -0.2238 H   0  0  0  0  0  0  0  0  0  0  0  0
  1  3  1  0  0  0  0
  1 14  1  0  0  0  0
  2  6  1  0  0  0  0
  2  7  1  0  0  0  0
  2 11  1  0  0  0  0
  3 12  2  0  0  0  0
  4  5  1  0  0  0  0
  4 18  1  0  0  0  0
  4 39  1  0  0  0  0
  5 21  2  0  0  0  0
  6  8  1  0  0  0  0
  6 22  1  0  0  0  0
  6 23  1  0  0  0  0
  7  9  1  0  0  0  0
  7 24  1  0  0  0  0
  7 25  1  0  0  0  0
  8 10  1  0  0  0  0
  8 26  1  0  0  0  0
  8 27  1  0  0  0  0
  9 10  1  0  0  0  0
  9 28  1  0  0  0  0
  9 29  1  0  0  0  0
 10 30  1  0  0  0  0
 10 31  1  0  0  0  0
 11 12  1  0  0  0  0
 11 32  1  0  0  0  0
 11 33  1  0  0  0  0
 12 13  1  0  0  0  0
 13 14  2  0  0  0  0
 13 34  1  0  0  0  0
 14 15  1  0  0  0  0
 15 16  2  0  0  0  0
 15 19  1  0  0  0  0
 16 17  1  0  0  0  0
 16 35  1  0  0  0  0
 17 18  2  0  0  0  0
 17 21  1  0  0  0  0
 18 20  1  0  0  0  0
 19 20  2  0  0  0  0
 19 36  1  0  0  0  0
 20 37  1  0  0  0  0
 21 38  1  0  0  0  0
M  END
> <PUBCHEM_COMPOUND_CID>
25165081

> <PUBCHEM_CONFORMER_RMSD>
0.6

> <PUBCHEM_CONFORMER_DIVERSEORDER>
1
92
55
98
82
78
68
50
66
90
13
87
63
37
29
4
97
28
93
44
73
67
46
91
83
10
15
53
81
48
84
80
9
94
65
61
32
62
30
26
60
40
56
34
5
33
85
38
59
77
36
39
27
69
17
64
11
31
12
35
24
71
16
88
20
95
21
2
41
58
57
79
45
74
76
42
89
43
51
96
75
52
49
54
23
14
18
86
6
70
25
47
22
3
19
8
7
72

> <PUBCHEM_MMFF94_PARTIAL_CHARGES>
23
1 -0.02
11 0.45
12 0.11
13 -0.15
14 0.09
15 0.05
16 -0.15
18 -0.15
19 -0.15
2 -0.81
20 -0.15
21 0.14
3 -0.41
34 0.15
35 0.15
36 0.15
37 0.15
38 0.15
39 0.27
4 0.3
5 -0.71
6 0.27
7 0.27

> <PUBCHEM_EFFECTIVE_ROTOR_COUNT>
4.2

> <PUBCHEM_PHARMACOPHORE_FEATURES>
8
1 2 cation
1 3 acceptor
1 4 donor
1 5 acceptor
5 1 3 12 13 14 rings
5 4 5 17 18 21 rings
6 15 16 17 18 19 20 rings
6 2 6 7 8 9 10 rings

> <PUBCHEM_HEAVY_ATOM_COUNT>
21

> <PUBCHEM_ATOM_DEF_STEREO_COUNT>
0

> <PUBCHEM_ATOM_UDEF_STEREO_COUNT>
0

> <PUBCHEM_BOND_DEF_STEREO_COUNT>
0

> <PUBCHEM_BOND_UDEF_STEREO_COUNT>
0

> <PUBCHEM_ISOTOPIC_ATOM_COUNT>
0

> <PUBCHEM_COMPONENT_COUNT>
1

> <PUBCHEM_CACTVS_TAUTO_COUNT>
3

> <PUBCHEM_CONFORMER_ID>
017FFD1900000001

> <PUBCHEM_MMFF94_ENERGY>
25.6519

> <PUBCHEM_FEATURE_SELFOVERLAP>
40.688

> <PUBCHEM_SHAPE_FINGERPRINT>
10 15 18187366566746508488
10319926 262 17969490516688489730
10613725 11 13398633853040775556
10638233 991 16200433572047554553
106641 1 17458628960181040760
10670039 82 18271821077558734660
10692045 39 18266724824068468474
11128504 68 15339115749714364136
11595378 159 17603854581902292332
11646440 116 18201725071861376296
11724838 91 18188208805458931870
11796584 16 10159693599539871500
11858739 19 11241969282758805494
12236239 1 15936410039729912025
12403259 118 17603302626706446765
12403259 415 18337953394279458942
12555020 224 8934994855048821105
12596602 18 16950278512143366656
12616971 3 17417519225367029862
12670543 26 11383839259390018923
12730499 353 18060145332029730590
12838862 33 18114173147949857931
12969540 114 17703782622339750300
13288520 33 9871747988594220159
13402501 40 18413386549150073528
13533116 47 18339361856085825546
13685833 64 11314030166594151557
13914758 101 14056991707986465383
13955234 65 18059013861492698502
14211702 104 14562829758563913913
14251752 14 12463580555644054600
14341114 328 17385442133389004480
14366163 111 15339113555170919666
14528608 73 16558745728479493948
14848160 23 12324240572464170568
15183329 4 11240005554917757627
15575132 122 16415203334707413401
16079462 125 18337665331023694493
16760501 71 18264772228276255348
17834072 8 10303813176728963933
17857418 61 14923944561070092969
17980427 23 18188490301610091646
1813 80 13912604905804770438
18222031 100 11025797574861794218
18785283 64 18266178520443136001
19377110 9 17967526895747058762
193927 3 11170193112479714676
20397935 70 15213018233150447098
20645477 56 18272367576884806287
21033648 29 18271235058565515064
21130935 74 18336834091907340843
21150785 3 16415190187996882909
21307412 95 8862664645929612065
22079108 93 18342174483526716438
221357 26 16702028561058612376
22224240 67 18410576202051285043
23198884 109 15554451803405583245
23402539 116 17458346351586243159
23559900 14 17971756562365812039
249999 5 18337107852954216394
25147074 1 17314803007940438246
2838139 119 17632002105596375888
2916195 48 18342736321072928569
29717793 49 13254804547074026216
314173 85 10665225934677148582
32948 21 11887954345698883338
345986 75 14924484391827067788
34797466 226 16988850479261646189
3545911 37 18343025484489498702
4058900 60 14476419088550434565
4325135 7 18059571429882934551
44062 13 9943509826525889565
465052 167 11602822385177867368
5104073 3 18116155463628485977
5207 123 8286203863851028298
542803 24 16056881312550503223
543368 44 16343693370136600745
59682541 35 18337399339736207315
59682541 52 15841286900030193692
67856867 119 17386863857610835133
7808743 9 18264768943147967652
8988823 20 13840271407525771198
960060 61 12823294615777841684

> <PUBCHEM_SHAPE_MULTIPOLES>
406.38
16.17
1.64
1.19
2.01
0.13
-0.25
-6.74
-4.22
0.17
0.11
1.23
-0.19
1.25

> <PUBCHEM_SHAPE_SELFOVERLAP>
890.546

> <PUBCHEM_SHAPE_VOLUME>
223.5

> <PUBCHEM_COORDINATE_TYPE>
2
5
10

$$$$
