44340932
  -OEChem-10062121583D

 74 80  0     1  0  0  0  0  0999 V2000
    3.9070   -1.0223    1.0312 O   0  0  0  0  0  0  0  0  0  0  0  0
    3.9297   -1.0721   -1.8823 O   0  0  0  0  0  0  0  0  0  0  0  0
    5.8139    0.9667   -2.0918 O   0  0  0  0  0  0  0  0  0  0  0  0
    6.3551   -1.3255   -0.6056 O   0  0  0  0  0  0  0  0  0  0  0  0
    4.3783    0.1843    3.4770 O   0  0  0  0  0  0  0  0  0  0  0  0
    3.7104   -3.0107    0.2292 O   0  0  0  0  0  0  0  0  0  0  0  0
   -3.4658   -2.5398   -0.5956 O   0  0  0  0  0  0  0  0  0  0  0  0
   -4.1811    2.0451   -0.5641 O   0  0  0  0  0  0  0  0  0  0  0  0
    0.1026   -6.0728   -0.2639 O   0  0  0  0  0  0  0  0  0  0  0  0
    2.5123    4.6470    0.2774 O   0  0  0  0  0  0  0  0  0  0  0  0
   -1.8599    6.4929   -0.1846 O   0  0  0  0  0  0  0  0  0  0  0  0
   -6.6863   -2.9437    0.1981 O   0  0  0  0  0  0  0  0  0  0  0  0
   -8.3206   -0.2827    1.6379 O   0  0  0  0  0  0  0  0  0  0  0  0
    1.7058   -0.7958    0.0498 N   0  0  0  0  0  0  0  0  0  0  0  0
    1.2765    1.9529    0.0676 N   0  0  0  0  0  0  0  0  0  0  0  0
   -4.2032   -0.3071   -0.6244 N   0  0  0  0  0  0  0  0  0  0  0  0
   -5.5506   -0.5166   -0.7860 N   0  0  0  0  0  0  0  0  0  0  0  0
    3.0804   -0.1761    0.2204 C   0  0  2  0  0  0  0  0  0  0  0  0
    3.7617    0.1275   -1.1249 C   0  0  1  0  0  0  0  0  0  0  0  0
    0.4587   -0.2902   -0.0825 C   0  0  0  0  0  0  0  0  0  0  0  0
    5.1378    0.7447   -0.8589 C   0  0  1  0  0  0  0  0  0  0  0  0
    5.9846   -0.1242    0.0767 C   0  0  1  0  0  0  0  0  0  0  0  0
   -0.7020   -1.1200   -0.2376 C   0  0  0  0  0  0  0  0  0  0  0  0
    5.2087   -0.5050    1.3456 C   0  0  1  0  0  0  0  0  0  0  0  0
    1.4445   -2.1562   -0.0132 C   0  0  0  0  0  0  0  0  0  0  0  0
    0.2427    1.0929   -0.0736 C   0  0  0  0  0  0  0  0  0  0  0  0
    0.0381   -2.3895   -0.1824 C   0  0  0  0  0  0  0  0  0  0  0  0
   -2.0121   -0.6705   -0.3788 C   0  0  0  0  0  0  0  0  0  0  0  0
   -1.1160    1.5311   -0.2207 C   0  0  0  0  0  0  0  0  0  0  0  0
   -2.2268    0.7053   -0.3699 C   0  0  0  0  0  0  0  0  0  0  0  0
   -0.7982    2.9649   -0.1485 C   0  0  0  0  0  0  0  0  0  0  0  0
    5.1178    0.6352    2.3575 C   0  0  0  0  0  0  0  0  0  0  0  0
    0.6127    3.1696    0.0205 C   0  0  0  0  0  0  0  0  0  0  0  0
    2.3641   -3.2130    0.0680 C   0  0  0  0  0  0  0  0  0  0  0  0
   -3.2956   -1.3380   -0.5445 C   0  0  0  0  0  0  0  0  0  0  0  0
   -3.6529    0.9515   -0.5296 C   0  0  0  0  0  0  0  0  0  0  0  0
   -0.3872   -3.7375   -0.2647 C   0  0  0  0  0  0  0  0  0  0  0  0
    1.8922   -4.5233   -0.0184 C   0  0  0  0  0  0  0  0  0  0  0  0
    0.5381   -4.7836   -0.1824 C   0  0  0  0  0  0  0  0  0  0  0  0
   -1.6145    4.1198   -0.2149 C   0  0  0  0  0  0  0  0  0  0  0  0
    1.1664    4.4554    0.1165 C   0  0  0  0  0  0  0  0  0  0  0  0
   -1.0522    5.3972   -0.1181 C   0  0  0  0  0  0  0  0  0  0  0  0
   -6.2067   -0.5994    0.5121 C   0  0  0  0  0  0  0  0  0  0  0  0
    0.3172    5.5603    0.0451 C   0  0  0  0  0  0  0  0  0  0  0  0
   -6.0437   -2.0158    1.0637 C   0  0  0  0  0  0  0  0  0  0  0  0
   -7.6820   -0.2129    0.3679 C   0  0  0  0  0  0  0  0  0  0  0  0
    2.9395    0.6588    0.8928 H   0  0  0  0  0  0  0  0  0  0  0  0
    3.1547    0.7981   -1.7421 H   0  0  0  0  0  0  0  0  0  0  0  0
    4.9888    1.7283   -0.3969 H   0  0  0  0  0  0  0  0  0  0  0  0
    6.9206    0.3902    0.3224 H   0  0  0  0  0  0  0  0  0  0  0  0
    5.7202   -1.3414    1.8384 H   0  0  0  0  0  0  0  0  0  0  0  0
    2.2695    1.8825   -0.0012 H   0  0  0  0  0  0  0  0  0  0  0  0
    4.6157    1.5182    1.9532 H   0  0  0  0  0  0  0  0  0  0  0  0
    6.1176    0.9309    2.6918 H   0  0  0  0  0  0  0  0  0  0  0  0
   -1.4406   -3.9659   -0.3926 H   0  0  0  0  0  0  0  0  0  0  0  0
    4.4048   -0.8370   -2.6975 H   0  0  0  0  0  0  0  0  0  0  0  0
    6.6796    1.3579   -1.8844 H   0  0  0  0  0  0  0  0  0  0  0  0
    6.9296   -1.8361   -0.0101 H   0  0  0  0  0  0  0  0  0  0  0  0
    2.5887   -5.3572    0.0425 H   0  0  0  0  0  0  0  0  0  0  0  0
   -2.6875    4.0178   -0.3420 H   0  0  0  0  0  0  0  0  0  0  0  0
   -5.9164    0.2746   -1.3154 H   0  0  0  0  0  0  0  0  0  0  0  0
   -5.7601    0.0984    1.2346 H   0  0  0  0  0  0  0  0  0  0  0  0
    4.3418    0.9196    4.1122 H   0  0  0  0  0  0  0  0  0  0  0  0
    0.7280    6.5653    0.1177 H   0  0  0  0  0  0  0  0  0  0  0  0
    4.1599   -3.8725    0.2609 H   0  0  0  0  0  0  0  0  0  0  0  0
   -0.8635   -6.0741   -0.3765 H   0  0  0  0  0  0  0  0  0  0  0  0
   -6.5298   -2.0922    2.0432 H   0  0  0  0  0  0  0  0  0  0  0  0
   -5.0050   -2.3101    1.2192 H   0  0  0  0  0  0  0  0  0  0  0  0
   -7.7769    0.8151    0.0006 H   0  0  0  0  0  0  0  0  0  0  0  0
   -8.2138   -0.8753   -0.3239 H   0  0  0  0  0  0  0  0  0  0  0  0
    2.6904    5.6021    0.3217 H   0  0  0  0  0  0  0  0  0  0  0  0
   -2.7807    6.2013   -0.2989 H   0  0  0  0  0  0  0  0  0  0  0  0
   -6.5812   -3.8248    0.5958 H   0  0  0  0  0  0  0  0  0  0  0  0
   -9.2484   -0.0237    1.5049 H   0  0  0  0  0  0  0  0  0  0  0  0
  1 18  1  0  0  0  0
  1 24  1  0  0  0  0
  2 19  1  0  0  0  0
  2 56  1  0  0  0  0
  3 21  1  0  0  0  0
  3 57  1  0  0  0  0
  4 22  1  0  0  0  0
  4 58  1  0  0  0  0
  5 32  1  0  0  0  0
  5 63  1  0  0  0  0
  6 34  1  0  0  0  0
  6 65  1  0  0  0  0
  7 35  2  0  0  0  0
  8 36  2  0  0  0  0
  9 39  1  0  0  0  0
  9 66  1  0  0  0  0
 10 41  1  0  0  0  0
 10 71  1  0  0  0  0
 11 42  1  0  0  0  0
 11 72  1  0  0  0  0
 12 45  1  0  0  0  0
 12 73  1  0  0  0  0
 13 46  1  0  0  0  0
 13 74  1  0  0  0  0
 14 18  1  0  0  0  0
 14 20  1  0  0  0  0
 14 25  1  0  0  0  0
 15 26  1  0  0  0  0
 15 33  1  0  0  0  0
 15 52  1  0  0  0  0
 16 17  1  0  0  0  0
 16 35  1  0  0  0  0
 16 36  1  0  0  0  0
 17 43  1  0  0  0  0
 17 61  1  0  0  0  0
 18 19  1  0  0  0  0
 18 47  1  0  0  0  0
 19 21  1  0  0  0  0
 19 48  1  0  0  0  0
 20 23  1  0  0  0  0
 20 26  2  0  0  0  0
 21 22  1  0  0  0  0
 21 49  1  0  0  0  0
 22 24  1  0  0  0  0
 22 50  1  0  0  0  0
 23 27  1  0  0  0  0
 23 28  2  0  0  0  0
 24 32  1  0  0  0  0
 24 51  1  0  0  0  0
 25 27  2  0  0  0  0
 25 34  1  0  0  0  0
 26 29  1  0  0  0  0
 27 37  1  0  0  0  0
 28 30  1  0  0  0  0
 28 35  1  0  0  0  0
 29 30  2  0  0  0  0
 29 31  1  0  0  0  0
 30 36  1  0  0  0  0
 31 33  2  0  0  0  0
 31 40  1  0  0  0  0
 32 53  1  0  0  0  0
 32 54  1  0  0  0  0
 33 41  1  0  0  0  0
 34 38  2  0  0  0  0
 37 39  2  0  0  0  0
 37 55  1  0  0  0  0
 38 39  1  0  0  0  0
 38 59  1  0  0  0  0
 40 42  2  0  0  0  0
 40 60  1  0  0  0  0
 41 44  2  0  0  0  0
 42 44  1  0  0  0  0
 43 45  1  0  0  0  0
 43 46  1  0  0  0  0
 43 62  1  0  0  0  0
 44 64  1  0  0  0  0
 45 67  1  0  0  0  0
 45 68  1  0  0  0  0
 46 69  1  0  0  0  0
 46 70  1  0  0  0  0
M  END
> <PUBCHEM_COMPOUND_CID>
44340932

> <PUBCHEM_CONFORMER_RMSD>
1

> <PUBCHEM_CONFORMER_DIVERSEORDER>
5
1
4
11
18
15
16
7
17
14
6
10
13
12
2
9
8
3

> <PUBCHEM_MMFF94_PARTIAL_CHARGES>
60
1 -0.56
10 -0.53
11 -0.53
12 -0.68
13 -0.68
14 -0.04
15 -0.05
16 -0.11
17 -0.64
18 0.54
19 0.28
2 -0.68
20 -0.05
21 0.28
22 0.28
23 -0.01
24 0.28
25 -0.15
26 -0.05
28 0.09
29 -0.01
3 -0.68
30 0.09
32 0.28
33 -0.15
34 0.08
35 0.54
36 0.54
37 -0.15
38 -0.15
39 0.08
4 -0.68
40 -0.15
41 0.08
42 0.08
43 0.27
44 -0.15
45 0.28
46 0.28
5 -0.68
52 0.27
55 0.15
56 0.4
57 0.4
58 0.4
59 0.15
6 -0.53
60 0.15
61 0.36
63 0.4
64 0.15
65 0.45
66 0.45
7 -0.57
71 0.45
72 0.45
73 0.4
74 0.4
8 -0.57
9 -0.53

> <PUBCHEM_EFFECTIVE_ROTOR_COUNT>
7.4

> <PUBCHEM_PHARMACOPHORE_FEATURES>
30
1 1 acceptor
1 10 donor
1 11 donor
1 12 acceptor
1 12 donor
1 13 acceptor
1 13 donor
1 14 cation
1 15 cation
1 15 donor
1 17 donor
1 2 acceptor
1 2 donor
1 3 acceptor
1 3 donor
1 4 acceptor
1 4 donor
1 5 acceptor
1 5 donor
1 6 donor
1 7 acceptor
1 8 acceptor
1 9 donor
5 14 20 23 25 27 rings
5 15 26 29 31 33 rings
5 16 28 30 35 36 rings
6 1 18 19 21 22 24 rings
6 20 23 26 28 29 30 rings
6 25 27 34 37 38 39 rings
6 31 33 40 41 42 44 rings

> <PUBCHEM_HEAVY_ATOM_COUNT>
46

> <PUBCHEM_ATOM_DEF_STEREO_COUNT>
0

> <PUBCHEM_ATOM_UDEF_STEREO_COUNT>
5

> <PUBCHEM_BOND_DEF_STEREO_COUNT>
0

> <PUBCHEM_BOND_UDEF_STEREO_COUNT>
0

> <PUBCHEM_ISOTOPIC_ATOM_COUNT>
0

> <PUBCHEM_COMPONENT_COUNT>
1

> <PUBCHEM_CACTVS_TAUTO_COUNT>
949

> <PUBCHEM_CONFORMER_ID>
02A496C400000005

> <PUBCHEM_MMFF94_ENERGY>
179.6385

> <PUBCHEM_FEATURE_SELFOVERLAP>
152.788

> <PUBCHEM_SHAPE_FINGERPRINT>
10050765 1 17977947882593363630
10190108 129 18341908346210341193
102385 1 17834675998381963239
1100329 8 18267302229968892102
11227688 84 18341037524686034679
12058002 1 17414193305456022815
12758862 11 18272938246387297594
12788726 201 18261669273138947872
13140716 1 18266173022847183827
13617811 41 18410005533392754036
13911987 19 18334858333345282772
140371 6 18336542703665867725
14068700 686 18269549442678000494
14394314 77 18339642351160463996
14725015 67 18413106152478958548
14790565 3 18410296925733742228
14849402 71 18265623267756469521
14955137 171 18409732893421902485
15131766 46 14691135146421987280
15320467 1 18411133610821362508
15439362 3 18051696839021615037
15538507 32 18338241591292146036
15781502 237 18194121802941688900
15840311 113 17489586796904097865
15927050 60 17690566707069234772
16112460 7 18198914780212053881
19301679 30 18264490585979956083
19319366 153 17677040343906475786
19611394 137 18115317781544658763
21049683 271 18187936135308298253
21133410 127 17538289433199122188
21796203 349 18046658799828503251
22149856 69 18338808801905119177
22311459 1 18411138048361557199
24771293 8 18058154202070253424
24771750 20 18044104681314458781
3178227 256 18337684104388912387
469060 322 18339654351457871545
6004065 56 18337942489763974751
9961470 85 17619049643751854088
9962374 69 18265331880665367283

> <PUBCHEM_SHAPE_MULTIPOLES>
850.43
14.49
8.02
1.33
15.87
6.59
-0.85
-6.53
-3.63
0.64
0.57
-2
0
0.6

> <PUBCHEM_SHAPE_SELFOVERLAP>
1923.269

> <PUBCHEM_SHAPE_VOLUME>
442.2

> <PUBCHEM_COORDINATE_TYPE>
2
5
10

$$$$
