11407183
  -OEChem-10062121573D

 46 49  0     0  0  0  0  0  0999 V2000
   -8.2739    0.6528   -1.6673 Cl  0  0  0  0  0  0  0  0  0  0  0  0
    7.2353   -1.6217   -0.1561 O   0  0  0  0  0  0  0  0  0  0  0  0
   -8.3787   -0.5923    1.0672 O   0  0  0  0  0  0  0  0  0  0  0  0
   -1.9305   -0.1417    1.0726 O   0  0  0  0  0  0  0  0  0  0  0  0
   -0.9606    0.7952   -0.8434 N   0  0  0  0  0  0  0  0  0  0  0  0
    6.2572   -2.4135   -0.7457 N   0  0  0  0  0  0  0  0  0  0  0  0
    3.9180   -2.1079   -1.1228 N   0  0  0  0  0  0  0  0  0  0  0  0
   -3.2564    0.5758   -0.7152 N   0  0  0  0  0  0  0  0  0  0  0  0
    4.5495    0.6581    0.3144 C   0  0  0  0  0  0  0  0  0  0  0  0
    5.3268   -0.4560   -0.0346 C   0  0  0  0  0  0  0  0  0  0  0  0
    3.1382    0.6924    0.0175 C   0  0  0  0  0  0  0  0  0  0  0  0
    6.6775   -0.4546    0.2671 C   0  0  0  0  0  0  0  0  0  0  0  0
    5.1820    1.7309    0.9585 C   0  0  0  0  0  0  0  0  0  0  0  0
    2.6893    1.2125   -1.1988 C   0  0  0  0  0  0  0  0  0  0  0  0
    2.2137    0.2067    0.9457 C   0  0  0  0  0  0  0  0  0  0  0  0
    5.1295   -1.7013   -0.6619 C   0  0  0  0  0  0  0  0  0  0  0  0
    0.4044    0.7610   -0.5564 C   0  0  0  0  0  0  0  0  0  0  0  0
    7.3373    0.5915    0.9054 C   0  0  0  0  0  0  0  0  0  0  0  0
    6.5503    1.6960    1.2474 C   0  0  0  0  0  0  0  0  0  0  0  0
    1.3246    1.2469   -1.4853 C   0  0  0  0  0  0  0  0  0  0  0  0
    0.8489    0.2410    0.6593 C   0  0  0  0  0  0  0  0  0  0  0  0
   -4.5659    0.2808   -0.2676 C   0  0  0  0  0  0  0  0  0  0  0  0
   -2.0434    0.3562   -0.0430 C   0  0  0  0  0  0  0  0  0  0  0  0
   -5.6445    0.5748   -1.0854 C   0  0  0  0  0  0  0  0  0  0  0  0
   -4.7415   -0.2960    0.9794 C   0  0  0  0  0  0  0  0  0  0  0  0
   -7.1290   -0.2971    0.6098 C   0  0  0  0  0  0  0  0  0  0  0  0
   -6.9353    0.2839   -0.6435 C   0  0  0  0  0  0  0  0  0  0  0  0
   -6.0320   -0.5870    1.4213 C   0  0  0  0  0  0  0  0  0  0  0  0
   -8.8906   -1.8875    0.7615 C   0  0  0  0  0  0  0  0  0  0  0  0
    4.6110    2.6123    1.2447 H   0  0  0  0  0  0  0  0  0  0  0  0
    3.3928    1.5951   -1.9348 H   0  0  0  0  0  0  0  0  0  0  0  0
    2.5443   -0.2024    1.8979 H   0  0  0  0  0  0  0  0  0  0  0  0
    8.3973    0.5553    1.1251 H   0  0  0  0  0  0  0  0  0  0  0  0
    7.0117    2.5439    1.7480 H   0  0  0  0  0  0  0  0  0  0  0  0
    0.9923    1.6547   -2.4366 H   0  0  0  0  0  0  0  0  0  0  0  0
    0.2017   -0.1539    1.4292 H   0  0  0  0  0  0  0  0  0  0  0  0
   -1.2069    1.1883   -1.7484 H   0  0  0  0  0  0  0  0  0  0  0  0
    3.8037   -3.0115   -1.5719 H   0  0  0  0  0  0  0  0  0  0  0  0
    3.0657   -1.5649   -1.0573 H   0  0  0  0  0  0  0  0  0  0  0  0
   -3.1954    0.9981   -1.6382 H   0  0  0  0  0  0  0  0  0  0  0  0
   -5.4881    1.0276   -2.0616 H   0  0  0  0  0  0  0  0  0  0  0  0
   -3.9486   -0.5506    1.6664 H   0  0  0  0  0  0  0  0  0  0  0  0
   -6.1764   -1.0387    2.3992 H   0  0  0  0  0  0  0  0  0  0  0  0
   -8.8926   -2.0669   -0.3181 H   0  0  0  0  0  0  0  0  0  0  0  0
   -9.9200   -1.9433    1.1262 H   0  0  0  0  0  0  0  0  0  0  0  0
   -8.2991   -2.6577    1.2665 H   0  0  0  0  0  0  0  0  0  0  0  0
  1 27  1  0  0  0  0
  2  6  1  0  0  0  0
  2 12  1  0  0  0  0
  3 26  1  0  0  0  0
  3 29  1  0  0  0  0
  4 23  2  0  0  0  0
  5 17  1  0  0  0  0
  5 23  1  0  0  0  0
  5 37  1  0  0  0  0
  6 16  2  0  0  0  0
  7 16  1  0  0  0  0
  7 38  1  0  0  0  0
  7 39  1  0  0  0  0
  8 22  1  0  0  0  0
  8 23  1  0  0  0  0
  8 40  1  0  0  0  0
  9 10  2  0  0  0  0
  9 11  1  0  0  0  0
  9 13  1  0  0  0  0
 10 12  1  0  0  0  0
 10 16  1  0  0  0  0
 11 14  2  0  0  0  0
 11 15  1  0  0  0  0
 12 18  2  0  0  0  0
 13 19  2  0  0  0  0
 13 30  1  0  0  0  0
 14 20  1  0  0  0  0
 14 31  1  0  0  0  0
 15 21  2  0  0  0  0
 15 32  1  0  0  0  0
 17 20  2  0  0  0  0
 17 21  1  0  0  0  0
 18 19  1  0  0  0  0
 18 33  1  0  0  0  0
 19 34  1  0  0  0  0
 20 35  1  0  0  0  0
 21 36  1  0  0  0  0
 22 24  2  0  0  0  0
 22 25  1  0  0  0  0
 24 27  1  0  0  0  0
 24 41  1  0  0  0  0
 25 28  2  0  0  0  0
 25 42  1  0  0  0  0
 26 27  2  0  0  0  0
 26 28  1  0  0  0  0
 28 43  1  0  0  0  0
 29 44  1  0  0  0  0
 29 45  1  0  0  0  0
 29 46  1  0  0  0  0
M  END
> <PUBCHEM_COMPOUND_CID>
11407183

> <PUBCHEM_CONFORMER_RMSD>
0.8

> <PUBCHEM_CONFORMER_DIVERSEORDER>
1
13
16
12
19
7
17
18
9
14
10
20
3
4
15
6
11
2
5
8

> <PUBCHEM_MMFF94_PARTIAL_CHARGES>
40
1 -0.18
12 0.14
13 -0.15
14 -0.15
15 -0.15
16 0.37
17 0.12
18 -0.15
19 -0.15
2 -0.02
20 -0.15
21 -0.15
22 0.12
23 0.69
24 -0.15
25 -0.15
26 0.08
27 0.18
28 -0.15
29 0.28
3 -0.36
30 0.15
31 0.15
32 0.15
33 0.15
34 0.15
35 0.15
36 0.15
37 0.37
38 0.4
39 0.4
4 -0.57
40 0.37
41 0.15
42 0.15
43 0.15
5 -0.55
6 -0.41
7 -0.88
8 -0.55

> <PUBCHEM_EFFECTIVE_ROTOR_COUNT>
6

> <PUBCHEM_PHARMACOPHORE_FEATURES>
10
1 3 acceptor
1 4 acceptor
1 5 donor
1 7 donor
1 8 donor
3 6 7 16 cation
5 2 6 10 12 16 rings
6 11 14 15 17 20 21 rings
6 22 24 25 26 27 28 rings
6 9 10 12 13 18 19 rings

> <PUBCHEM_HEAVY_ATOM_COUNT>
29

> <PUBCHEM_ATOM_DEF_STEREO_COUNT>
0

> <PUBCHEM_ATOM_UDEF_STEREO_COUNT>
0

> <PUBCHEM_BOND_DEF_STEREO_COUNT>
0

> <PUBCHEM_BOND_UDEF_STEREO_COUNT>
0

> <PUBCHEM_ISOTOPIC_ATOM_COUNT>
0

> <PUBCHEM_COMPONENT_COUNT>
1

> <PUBCHEM_CACTVS_TAUTO_COUNT>
12

> <PUBCHEM_CONFORMER_ID>
00AE0F4F00000001

> <PUBCHEM_MMFF94_ENERGY>
98.6752

> <PUBCHEM_FEATURE_SELFOVERLAP>
50.894

> <PUBCHEM_SHAPE_FINGERPRINT>
10050765 1 14331689410359996241
10299344 5 17132113550236779265
10951579 204 17678741124579337661
11315181 36 18187365437813928177
11524674 6 18333732446846172131
11638347 137 18202005425455632515
11719270 70 17821726135018653186
12082328 90 18343585132251405393
12089408 11 16056879143623803617
13533116 47 17989486299697020082
13560911 43 16343989122022544979
13617811 41 16877664543862582942
13668630 136 18186522107677943823
13673619 4 17240202153613786157
13685833 64 18408888421262967550
13885169 127 18113334190170501461
14028597 1 16845299285006701291
14068700 675 16153426142840867325
14170010 4 18410855469356627292
14251764 18 16630524046695952525
14294032 229 16009863906003042749
15183329 4 15841554089317345545
15301273 46 18261107461309557613
15352257 5 18410858771970667767
15419008 47 18260819406549399781
15419008 91 17968640705706637725
15510794 2 18260545623647067083
1577012 14 15985105215296646253
15840311 113 16415473892483938728
15849732 13 18260827111624620463
16120349 18 18059565919208161484
19315958 150 18341894125942966666
20157964 124 18202562895895811120
2026 5 18260268525860080299
21150785 3 12757153493708730273
21267235 1 17458349650100027333
22956985 138 15939194974404075338
23522609 53 16916239891031396265
23569943 247 17754452348991870050
23576562 1 15286508567648209463
3004659 81 16732707159543903044
335352 9 16660364809131785736
3383291 50 17967536796332446443
3633792 109 18341327795649875425
4073 2 17916576699710885962
4340502 62 18202561792147095518
504579 68 14851605505631634355
5758199 1 13758080697098904581
59755656 215 17821728308108587459
6441014 3 17186724918854079510
9831232 110 18040719138688105766
9937071 3 18335428993693947779

> <PUBCHEM_SHAPE_MULTIPOLES>
561.14
29.09
1.69
1.39
33.46
0.74
-0.06
8
3.16
-2.24
-0.36
0.52
-0.11
3.42

> <PUBCHEM_SHAPE_SELFOVERLAP>
1233.652

> <PUBCHEM_SHAPE_VOLUME>
304.2

> <PUBCHEM_COORDINATE_TYPE>
2
5
10

$$$$
