49830598
  -OEChem-10062121543D

 49 52  0     1  0  0  0  0  0999 V2000
   -4.5525   -1.3629    0.4240 O   0  0  0  0  0  0  0  0  0  0  0  0
   -2.2110   -2.7917   -0.2580 O   0  0  0  0  0  0  0  0  0  0  0  0
   -3.3313    2.5964    1.5573 N   0  0  0  0  0  0  0  0  0  0  0  0
    0.5832   -5.0033    0.5648 N   0  0  0  0  0  0  0  0  0  0  0  0
    5.8628    2.1037   -0.0738 N   0  0  0  0  0  0  0  0  0  0  0  0
   -4.1122    0.3497   -1.2131 C   0  0  0  0  0  0  0  0  0  0  0  0
   -3.5673    1.3245   -0.2464 C   0  0  0  0  0  0  0  0  0  0  0  0
   -3.8670   -1.1208   -0.8063 C   0  0  1  0  0  0  0  0  0  0  0  0
   -2.3692    2.0789   -0.3878 C   0  0  0  0  0  0  0  0  0  0  0  0
   -2.2445    2.8686    0.7573 C   0  0  0  0  0  0  0  0  0  0  0  0
   -4.1364    1.6644    0.9593 C   0  0  0  0  0  0  0  0  0  0  0  0
   -2.3841   -1.4196   -0.5970 C   0  0  0  0  0  0  0  0  0  0  0  0
   -1.3755    2.1659   -1.3831 C   0  0  0  0  0  0  0  0  0  0  0  0
   -1.1716    3.7445    0.9576 C   0  0  0  0  0  0  0  0  0  0  0  0
   -0.2967    3.0377   -1.1964 C   0  0  0  0  0  0  0  0  0  0  0  0
   -0.1983    3.8140   -0.0434 C   0  0  0  0  0  0  0  0  0  0  0  0
   -0.9286   -3.2098   -0.0206 C   0  0  0  0  0  0  0  0  0  0  0  0
    0.1418   -2.3267   -0.1099 C   0  0  0  0  0  0  0  0  0  0  0  0
    1.4326   -2.7805    0.1378 C   0  0  0  0  0  0  0  0  0  0  0  0
   -0.6572   -4.5260    0.3172 C   0  0  0  0  0  0  0  0  0  0  0  0
    1.5984   -4.1158    0.4684 C   0  0  0  0  0  0  0  0  0  0  0  0
    2.5709   -1.8839    0.0537 C   0  0  0  0  0  0  0  0  0  0  0  0
    2.5097   -0.5312    0.1222 C   0  0  0  0  0  0  0  0  0  0  0  0
    3.6672    0.3784    0.0543 C   0  0  0  0  0  0  0  0  0  0  0  0
    4.8679   -0.0594   -0.4937 C   0  0  0  0  0  0  0  0  0  0  0  0
    3.5630    1.6777    0.5381 C   0  0  0  0  0  0  0  0  0  0  0  0
    5.9262    0.8340   -0.5340 C   0  0  0  0  0  0  0  0  0  0  0  0
    4.6797    2.4935    0.4515 C   0  0  0  0  0  0  0  0  0  0  0  0
   -3.6896    0.5195   -2.2105 H   0  0  0  0  0  0  0  0  0  0  0  0
   -5.1937    0.5166   -1.3042 H   0  0  0  0  0  0  0  0  0  0  0  0
   -4.2880   -1.8021   -1.5540 H   0  0  0  0  0  0  0  0  0  0  0  0
   -5.0421    1.3311    1.4466 H   0  0  0  0  0  0  0  0  0  0  0  0
   -2.0124   -0.8119    0.2363 H   0  0  0  0  0  0  0  0  0  0  0  0
   -1.8504   -1.1890   -1.5272 H   0  0  0  0  0  0  0  0  0  0  0  0
   -3.5086    3.0236    2.4559 H   0  0  0  0  0  0  0  0  0  0  0  0
   -1.4338    1.5669   -2.2872 H   0  0  0  0  0  0  0  0  0  0  0  0
   -1.0938    4.3487    1.8551 H   0  0  0  0  0  0  0  0  0  0  0  0
    0.4739    3.1074   -1.9596 H   0  0  0  0  0  0  0  0  0  0  0  0
    0.6492    4.4832    0.0816 H   0  0  0  0  0  0  0  0  0  0  0  0
   -5.4988   -1.2024    0.2681 H   0  0  0  0  0  0  0  0  0  0  0  0
   -0.0022   -1.2925   -0.3965 H   0  0  0  0  0  0  0  0  0  0  0  0
   -1.4542   -5.2580    0.4014 H   0  0  0  0  0  0  0  0  0  0  0  0
    2.5790   -4.5349    0.6753 H   0  0  0  0  0  0  0  0  0  0  0  0
    3.5309   -2.3841   -0.0426 H   0  0  0  0  0  0  0  0  0  0  0  0
    1.5599   -0.0247    0.2725 H   0  0  0  0  0  0  0  0  0  0  0  0
    5.0106   -1.0518   -0.9057 H   0  0  0  0  0  0  0  0  0  0  0  0
    2.6445    2.0572    0.9740 H   0  0  0  0  0  0  0  0  0  0  0  0
    6.8829    0.5436   -0.9557 H   0  0  0  0  0  0  0  0  0  0  0  0
    4.6502    3.5155    0.8147 H   0  0  0  0  0  0  0  0  0  0  0  0
  1  8  1  0  0  0  0
  1 40  1  0  0  0  0
  2 12  1  0  0  0  0
  2 17  1  0  0  0  0
  3 10  1  0  0  0  0
  3 11  1  0  0  0  0
  3 35  1  0  0  0  0
  4 20  1  0  0  0  0
  4 21  2  0  0  0  0
  5 27  2  0  0  0  0
  5 28  1  0  0  0  0
  6  7  1  0  0  0  0
  6  8  1  0  0  0  0
  6 29  1  0  0  0  0
  6 30  1  0  0  0  0
  7  9  1  0  0  0  0
  7 11  2  0  0  0  0
  8 12  1  0  0  0  0
  8 31  1  0  0  0  0
  9 10  1  0  0  0  0
  9 13  2  0  0  0  0
 10 14  2  0  0  0  0
 11 32  1  0  0  0  0
 12 33  1  0  0  0  0
 12 34  1  0  0  0  0
 13 15  1  0  0  0  0
 13 36  1  0  0  0  0
 14 16  1  0  0  0  0
 14 37  1  0  0  0  0
 15 16  2  0  0  0  0
 15 38  1  0  0  0  0
 16 39  1  0  0  0  0
 17 18  1  0  0  0  0
 17 20  2  0  0  0  0
 18 19  2  0  0  0  0
 18 41  1  0  0  0  0
 19 21  1  0  0  0  0
 19 22  1  0  0  0  0
 20 42  1  0  0  0  0
 21 43  1  0  0  0  0
 22 23  2  3  0  0  0
 22 44  1  0  0  0  0
 23 24  1  0  0  0  0
 23 45  1  0  0  0  0
 24 25  2  0  0  0  0
 24 26  1  0  0  0  0
 25 27  1  0  0  0  0
 25 46  1  0  0  0  0
 26 28  2  0  0  0  0
 26 47  1  0  0  0  0
 27 48  1  0  0  0  0
 28 49  1  0  0  0  0
M  END
> <PUBCHEM_COMPOUND_CID>
49830598

> <PUBCHEM_CONFORMER_RMSD>
1.2

> <PUBCHEM_CONFORMER_DIVERSEORDER>
1
50
97
35
5
26
7
81
15
80
19
84
47
72
68
32
33
16
74
53
73
62
13
42
89
30
18
22
58
70
82
49
51
107
52
38
44
17
4
65
9
88
105
10
14
45
25
61
90
2
39
64
29
108
75
69
99
23
60
83
85
57
104
91
41
3
56
34
106
66
77
43
11
28
20
6
76
27
63
48
31
103
59
21
71
93
40
46
92
78
24
100
94
98
96
36
95
101
102
55
37
86
12
67
8
87
54
79

> <PUBCHEM_MMFF94_PARTIAL_CHARGES>
43
1 -0.68
10 -0.15
11 -0.3
12 0.28
13 -0.15
14 -0.15
15 -0.15
16 -0.15
17 0.08
18 -0.15
19 0.03
2 -0.36
20 0.16
21 0.16
22 -0.18
23 -0.18
24 0.03
25 -0.15
26 -0.15
27 0.16
28 0.16
3 0.03
32 0.15
35 0.27
36 0.15
37 0.15
38 0.15
39 0.15
4 -0.62
40 0.4
41 0.15
42 0.15
43 0.15
44 0.15
45 0.15
46 0.15
47 0.15
48 0.15
49 0.15
5 -0.62
6 0.18
7 -0.18
8 0.28

> <PUBCHEM_EFFECTIVE_ROTOR_COUNT>
7

> <PUBCHEM_PHARMACOPHORE_FEATURES>
11
1 1 acceptor
1 1 donor
1 2 acceptor
1 3 cation
1 3 donor
1 4 acceptor
1 5 acceptor
5 3 7 9 10 11 rings
6 4 17 18 19 20 21 rings
6 5 24 25 26 27 28 rings
6 9 10 13 14 15 16 rings

> <PUBCHEM_HEAVY_ATOM_COUNT>
28

> <PUBCHEM_ATOM_DEF_STEREO_COUNT>
0

> <PUBCHEM_ATOM_UDEF_STEREO_COUNT>
1

> <PUBCHEM_BOND_DEF_STEREO_COUNT>
0

> <PUBCHEM_BOND_UDEF_STEREO_COUNT>
1

> <PUBCHEM_ISOTOPIC_ATOM_COUNT>
0

> <PUBCHEM_COMPONENT_COUNT>
1

> <PUBCHEM_CACTVS_TAUTO_COUNT>
1

> <PUBCHEM_CONFORMER_ID>
02F85AC600000001

> <PUBCHEM_MMFF94_ENERGY>
77.6452

> <PUBCHEM_FEATURE_SELFOVERLAP>
55.917

> <PUBCHEM_SHAPE_FINGERPRINT>
10006869 2 18339916031252132807
10049733 16 18120394291866831652
10305334 12 17987528008894919141
10429389 16 18129125380558137758
10454371 7 18194695976368251212
10670039 82 18410014330155455446
1100329 8 18050006889728006639
11135609 187 18337095801486668693
11513181 2 18059857220795785423
11578080 2 14763527945947294833
12978246 48 18122056507821658088
13122387 1 17834391228969884829
13402501 40 18340202007064100820
1361 2 18409731742387076369
13773456 30 17612848428083079172
138480 1 17401487044569584946
14251757 5 18192149523952532316
14765038 42 18201176389578270281
14840074 17 18113344106406261661
14932702 115 17981898750174345392
15297060 5 18343028799961846736
15320467 1 18410574028402155248
15629462 23 16915685604976238256
16992787 43 18410566272656453533
17627616 140 18264767658351372402
19611394 137 17826804938416389331
19930381 70 18194119608034436017
20764821 26 18339631270371661530
21623110 236 18339640032448148173
21795232 40 18044073856112467133
325973 47 17907578382569741436
392239 28 18413110558640682936
437795 96 17406539781630927680
469060 322 16950279645697799599
50150288 127 17059227920991009761
5081480 168 15689278016724058295
6287921 2 18120102679932968500
6371009 1 18193814004147799010

> <PUBCHEM_SHAPE_MULTIPOLES>
549.55
10.35
7.03
1.05
10.01
5.67
0.03
-6.78
0.42
-0.2
-1.4
-0.8
-0.64
-0.86

> <PUBCHEM_SHAPE_SELFOVERLAP>
1203.031

> <PUBCHEM_SHAPE_VOLUME>
295.2

> <PUBCHEM_COORDINATE_TYPE>
2
5
10

$$$$
