49831016
  -OEChem-10062121543D

 20 22  0     0  0  0  0  0  0999 V2000
    4.1233    1.5554    0.0008 Br  0  0  0  0  0  0  0  0  0  0  0  0
   -2.0577    1.5451    0.0001 N   0  0  0  0  0  0  0  0  0  0  0  0
   -3.3437    1.1088   -0.0002 N   0  0  0  0  0  0  0  0  0  0  0  0
   -1.0503   -1.8683    0.0004 C   0  0  0  0  0  0  0  0  0  0  0  0
    0.3156   -1.1540    0.0002 C   0  0  0  0  0  0  0  0  0  0  0  0
   -1.9006   -0.6450    0.0003 C   0  0  0  0  0  0  0  0  0  0  0  0
    0.2094    0.2653    0.0001 C   0  0  0  0  0  0  0  0  0  0  0  0
   -1.1865    0.5202    0.0002 C   0  0  0  0  0  0  0  0  0  0  0  0
    1.5633   -1.7515    0.0000 C   0  0  0  0  0  0  0  0  0  0  0  0
    1.3078    1.0953   -0.0004 C   0  0  0  0  0  0  0  0  0  0  0  0
   -3.2335   -0.2335   -0.0003 C   0  0  0  0  0  0  0  0  0  0  0  0
    2.6898   -0.9210   -0.0005 C   0  0  0  0  0  0  0  0  0  0  0  0
    2.5632    0.4833   -0.0007 C   0  0  0  0  0  0  0  0  0  0  0  0
   -1.1814   -2.4621   -0.9074 H   0  0  0  0  0  0  0  0  0  0  0  0
   -1.1814   -2.4619    0.9083 H   0  0  0  0  0  0  0  0  0  0  0  0
    1.6720   -2.8304    0.0001 H   0  0  0  0  0  0  0  0  0  0  0  0
    1.1966    2.1742   -0.0003 H   0  0  0  0  0  0  0  0  0  0  0  0
   -4.1345   -0.8294   -0.0006 H   0  0  0  0  0  0  0  0  0  0  0  0
   -1.8826    2.5428    0.0000 H   0  0  0  0  0  0  0  0  0  0  0  0
    3.6754   -1.3820   -0.0005 H   0  0  0  0  0  0  0  0  0  0  0  0
  1 13  1  0  0  0  0
  2  3  1  0  0  0  0
  2  8  1  0  0  0  0
  2 19  1  0  0  0  0
  3 11  2  0  0  0  0
  4  5  1  0  0  0  0
  4  6  1  0  0  0  0
  4 14  1  0  0  0  0
  4 15  1  0  0  0  0
  5  7  2  0  0  0  0
  5  9  1  0  0  0  0
  6  8  2  0  0  0  0
  6 11  1  0  0  0  0
  7  8  1  0  0  0  0
  7 10  1  0  0  0  0
  9 12  2  0  0  0  0
  9 16  1  0  0  0  0
 10 13  2  0  0  0  0
 10 17  1  0  0  0  0
 11 18  1  0  0  0  0
 12 13  1  0  0  0  0
 12 20  1  0  0  0  0
M  END
> <PUBCHEM_COMPOUND_CID>
49831016

> <PUBCHEM_CONFORMER_RMSD>
0.4

> <PUBCHEM_CONFORMER_DIVERSEORDER>
1

> <PUBCHEM_MMFF94_PARTIAL_CHARGES>
18
1 -0.11
10 -0.15
11 0.14
12 -0.15
13 0.11
16 0.15
17 0.15
18 0.15
19 0.27
2 0.3
20 0.15
3 -0.71
4 0.32
5 -0.14
6 -0.18
7 0.05
8 -0.2
9 -0.15

> <PUBCHEM_EFFECTIVE_ROTOR_COUNT>
0.2

> <PUBCHEM_PHARMACOPHORE_FEATURES>
6
1 1 hydrophobe
1 2 donor
1 3 acceptor
5 2 3 6 8 11 rings
5 4 5 6 7 8 rings
6 5 7 9 10 12 13 rings

> <PUBCHEM_HEAVY_ATOM_COUNT>
13

> <PUBCHEM_ATOM_DEF_STEREO_COUNT>
0

> <PUBCHEM_ATOM_UDEF_STEREO_COUNT>
0

> <PUBCHEM_BOND_DEF_STEREO_COUNT>
0

> <PUBCHEM_BOND_UDEF_STEREO_COUNT>
0

> <PUBCHEM_ISOTOPIC_ATOM_COUNT>
0

> <PUBCHEM_COMPONENT_COUNT>
1

> <PUBCHEM_CACTVS_TAUTO_COUNT>
2

> <PUBCHEM_CONFORMER_ID>
02F85C6800000001

> <PUBCHEM_MMFF94_ENERGY>
47.1052

> <PUBCHEM_FEATURE_SELFOVERLAP>
30.784

> <PUBCHEM_SHAPE_FINGERPRINT>
10608611 8 18409445856183319492
10967382 1 18410574002458024804
10980938 120 18410292493306140218
11132069 177 18337104670198131880
11471102 20 18411132502783116613
11543360 7 15625936607778387784
12346645 44 18409728499802357424
12932764 1 17417802967695919707
13380535 21 18411147951938878626
13380535 76 18409728495365134210
14144814 61 18410012121824827321
14325111 11 18410575071815223713
14897335 6 18411133658334982502
15219456 202 18409736157333465826
15442244 35 18123187905413233482
15536298 74 18342739598734336118
15775835 57 18413674625185082088
16945 1 18338517542180764679
18186145 218 18270123404938339252
193761 8 14951811000366135046
20510252 161 18343588451459311001
20871998 184 18200037394416329711
21501502 16 18411412921150665886
21524375 3 18337668719699779426
2334 1 18410855434374234242
23402539 116 18268137824788947223
23402655 69 18342728590786027813
23463225 33 18334852788779847210
23552423 10 18334857199273657079
23559900 14 18201163247985782732
2748010 2 18337393729664853951
5104073 3 18409450275725455203
528886 8 18411132563097229610
53812653 166 18271240625148851976
57096353 35 18341888644989593685
63268167 104 18341334400781926232
7364860 26 18342176610152862254

> <PUBCHEM_SHAPE_MULTIPOLES>
263.51
5.93
1.91
0.62
1.96
0.36
0
-2.76
0
0.26
0
0.08
0
0

> <PUBCHEM_SHAPE_SELFOVERLAP>
582.277

> <PUBCHEM_SHAPE_VOLUME>
147.5

> <PUBCHEM_COORDINATE_TYPE>
2
5
10

$$$$
