44410720
  -OEChem-10062121563D

 52 55  0     1  0  0  0  0  0999 V2000
    6.6540   -2.8573   -1.4960 Cl  0  0  0  0  0  0  0  0  0  0  0  0
    4.1349   -1.4400   -2.1092 F   0  0  0  0  0  0  0  0  0  0  0  0
   -3.9258   -3.5086    1.5276 O   0  0  0  0  0  0  0  0  0  0  0  0
   -3.4406    2.0412   -0.2548 O   0  0  0  0  0  0  0  0  0  0  0  0
   -5.7291   -0.0126   -0.0666 O   0  0  0  0  0  0  0  0  0  0  0  0
   -3.0702   -1.1589    0.1360 N   0  0  1  0  0  0  0  0  0  0  0  0
   -5.6989   -1.1589   -2.0614 N   0  0  0  0  0  0  0  0  0  0  0  0
    0.8982    3.8006    0.6026 N   0  0  0  0  0  0  0  0  0  0  0  0
    2.6831    0.2114   -0.4275 N   0  0  0  0  0  0  0  0  0  0  0  0
    2.8649    2.4415    0.2997 N   0  0  0  0  0  0  0  0  0  0  0  0
   -4.2794   -1.9006   -0.2651 C   0  0  1  0  0  0  0  0  0  0  0  0
   -2.1230   -2.0697    0.8030 C   0  0  0  0  0  0  0  0  0  0  0  0
   -2.4077   -0.5213   -1.0068 C   0  0  0  0  0  0  0  0  0  0  0  0
   -4.8853   -2.6368    0.9322 C   0  0  0  0  0  0  0  0  0  0  0  0
   -2.7922   -2.7700    1.9797 C   0  0  0  0  0  0  0  0  0  0  0  0
   -1.5354    0.6289   -0.5789 C   0  0  0  0  0  0  0  0  0  0  0  0
   -5.2960   -0.9234   -0.7681 C   0  0  0  0  0  0  0  0  0  0  0  0
   -0.1545    0.4645   -0.5382 C   0  0  0  0  0  0  0  0  0  0  0  0
   -2.0912    1.8531   -0.2239 C   0  0  0  0  0  0  0  0  0  0  0  0
    0.6692    1.5318   -0.1403 C   0  0  0  0  0  0  0  0  0  0  0  0
    0.1198    2.7730    0.2205 C   0  0  0  0  0  0  0  0  0  0  0  0
   -1.2654    2.9098    0.1707 C   0  0  0  0  0  0  0  0  0  0  0  0
    2.0563    1.4335   -0.0781 C   0  0  0  0  0  0  0  0  0  0  0  0
    2.2282    3.5790    0.6215 C   0  0  0  0  0  0  0  0  0  0  0  0
   -3.9237    3.3281    0.1252 C   0  0  0  0  0  0  0  0  0  0  0  0
    3.8711   -0.4006    0.0022 C   0  0  0  0  0  0  0  0  0  0  0  0
    4.5857   -1.2291   -0.8630 C   0  0  0  0  0  0  0  0  0  0  0  0
    4.3371   -0.1778    1.2981 C   0  0  0  0  0  0  0  0  0  0  0  0
    5.7662   -1.8348   -0.4327 C   0  0  0  0  0  0  0  0  0  0  0  0
    5.5174   -0.7838    1.7285 C   0  0  0  0  0  0  0  0  0  0  0  0
    6.2321   -1.6121    0.8632 C   0  0  0  0  0  0  0  0  0  0  0  0
   -4.0159   -2.6377   -1.0352 H   0  0  0  0  0  0  0  0  0  0  0  0
   -1.2566   -1.5225    1.1886 H   0  0  0  0  0  0  0  0  0  0  0  0
   -1.7608   -2.8279    0.0959 H   0  0  0  0  0  0  0  0  0  0  0  0
   -3.1277   -0.1044   -1.7218 H   0  0  0  0  0  0  0  0  0  0  0  0
   -1.8358   -1.2498   -1.5985 H   0  0  0  0  0  0  0  0  0  0  0  0
   -5.2681   -1.9498    1.6983 H   0  0  0  0  0  0  0  0  0  0  0  0
   -5.7327   -3.2509    0.6065 H   0  0  0  0  0  0  0  0  0  0  0  0
   -2.0948   -3.4786    2.4377 H   0  0  0  0  0  0  0  0  0  0  0  0
   -3.0994   -2.0582    2.7556 H   0  0  0  0  0  0  0  0  0  0  0  0
    0.2625   -0.5014   -0.8113 H   0  0  0  0  0  0  0  0  0  0  0  0
   -1.6504    3.8844    0.4572 H   0  0  0  0  0  0  0  0  0  0  0  0
   -5.3299   -1.9206   -2.6213 H   0  0  0  0  0  0  0  0  0  0  0  0
   -6.3891   -0.5634   -2.5069 H   0  0  0  0  0  0  0  0  0  0  0  0
    2.3150   -0.1911   -1.2852 H   0  0  0  0  0  0  0  0  0  0  0  0
    2.8498    4.4106    0.9303 H   0  0  0  0  0  0  0  0  0  0  0  0
   -5.0153    3.2978    0.0418 H   0  0  0  0  0  0  0  0  0  0  0  0
   -3.5766    4.1094   -0.5596 H   0  0  0  0  0  0  0  0  0  0  0  0
   -3.6937    3.5539    1.1720 H   0  0  0  0  0  0  0  0  0  0  0  0
    3.7919    0.4516    1.9963 H   0  0  0  0  0  0  0  0  0  0  0  0
    5.8785   -0.6131    2.7385 H   0  0  0  0  0  0  0  0  0  0  0  0
    7.1500   -2.0777    1.2128 H   0  0  0  0  0  0  0  0  0  0  0  0
  1 29  1  0  0  0  0
  2 27  1  0  0  0  0
  3 14  1  0  0  0  0
  3 15  1  0  0  0  0
  4 19  1  0  0  0  0
  4 25  1  0  0  0  0
  5 17  2  0  0  0  0
  6 11  1  0  0  0  0
  6 12  1  0  0  0  0
  6 13  1  0  0  0  0
  7 17  1  0  0  0  0
  7 43  1  0  0  0  0
  7 44  1  0  0  0  0
  8 21  1  0  0  0  0
  8 24  2  0  0  0  0
  9 23  1  0  0  0  0
  9 26  1  0  0  0  0
  9 45  1  0  0  0  0
 10 23  2  0  0  0  0
 10 24  1  0  0  0  0
 11 14  1  0  0  0  0
 11 17  1  0  0  0  0
 11 32  1  0  0  0  0
 12 15  1  0  0  0  0
 12 33  1  0  0  0  0
 12 34  1  0  0  0  0
 13 16  1  0  0  0  0
 13 35  1  0  0  0  0
 13 36  1  0  0  0  0
 14 37  1  0  0  0  0
 14 38  1  0  0  0  0
 15 39  1  0  0  0  0
 15 40  1  0  0  0  0
 16 18  2  0  0  0  0
 16 19  1  0  0  0  0
 18 20  1  0  0  0  0
 18 41  1  0  0  0  0
 19 22  2  0  0  0  0
 20 21  2  0  0  0  0
 20 23  1  0  0  0  0
 21 22  1  0  0  0  0
 22 42  1  0  0  0  0
 24 46  1  0  0  0  0
 25 47  1  0  0  0  0
 25 48  1  0  0  0  0
 25 49  1  0  0  0  0
 26 27  2  0  0  0  0
 26 28  1  0  0  0  0
 27 29  1  0  0  0  0
 28 30  2  0  0  0  0
 28 50  1  0  0  0  0
 29 31  2  0  0  0  0
 30 31  1  0  0  0  0
 30 51  1  0  0  0  0
 31 52  1  0  0  0  0
M  END
> <PUBCHEM_COMPOUND_CID>
44410720

> <PUBCHEM_CONFORMER_RMSD>
1.2

> <PUBCHEM_CONFORMER_DIVERSEORDER>
1
66
99
109
90
38
19
107
75
100
6
94
59
81
87
76
77
44
79
69
92
49
114
37
93
65
84
101
39
43
57
68
73
54
95
14
18
10
53
29
111
63
36
22
71
83
28
40
32
85
33
7
102
103
47
88
27
16
86
60
115
50
118
21
110
3
45
41
23
62
78
116
17
51
46
89
61
9
91
35
42
82
20
30
70
119
105
104
67
48
2
117
106
8
12
15
56
112
108
4
96
26
11
52
34
113
74
80
13
5
58
72
98
24
25
97
64
31
55

> <PUBCHEM_MMFF94_PARTIAL_CHARGES>
39
1 -0.18
10 -0.62
11 0.33
12 0.27
13 0.41
14 0.28
15 0.28
16 -0.14
17 0.57
18 -0.15
19 0.08
2 -0.19
21 0.31
22 -0.15
23 0.41
24 0.47
25 0.28
26 0.1
27 0.19
28 -0.15
29 0.18
3 -0.56
30 -0.15
31 -0.15
4 -0.36
41 0.15
42 0.15
43 0.37
44 0.37
45 0.4
46 0.15
5 -0.57
50 0.15
51 0.15
52 0.15
6 -0.81
7 -0.8
8 -0.62
9 -0.6

> <PUBCHEM_EFFECTIVE_ROTOR_COUNT>
7.2

> <PUBCHEM_PHARMACOPHORE_FEATURES>
12
1 3 acceptor
1 4 acceptor
1 5 acceptor
1 6 cation
1 7 donor
1 9 donor
3 8 10 24 cation
3 9 10 23 cation
6 16 18 19 20 21 22 rings
6 26 27 28 29 30 31 rings
6 3 6 11 12 14 15 rings
6 8 10 20 21 23 24 rings

> <PUBCHEM_HEAVY_ATOM_COUNT>
31

> <PUBCHEM_ATOM_DEF_STEREO_COUNT>
0

> <PUBCHEM_ATOM_UDEF_STEREO_COUNT>
1

> <PUBCHEM_BOND_DEF_STEREO_COUNT>
0

> <PUBCHEM_BOND_UDEF_STEREO_COUNT>
0

> <PUBCHEM_ISOTOPIC_ATOM_COUNT>
0

> <PUBCHEM_COMPONENT_COUNT>
1

> <PUBCHEM_CACTVS_TAUTO_COUNT>
6

> <PUBCHEM_CONFORMER_ID>
02A5A76000000001

> <PUBCHEM_MMFF94_ENERGY>
108.7628

> <PUBCHEM_FEATURE_SELFOVERLAP>
61.069

> <PUBCHEM_SHAPE_FINGERPRINT>
10050765 1 18410854377808031108
11135926 11 18051399966813794028
117089 54 18340780239081627286
11796584 16 17749936881883894187
12107183 9 18271820003657993033
12422481 6 17704077291345322071
12760667 363 18411416211464717487
13140716 1 18413386527480285584
1361 87 18187375366966277842
13782708 43 17970346130357301771
14866123 147 18336549318310603689
15042514 8 18341049610170331149
15351339 4 18042957684533493739
15361156 5 18338238266311673735
15392192 29 18267885929125546142
15927050 60 17907573632636663997
17138139 8 17749107790709988346
17492 89 18340768238187958924
17627616 140 17827352185942320259
17686467 74 18410285888780556312
17909252 39 18267031724976965760
17980427 23 12391215141411000576
19315092 285 16126100126674710023
19611394 137 18411691103110846656
20403669 9 18411135840241997222
20567600 70 18262230131944072706
21033648 29 17345169169810139458
21279426 13 18261662753921566981
21703447 108 18338225085358105880
23559900 14 18188766283619048493
24893992 56 18334011715042459955
25025965 108 17771601487643273366
3004659 81 18040718078311043142
3383291 50 18410287017545422915
3421961 26 18268147733178382504
4073 2 18339924802070917930
437815 12 18411416219732892167
50009960 94 17900231368648700754
508706 21 18336552624771354526
5104073 3 18343864441599819825
5486654 36 18408325475288334000
613672 6 18410848885045499914
6371380 46 18334005074295241109
6695519 79 17261043636720204529
6823239 73 18262508295131778778
9709674 26 18337669849234305101

> <PUBCHEM_SHAPE_MULTIPOLES>
590.05
15.42
4.77
1.48
10.59
2.47
-0.01
-14.95
-1.96
-2.27
1.33
0.49
-1.31
2.34

> <PUBCHEM_SHAPE_SELFOVERLAP>
1277.211

> <PUBCHEM_SHAPE_VOLUME>
323.7

> <PUBCHEM_COORDINATE_TYPE>
2
5
10

$$$$
