49830447
  -OEChem-10062121553D

 34 36  0     0  0  0  0  0  0999 V2000
    2.0329    2.0585   -0.1343 N   0  0  0  0  0  0  0  0  0  0  0  0
    1.9374   -2.5873    0.1629 N   0  0  0  0  0  0  0  0  0  0  0  0
    3.2347   -2.2386    0.1393 N   0  0  0  0  0  0  0  0  0  0  0  0
    4.2842   -0.0967    0.0009 N   0  0  0  0  0  0  0  0  0  0  0  0
   -5.1342    0.1503   -0.0028 N   0  0  0  0  0  0  0  0  0  0  0  0
    1.8774   -0.3996    0.0234 C   0  0  0  0  0  0  0  0  0  0  0  0
    1.2790    0.8689   -0.0569 C   0  0  0  0  0  0  0  0  0  0  0  0
    1.0709   -1.5298    0.0964 C   0  0  0  0  0  0  0  0  0  0  0  0
   -0.9054   -0.2013    0.0138 C   0  0  0  0  0  0  0  0  0  0  0  0
   -0.1192    0.9499   -0.0605 C   0  0  0  0  0  0  0  0  0  0  0  0
   -0.3244   -1.4712    0.0942 C   0  0  0  0  0  0  0  0  0  0  0  0
    3.1942   -0.9069    0.0542 C   0  0  0  0  0  0  0  0  0  0  0  0
   -2.3485   -0.0817    0.0078 C   0  0  0  0  0  0  0  0  0  0  0  0
    2.4303    2.5930   -1.4216 C   0  0  0  0  0  0  0  0  0  0  0  0
    2.4266    2.7576    1.0727 C   0  0  0  0  0  0  0  0  0  0  0  0
   -3.1315   -1.0978   -0.5288 C   0  0  0  0  0  0  0  0  0  0  0  0
   -2.9567    1.0502    0.5392 C   0  0  0  0  0  0  0  0  0  0  0  0
   -4.5074   -0.9347   -0.5102 C   0  0  0  0  0  0  0  0  0  0  0  0
   -4.3403    1.1171    0.5102 C   0  0  0  0  0  0  0  0  0  0  0  0
   -0.5644    1.9384   -0.1558 H   0  0  0  0  0  0  0  0  0  0  0  0
   -0.8964   -2.3882    0.1824 H   0  0  0  0  0  0  0  0  0  0  0  0
    1.7082   -3.5713    0.2260 H   0  0  0  0  0  0  0  0  0  0  0  0
    2.7965    1.7989   -2.0816 H   0  0  0  0  0  0  0  0  0  0  0  0
    1.5775    3.0782   -1.9079 H   0  0  0  0  0  0  0  0  0  0  0  0
    3.2321    3.3329   -1.3279 H   0  0  0  0  0  0  0  0  0  0  0  0
    1.5418    3.0809    1.6316 H   0  0  0  0  0  0  0  0  0  0  0  0
    3.0243    2.1085    1.7212 H   0  0  0  0  0  0  0  0  0  0  0  0
    3.0226    3.6502    0.8560 H   0  0  0  0  0  0  0  0  0  0  0  0
   -2.7227   -1.9927   -0.9851 H   0  0  0  0  0  0  0  0  0  0  0  0
   -2.4100    1.8649    1.0012 H   0  0  0  0  0  0  0  0  0  0  0  0
    5.2280   -0.4700    0.0245 H   0  0  0  0  0  0  0  0  0  0  0  0
    4.2243    0.9138   -0.0690 H   0  0  0  0  0  0  0  0  0  0  0  0
   -5.1627   -1.6947   -0.9229 H   0  0  0  0  0  0  0  0  0  0  0  0
   -4.8640    1.9750    0.9189 H   0  0  0  0  0  0  0  0  0  0  0  0
  1  7  1  0  0  0  0
  1 14  1  0  0  0  0
  1 15  1  0  0  0  0
  2  3  1  0  0  0  0
  2  8  1  0  0  0  0
  2 22  1  0  0  0  0
  3 12  2  0  0  0  0
  4 12  1  0  0  0  0
  4 31  1  0  0  0  0
  4 32  1  0  0  0  0
  5 18  2  0  0  0  0
  5 19  1  0  0  0  0
  6  7  1  0  0  0  0
  6  8  2  0  0  0  0
  6 12  1  0  0  0  0
  7 10  2  0  0  0  0
  8 11  1  0  0  0  0
  9 10  1  0  0  0  0
  9 11  2  0  0  0  0
  9 13  1  0  0  0  0
 10 20  1  0  0  0  0
 11 21  1  0  0  0  0
 13 16  2  0  0  0  0
 13 17  1  0  0  0  0
 14 23  1  0  0  0  0
 14 24  1  0  0  0  0
 14 25  1  0  0  0  0
 15 26  1  0  0  0  0
 15 27  1  0  0  0  0
 15 28  1  0  0  0  0
 16 18  1  0  0  0  0
 16 29  1  0  0  0  0
 17 19  2  0  0  0  0
 17 30  1  0  0  0  0
 18 33  1  0  0  0  0
 19 34  1  0  0  0  0
M  END
> <PUBCHEM_COMPOUND_CID>
49830447

> <PUBCHEM_CONFORMER_RMSD>
0.6

> <PUBCHEM_CONFORMER_DIVERSEORDER>
1

> <PUBCHEM_MMFF94_PARTIAL_CHARGES>
25
1 -0.84
10 -0.15
11 -0.15
12 0.37
14 0.37
15 0.37
16 -0.15
17 -0.15
18 0.16
19 0.16
2 0.3
20 0.15
21 0.15
22 0.27
29 0.15
3 -0.71
30 0.15
31 0.4
32 0.4
33 0.15
34 0.15
4 -0.88
5 -0.62
7 0.1
8 -0.15

> <PUBCHEM_EFFECTIVE_ROTOR_COUNT>
2

> <PUBCHEM_PHARMACOPHORE_FEATURES>
8
1 1 cation
1 2 donor
1 4 donor
1 5 acceptor
3 3 4 12 cation
5 2 3 6 8 12 rings
6 5 13 16 17 18 19 rings
6 6 7 8 9 10 11 rings

> <PUBCHEM_HEAVY_ATOM_COUNT>
19

> <PUBCHEM_ATOM_DEF_STEREO_COUNT>
0

> <PUBCHEM_ATOM_UDEF_STEREO_COUNT>
0

> <PUBCHEM_BOND_DEF_STEREO_COUNT>
0

> <PUBCHEM_BOND_UDEF_STEREO_COUNT>
0

> <PUBCHEM_ISOTOPIC_ATOM_COUNT>
0

> <PUBCHEM_COMPONENT_COUNT>
1

> <PUBCHEM_CACTVS_TAUTO_COUNT>
10

> <PUBCHEM_CONFORMER_ID>
02F85A2F00000001

> <PUBCHEM_MMFF94_ENERGY>
74.244

> <PUBCHEM_FEATURE_SELFOVERLAP>
40.687

> <PUBCHEM_SHAPE_FINGERPRINT>
10616163 171 18271806869469374631
10967382 1 18410574010968740706
11471102 20 18408602539386261998
11806522 49 18411417297706334354
12107183 9 17765720122714618777
12236239 1 18131632262479145019
12251169 10 18341613677189113679
13140716 1 18264483061007238938
14251717 144 18409446990128395758
14790565 3 18337398248614722628
15196674 1 18339642235344325907
15442244 35 18268712714635322137
15536298 74 18343300396360561417
1601671 61 18411419467128828182
16945 1 18334867108132357170
17134986 127 17900272089238564308
17492 89 18341611538407066743
1813 80 18197227940333317374
18186145 218 18040146323605768163
18681886 176 18060412525913075642
19050596 39 18342459253318050705
200 152 18273205388393405823
20559304 39 18342458127504083560
20612939 158 18334297586583613205
20645477 70 18407757054021279079
20671657 1 18341050812692056572
21267235 1 18340776944282145439
21501502 16 18413109485262401111
221490 88 18336272331184872627
2255824 54 18335141998686832758
22854114 111 18411420643754941753
2334 1 17976824508195635338
23366157 5 18186238450414774130
23402539 116 18268139860619685166
23557571 272 15051460366625523289
23558518 356 17901098934793823874
23559900 14 18341887476948704691
2748010 2 18047482402514648674
3071541 37 18335144249286625788
312423 11 18271537454823354731
350125 39 18337956804145894413
3886686 26 16242899696795894026
4409770 3 17107335785043046364
474 4 18188208826680800909
5104073 3 18411703205927929019
543358 83 18339367374458761681
57096353 35 18199744916202379173
5895379 119 16486152607633310697
633830 44 17821725048961431121
67856867 119 18342166817273863209
7364860 26 18341891913581161144
81228 2 17617113408016943410
84936 182 18201155584587883400
9709674 26 18412268333098128255
9971528 1 18342454794941803634
9981440 41 17835229421971458688

> <PUBCHEM_SHAPE_MULTIPOLES>
366.11
8.47
2.73
0.84
8.04
0.59
0.1
0.25
0.11
-3.1
-0.04
-0.23
0.47
-0.69

> <PUBCHEM_SHAPE_SELFOVERLAP>
810.138

> <PUBCHEM_SHAPE_VOLUME>
197.7

> <PUBCHEM_COORDINATE_TYPE>
2
5
10

$$$$
