49830591
  -OEChem-10062121533D

 48 50  0     0  0  0  0  0  0999 V2000
   -8.0267    0.9816   -1.8454 F   0  0  0  0  0  0  0  0  0  0  0  0
   -9.0262    1.1782    0.0755 F   0  0  0  0  0  0  0  0  0  0  0  0
   -8.4919   -0.7886   -0.6819 F   0  0  0  0  0  0  0  0  0  0  0  0
    4.3329   -2.4306   -0.0799 O   0  0  0  0  0  0  0  0  0  0  0  0
   -1.5526   -0.0268    1.2335 O   0  0  0  0  0  0  0  0  0  0  0  0
    4.9299    2.3790   -1.5673 O   0  0  0  0  0  0  0  0  0  0  0  0
   -3.2470   -0.5795   -0.2873 N   0  0  0  0  0  0  0  0  0  0  0  0
   -1.1030   -1.3679   -0.6289 N   0  0  0  0  0  0  0  0  0  0  0  0
    6.8494    0.7606    0.8984 N   0  0  0  0  0  0  0  0  0  0  0  0
    6.6958    3.1578   -0.2820 N   0  0  0  0  0  0  0  0  0  0  0  0
   -4.3681    0.0621    0.2406 C   0  0  0  0  0  0  0  0  0  0  0  0
   -6.7200    0.6025    0.1221 C   0  0  0  0  0  0  0  0  0  0  0  0
    0.2784   -1.6395   -0.4889 C   0  0  0  0  0  0  0  0  0  0  0  0
   -5.5998   -0.0392   -0.4063 C   0  0  0  0  0  0  0  0  0  0  0  0
    3.0032   -2.1714   -0.2132 C   0  0  0  0  0  0  0  0  0  0  0  0
   -4.2565    0.8051    1.4159 C   0  0  0  0  0  0  0  0  0  0  0  0
    0.9335   -2.4312   -1.4323 C   0  0  0  0  0  0  0  0  0  0  0  0
    0.9858   -1.1139    0.5925 C   0  0  0  0  0  0  0  0  0  0  0  0
   -6.6084    1.3455    1.2974 C   0  0  0  0  0  0  0  0  0  0  0  0
    2.2959   -2.6970   -1.2946 C   0  0  0  0  0  0  0  0  0  0  0  0
    2.3481   -1.3800    0.7303 C   0  0  0  0  0  0  0  0  0  0  0  0
   -5.3768    1.4466    1.9445 C   0  0  0  0  0  0  0  0  0  0  0  0
   -1.9224   -0.5993    0.2133 C   0  0  0  0  0  0  0  0  0  0  0  0
   -8.0367    0.4943   -0.5694 C   0  0  0  0  0  0  0  0  0  0  0  0
    5.1654   -1.3728    0.2451 C   0  0  0  0  0  0  0  0  0  0  0  0
    5.0320   -0.1526   -0.4084 C   0  0  0  0  0  0  0  0  0  0  0  0
    5.8909    0.8733   -0.0483 C   0  0  0  0  0  0  0  0  0  0  0  0
    6.1399   -1.5274    1.2248 C   0  0  0  0  0  0  0  0  0  0  0  0
    6.9492   -0.4400    1.5120 C   0  0  0  0  0  0  0  0  0  0  0  0
    5.7949    2.1693   -0.6974 C   0  0  0  0  0  0  0  0  0  0  0  0
    6.7109    4.5015   -0.8144 C   0  0  0  0  0  0  0  0  0  0  0  0
   -5.6915   -0.6176   -1.3230 H   0  0  0  0  0  0  0  0  0  0  0  0
   -3.3409    0.9322    1.9754 H   0  0  0  0  0  0  0  0  0  0  0  0
   -3.4061   -1.1015   -1.1455 H   0  0  0  0  0  0  0  0  0  0  0  0
    0.3942   -2.8464   -2.2798 H   0  0  0  0  0  0  0  0  0  0  0  0
    0.5511   -0.4979    1.3664 H   0  0  0  0  0  0  0  0  0  0  0  0
   -7.4685    1.8529    1.7255 H   0  0  0  0  0  0  0  0  0  0  0  0
   -1.5482   -1.7851   -1.4424 H   0  0  0  0  0  0  0  0  0  0  0  0
    2.8010   -3.3136   -2.0330 H   0  0  0  0  0  0  0  0  0  0  0  0
    2.8699   -0.9771    1.5946 H   0  0  0  0  0  0  0  0  0  0  0  0
   -5.2912    2.0253    2.8597 H   0  0  0  0  0  0  0  0  0  0  0  0
    4.2939   -0.0145   -1.1920 H   0  0  0  0  0  0  0  0  0  0  0  0
    6.2661   -2.4675    1.7503 H   0  0  0  0  0  0  0  0  0  0  0  0
    7.7244   -0.5088    2.2680 H   0  0  0  0  0  0  0  0  0  0  0  0
    7.3921    2.9212    0.4189 H   0  0  0  0  0  0  0  0  0  0  0  0
    5.7254    4.7773   -1.1972 H   0  0  0  0  0  0  0  0  0  0  0  0
    7.0077    5.1860   -0.0163 H   0  0  0  0  0  0  0  0  0  0  0  0
    7.4444    4.5407   -1.6234 H   0  0  0  0  0  0  0  0  0  0  0  0
  1 24  1  0  0  0  0
  2 24  1  0  0  0  0
  3 24  1  0  0  0  0
  4 15  1  0  0  0  0
  4 25  1  0  0  0  0
  5 23  2  0  0  0  0
  6 30  2  0  0  0  0
  7 11  1  0  0  0  0
  7 23  1  0  0  0  0
  7 34  1  0  0  0  0
  8 13  1  0  0  0  0
  8 23  1  0  0  0  0
  8 38  1  0  0  0  0
  9 27  2  0  0  0  0
  9 29  1  0  0  0  0
 10 30  1  0  0  0  0
 10 31  1  0  0  0  0
 10 45  1  0  0  0  0
 11 14  1  0  0  0  0
 11 16  2  0  0  0  0
 12 14  2  0  0  0  0
 12 19  1  0  0  0  0
 12 24  1  0  0  0  0
 13 17  2  0  0  0  0
 13 18  1  0  0  0  0
 14 32  1  0  0  0  0
 15 20  2  0  0  0  0
 15 21  1  0  0  0  0
 16 22  1  0  0  0  0
 16 33  1  0  0  0  0
 17 20  1  0  0  0  0
 17 35  1  0  0  0  0
 18 21  2  0  0  0  0
 18 36  1  0  0  0  0
 19 22  2  0  0  0  0
 19 37  1  0  0  0  0
 20 39  1  0  0  0  0
 21 40  1  0  0  0  0
 22 41  1  0  0  0  0
 25 26  2  0  0  0  0
 25 28  1  0  0  0  0
 26 27  1  0  0  0  0
 26 42  1  0  0  0  0
 27 30  1  0  0  0  0
 28 29  2  0  0  0  0
 28 43  1  0  0  0  0
 29 44  1  0  0  0  0
 31 46  1  0  0  0  0
 31 47  1  0  0  0  0
 31 48  1  0  0  0  0
M  END
> <PUBCHEM_COMPOUND_CID>
49830591

> <PUBCHEM_CONFORMER_RMSD>
1

> <PUBCHEM_CONFORMER_DIVERSEORDER>
1
125
121
237
25
189
37
166
11
233
152
232
229
199
194
227
240
136
72
142
182
202
149
198
173
144
31
68
205
241
4
218
178
109
107
161
151
156
73
79
200
193
89
40
131
234
157
188
88
143
21
180
62
10
54
61
184
60
14
92
42
221
119
242
35
95
63
147
226
230
196
69
206
185
228
5
122
48
165
192
134
39
124
8
145
191
238
108
148
216
106
53
140
138
153
65
174
187
219
36
190
207
57
71
90
77
155
23
70
171
28
154
211
6
44
236
186
66
239
203
114
220
120
52
159
117
45
150
16
183
139
112
104
67
213
19
217
46
212
55
235
80
168
209
29
244
146
243
111
215
49
38
137
222
41
32
116
204
197
56
132
170
103
128
176
129
47
231
18
172
13
210
97
81
76
223
135
167
164
100
195
208
26
177
179
85
74
64
123
86
9
225
3
98
101
141
33
133
84
94
96
175
127
20
15
118
102
50
181
169
43
162
160
22
78
224
2
99
24
105
201
91
113
17
115
34
93
214
82
163
7
75
158
87
27
30
59
51
12
126
130
110
83
58

> <PUBCHEM_MMFF94_PARTIAL_CHARGES>
45
1 -0.34
10 -0.73
11 0.12
12 -0.14
13 0.12
14 -0.15
15 0.08
16 -0.15
17 -0.15
18 -0.15
19 -0.15
2 -0.34
20 -0.15
21 -0.15
22 -0.15
23 0.69
24 1.16
25 0.08
26 -0.15
27 0.4
28 -0.15
29 0.16
3 -0.34
30 0.54
31 0.3
32 0.15
33 0.15
34 0.37
35 0.15
36 0.15
37 0.15
38 0.37
39 0.15
4 -0.17
40 0.15
41 0.15
42 0.15
43 0.15
44 0.15
45 0.37
5 -0.57
6 -0.57
7 -0.55
8 -0.55
9 -0.62

> <PUBCHEM_EFFECTIVE_ROTOR_COUNT>
9

> <PUBCHEM_PHARMACOPHORE_FEATURES>
10
1 10 donor
1 4 acceptor
1 5 acceptor
1 6 acceptor
1 7 donor
1 8 donor
1 9 acceptor
6 11 12 14 16 19 22 rings
6 13 15 17 18 20 21 rings
6 9 25 26 27 28 29 rings

> <PUBCHEM_HEAVY_ATOM_COUNT>
31

> <PUBCHEM_ATOM_DEF_STEREO_COUNT>
0

> <PUBCHEM_ATOM_UDEF_STEREO_COUNT>
0

> <PUBCHEM_BOND_DEF_STEREO_COUNT>
0

> <PUBCHEM_BOND_UDEF_STEREO_COUNT>
0

> <PUBCHEM_ISOTOPIC_ATOM_COUNT>
0

> <PUBCHEM_COMPONENT_COUNT>
1

> <PUBCHEM_CACTVS_TAUTO_COUNT>
6

> <PUBCHEM_CONFORMER_ID>
02F85ABF00000001

> <PUBCHEM_MMFF94_ENERGY>
92.031

> <PUBCHEM_FEATURE_SELFOVERLAP>
50.797

> <PUBCHEM_SHAPE_FINGERPRINT>
10 15 17458348532786064182
10533779 1 18267581498261730288
10595046 47 17560237999658996843
10673678 19 18342184396865097526
10906281 52 17988659466631549651
11146346 142 17843106267533845836
11315181 36 18130785626310749435
11409948 35 10159710075387814021
11505856 67 17033632712521461318
11578821 258 18411699843043531765
117089 54 8429223951938247600
1200032 147 18115028641063855816
12522641 24 17531237315414089586
12539765 74 17916876725110609543
12888983 3 17749654217508153541
13782708 43 9367344799683991155
14117953 113 18272097098211355028
14142895 15 18411699932988924975
14429380 56 18408316683621849157
15131766 46 18265327494738568572
15183329 4 17846786216887103697
155225 6 18191593158675437532
15840311 113 18408605859944459062
16096371 109 18114187385086489162
17686467 74 18040718096113060037
18335252 114 18342181051465161470
20105231 36 14692567728769235215
20721686 146 17702092777408772056
20771845 171 17560808693048160886
21049683 271 17560793334782764777
21150785 3 16988556892909800739
21344244 181 12247680478474317036
21792934 111 16877941612376804695
22122407 14 18336276703809486800
22224240 67 18186800253886987843
23522609 53 17416991455722631281
2748736 6 18272090500276333936
33532 11 9583515413166194725
3418910 222 17917438618808057257
397638 26 16008751303810417129
397830 11 17895490218263218347
4073 2 18272653420709225543
4169191 19 18412269436820028537
4258327 124 18343305902893893175
44880568 143 18197783207239059797
45377200 153 13398045649423707013
4625314 4 18410573963956884863
5104073 3 17895192277236586482
54583773 228 18269272525701139847
57634706 306 18187642535147929819
5951187 136 18129676321947133500
60111433 81 17843393232201656184
6636735 143 16950569929832016665
70634741 139 18337392742967718179

> <PUBCHEM_SHAPE_MULTIPOLES>
578.61
28.29
3.4
1.45
36.61
2.85
-0.15
19.13
0.34
-9.51
1.44
0.38
0.23
-2.92

> <PUBCHEM_SHAPE_SELFOVERLAP>
1254.125

> <PUBCHEM_SHAPE_VOLUME>
314.4

> <PUBCHEM_COORDINATE_TYPE>
2
5
10

$$$$
