10207821
  -OEChem-10052115143D

 70 75  0     0  0  0  0  0  0999 V2000
    1.9826   -3.0696   -1.1207 O   0  0  0  0  0  0  0  0  0  0  0  0
    2.9467    0.9487    2.1496 O   0  0  0  0  0  0  0  0  0  0  0  0
   -5.0700   -0.8329   -1.2722 O   0  0  0  0  0  0  0  0  0  0  0  0
   -3.8477    3.4125   -0.0395 O   0  0  0  0  0  0  0  0  0  0  0  0
   -0.9405   -2.7413   -1.1837 N   0  0  0  0  0  0  0  0  0  0  0  0
    0.3154    2.2483    1.7072 N   0  0  0  0  0  0  0  0  0  0  0  0
    3.9755    0.0232   -0.3608 N   0  0  0  0  0  0  0  0  0  0  0  0
   -4.8307    1.4209   -0.7390 N   0  0  0  0  0  0  0  0  0  0  0  0
   -2.2255   -1.0910   -0.4416 C   0  0  0  0  0  0  0  0  0  0  0  0
   -1.3951    1.7885    0.3702 C   0  0  0  0  0  0  0  0  0  0  0  0
   -3.0139    0.0850   -0.4359 C   0  0  0  0  0  0  0  0  0  0  0  0
   -2.6578    1.3269   -0.0732 C   0  0  0  0  0  0  0  0  0  0  0  0
   -1.8054   -1.8612    0.6806 C   0  0  0  0  0  0  0  0  0  0  0  0
   -0.3350    2.2997   -0.4311 C   0  0  0  0  0  0  0  0  0  0  0  0
   -1.0020   -2.8972    0.1878 C   0  0  0  0  0  0  0  0  0  0  0  0
    0.7245    2.5988    0.4347 C   0  0  0  0  0  0  0  0  0  0  0  0
   -1.6999   -1.6677   -1.5748 C   0  0  0  0  0  0  0  0  0  0  0  0
   -0.9765    1.7868    1.6803 C   0  0  0  0  0  0  0  0  0  0  0  0
   -0.1496   -3.5499   -2.1042 C   0  0  0  0  0  0  0  0  0  0  0  0
    1.1276    2.3042    2.9173 C   0  0  0  0  0  0  0  0  0  0  0  0
   -4.4266    0.1235   -0.8752 C   0  0  0  0  0  0  0  0  0  0  0  0
   -3.8255    2.2148   -0.2657 C   0  0  0  0  0  0  0  0  0  0  0  0
    1.2350   -2.9504   -2.3293 C   0  0  0  0  0  0  0  0  0  0  0  0
    1.9143    1.0139    3.1297 C   0  0  0  0  0  0  0  0  0  0  0  0
    2.8519   -0.8211   -0.7818 C   0  0  0  0  0  0  0  0  0  0  0  0
    4.5748   -0.3328    0.9356 C   0  0  0  0  0  0  0  0  0  0  0  0
   -2.0256   -1.7751    2.0726 C   0  0  0  0  0  0  0  0  0  0  0  0
   -0.1705    2.5292   -1.8142 C   0  0  0  0  0  0  0  0  0  0  0  0
   -0.4098   -3.8434    1.0404 C   0  0  0  0  0  0  0  0  0  0  0  0
    1.9357    3.1316   -0.0363 C   0  0  0  0  0  0  0  0  0  0  0  0
    3.1759   -2.2872   -1.0963 C   0  0  0  0  0  0  0  0  0  0  0  0
    3.5862   -0.3230    2.1059 C   0  0  0  0  0  0  0  0  0  0  0  0
    5.0017    0.1284   -1.3966 C   0  0  0  0  0  0  0  0  0  0  0  0
   -1.4369   -2.7135    2.9250 C   0  0  0  0  0  0  0  0  0  0  0  0
    1.0362    3.0524   -2.2879 C   0  0  0  0  0  0  0  0  0  0  0  0
   -0.6403   -3.7322    2.4140 C   0  0  0  0  0  0  0  0  0  0  0  0
    2.0724    3.3505   -1.4096 C   0  0  0  0  0  0  0  0  0  0  0  0
    4.4282    0.7016   -2.6814 C   0  0  0  0  0  0  0  0  0  0  0  0
   -1.7715   -1.3874   -2.6180 H   0  0  0  0  0  0  0  0  0  0  0  0
   -1.4732    1.4714    2.5889 H   0  0  0  0  0  0  0  0  0  0  0  0
   -0.7041   -3.6017   -3.0479 H   0  0  0  0  0  0  0  0  0  0  0  0
   -0.0874   -4.5619   -1.6916 H   0  0  0  0  0  0  0  0  0  0  0  0
    0.4450    2.4779    3.7566 H   0  0  0  0  0  0  0  0  0  0  0  0
    1.7898    3.1720    2.8323 H   0  0  0  0  0  0  0  0  0  0  0  0
    1.7569   -3.5076   -3.1146 H   0  0  0  0  0  0  0  0  0  0  0  0
    1.1493   -1.9048   -2.6416 H   0  0  0  0  0  0  0  0  0  0  0  0
    2.3760    1.0185    4.1228 H   0  0  0  0  0  0  0  0  0  0  0  0
    1.2546    0.1418    3.0473 H   0  0  0  0  0  0  0  0  0  0  0  0
    2.3359   -0.3618   -1.6319 H   0  0  0  0  0  0  0  0  0  0  0  0
    2.0694   -0.7948   -0.0128 H   0  0  0  0  0  0  0  0  0  0  0  0
    5.3445    0.4157    1.1656 H   0  0  0  0  0  0  0  0  0  0  0  0
    5.0789   -1.3050    0.8918 H   0  0  0  0  0  0  0  0  0  0  0  0
   -2.6466   -0.9866    2.4888 H   0  0  0  0  0  0  0  0  0  0  0  0
   -0.9708    2.3027   -2.5134 H   0  0  0  0  0  0  0  0  0  0  0  0
   -5.7606    1.7543   -0.9661 H   0  0  0  0  0  0  0  0  0  0  0  0
    0.2166   -4.6414    0.6554 H   0  0  0  0  0  0  0  0  0  0  0  0
    2.7537    3.3646    0.6373 H   0  0  0  0  0  0  0  0  0  0  0  0
    3.7190   -2.3976   -2.0416 H   0  0  0  0  0  0  0  0  0  0  0  0
    3.7967   -2.7199   -0.3067 H   0  0  0  0  0  0  0  0  0  0  0  0
    2.8467   -1.1250    2.0056 H   0  0  0  0  0  0  0  0  0  0  0  0
    4.1300   -0.4794    3.0445 H   0  0  0  0  0  0  0  0  0  0  0  0
    5.7879    0.8154   -1.0587 H   0  0  0  0  0  0  0  0  0  0  0  0
    5.4881   -0.8339   -1.5957 H   0  0  0  0  0  0  0  0  0  0  0  0
   -1.6046   -2.6447    3.9965 H   0  0  0  0  0  0  0  0  0  0  0  0
    1.1631    3.2300   -3.3523 H   0  0  0  0  0  0  0  0  0  0  0  0
   -0.1895   -4.4529    3.0913 H   0  0  0  0  0  0  0  0  0  0  0  0
    3.0000    3.7674   -1.7933 H   0  0  0  0  0  0  0  0  0  0  0  0
    3.7660    0.0018   -3.1996 H   0  0  0  0  0  0  0  0  0  0  0  0
    3.8943    1.6360   -2.5075 H   0  0  0  0  0  0  0  0  0  0  0  0
    5.2472    0.9251   -3.3746 H   0  0  0  0  0  0  0  0  0  0  0  0
  1 23  1  0  0  0  0
  1 31  1  0  0  0  0
  2 24  1  0  0  0  0
  2 32  1  0  0  0  0
  3 21  2  0  0  0  0
  4 22  2  0  0  0  0
  5 15  1  0  0  0  0
  5 17  1  0  0  0  0
  5 19  1  0  0  0  0
  6 16  1  0  0  0  0
  6 18  1  0  0  0  0
  6 20  1  0  0  0  0
  7 25  1  0  0  0  0
  7 26  1  0  0  0  0
  7 33  1  0  0  0  0
  8 21  1  0  0  0  0
  8 22  1  0  0  0  0
  8 55  1  0  0  0  0
  9 11  1  0  0  0  0
  9 13  1  0  0  0  0
  9 17  2  0  0  0  0
 10 12  1  0  0  0  0
 10 14  1  0  0  0  0
 10 18  2  0  0  0  0
 11 12  2  0  0  0  0
 11 21  1  0  0  0  0
 12 22  1  0  0  0  0
 13 15  1  0  0  0  0
 13 27  2  0  0  0  0
 14 16  1  0  0  0  0
 14 28  2  0  0  0  0
 15 29  2  0  0  0  0
 16 30  2  0  0  0  0
 17 39  1  0  0  0  0
 18 40  1  0  0  0  0
 19 23  1  0  0  0  0
 19 41  1  0  0  0  0
 19 42  1  0  0  0  0
 20 24  1  0  0  0  0
 20 43  1  0  0  0  0
 20 44  1  0  0  0  0
 23 45  1  0  0  0  0
 23 46  1  0  0  0  0
 24 47  1  0  0  0  0
 24 48  1  0  0  0  0
 25 31  1  0  0  0  0
 25 49  1  0  0  0  0
 25 50  1  0  0  0  0
 26 32  1  0  0  0  0
 26 51  1  0  0  0  0
 26 52  1  0  0  0  0
 27 34  1  0  0  0  0
 27 53  1  0  0  0  0
 28 35  1  0  0  0  0
 28 54  1  0  0  0  0
 29 36  1  0  0  0  0
 29 56  1  0  0  0  0
 30 37  1  0  0  0  0
 30 57  1  0  0  0  0
 31 58  1  0  0  0  0
 31 59  1  0  0  0  0
 32 60  1  0  0  0  0
 32 61  1  0  0  0  0
 33 38  1  0  0  0  0
 33 62  1  0  0  0  0
 33 63  1  0  0  0  0
 34 36  2  0  0  0  0
 34 64  1  0  0  0  0
 35 37  2  0  0  0  0
 35 65  1  0  0  0  0
 36 66  1  0  0  0  0
 37 67  1  0  0  0  0
 38 68  1  0  0  0  0
 38 69  1  0  0  0  0
 38 70  1  0  0  0  0
M  END
> <PUBCHEM_COMPOUND_CID>
10207821

> <PUBCHEM_CONFORMER_RMSD>
0.8

> <PUBCHEM_CONFORMER_DIVERSEORDER>
1
16
37
7
40
39
36
9
14
23
22
38
4
30
34
10
21
20
2
43
13
24
29
26
19
25
17
11
42
12
6
33
18
35
32
5
28
27
8
15
31
3
41

> <PUBCHEM_MMFF94_PARTIAL_CHARGES>
46
1 -0.56
10 -0.05
11 0.06
12 0.06
15 -0.15
16 -0.15
17 -0.3
18 -0.3
19 0.26
2 -0.56
20 0.26
21 0.62
22 0.62
23 0.28
24 0.28
25 0.27
26 0.27
27 -0.15
28 -0.15
29 -0.15
3 -0.57
30 -0.15
31 0.28
32 0.28
33 0.27
34 -0.15
35 -0.15
36 -0.15
37 -0.15
39 0.15
4 -0.57
40 0.15
5 0.05
53 0.15
54 0.15
55 0.37
56 0.15
57 0.15
6 0.05
64 0.15
65 0.15
66 0.15
67 0.15
7 -0.81
8 -0.49
9 -0.05

> <PUBCHEM_EFFECTIVE_ROTOR_COUNT>
3.4

> <PUBCHEM_PHARMACOPHORE_FEATURES>
13
1 1 acceptor
1 2 acceptor
1 3 acceptor
1 4 acceptor
1 5 cation
1 6 cation
1 7 cation
1 8 donor
5 5 9 13 15 17 rings
5 6 10 14 16 18 rings
5 8 11 12 21 22 rings
6 13 15 27 29 34 36 rings
6 14 16 28 30 35 37 rings

> <PUBCHEM_HEAVY_ATOM_COUNT>
38

> <PUBCHEM_ATOM_DEF_STEREO_COUNT>
0

> <PUBCHEM_ATOM_UDEF_STEREO_COUNT>
0

> <PUBCHEM_BOND_DEF_STEREO_COUNT>
0

> <PUBCHEM_BOND_UDEF_STEREO_COUNT>
0

> <PUBCHEM_ISOTOPIC_ATOM_COUNT>
0

> <PUBCHEM_COMPONENT_COUNT>
1

> <PUBCHEM_CACTVS_TAUTO_COUNT>
2

> <PUBCHEM_CONFORMER_ID>
009BC24D00000001

> <PUBCHEM_MMFF94_ENERGY>
75.8159

> <PUBCHEM_FEATURE_SELFOVERLAP>
66.15

> <PUBCHEM_SHAPE_FINGERPRINT>
11513181 2 17843674719935329822
12156800 1 17896316003251407482
133893 2 18192133929559770621
13402501 40 18130775734146602234
13726171 33 18118432702544787356
13761468 95 14954672217516501494
14725015 67 18196356220807099195
19319366 153 16443337668071569416
19930381 70 17702372962417836395
20764821 26 18125443257096450663
23559900 14 18272081742733301893
35225 105 17833224750818886186
469060 322 16603284530495852490
57527585 103 17686668646539496923

> <PUBCHEM_SHAPE_MULTIPOLES>
738.62
7.67
5.57
3.14
1.41
1.58
-1.57
-1.78
2.67
-1.23
0.49
1.89
0.81
1.02

> <PUBCHEM_SHAPE_SELFOVERLAP>
1627.264

> <PUBCHEM_SHAPE_VOLUME>
401.6

> <PUBCHEM_COORDINATE_TYPE>
2
5
10

$$$$
