49830727
  -OEChem-10052115183D

 32 33  0     0  0  0  0  0  0999 V2000
   -0.4577   -4.2008    0.0765 Br  0  0  0  0  0  0  0  0  0  0  0  0
    3.6221   -0.9288    0.0035 S   0  0  0  0  0  0  0  0  0  0  0  0
   -2.9172    1.2182   -0.1059 N   0  0  0  0  0  0  0  0  0  0  0  0
   -0.9846   -0.0687   -0.0533 N   0  0  0  0  0  0  0  0  0  0  0  0
    0.9663   -1.3989    0.0007 N   0  0  0  0  0  0  0  0  0  0  0  0
   -3.1674   -1.0897   -0.0373 N   0  0  0  0  0  0  0  0  0  0  0  0
    1.7648    0.8680   -0.0643 N   0  0  0  0  0  0  0  0  0  0  0  0
   -2.1648    2.4537   -0.1383 C   0  0  0  0  0  0  0  0  0  0  0  0
   -1.6773    2.7815    1.2669 C   0  0  0  0  0  0  0  0  0  0  0  0
   -3.0407    3.5682   -0.6960 C   0  0  0  0  0  0  0  0  0  0  0  0
   -2.3309   -0.0347   -0.0636 C   0  0  0  0  0  0  0  0  0  0  0  0
   -0.4468   -1.3055   -0.0119 C   0  0  0  0  0  0  0  0  0  0  0  0
   -1.1932   -2.4657    0.0184 C   0  0  0  0  0  0  0  0  0  0  0  0
    1.9809   -0.4279   -0.0225 C   0  0  0  0  0  0  0  0  0  0  0  0
   -2.5625   -2.2951    0.0037 C   0  0  0  0  0  0  0  0  0  0  0  0
    4.0996    0.7177   -0.0464 C   0  0  0  0  0  0  0  0  0  0  0  0
    2.9805    1.5232   -0.0775 C   0  0  0  0  0  0  0  0  0  0  0  0
    5.5287    1.0854   -0.0527 C   0  0  0  0  0  0  0  0  0  0  0  0
   -1.3009    2.3577   -0.8081 H   0  0  0  0  0  0  0  0  0  0  0  0
   -3.9294    1.2529   -0.0648 H   0  0  0  0  0  0  0  0  0  0  0  0
   -2.5152    2.8711    1.9677 H   0  0  0  0  0  0  0  0  0  0  0  0
   -1.0052    2.0103    1.6566 H   0  0  0  0  0  0  0  0  0  0  0  0
   -1.1293    3.7298    1.2744 H   0  0  0  0  0  0  0  0  0  0  0  0
   -3.9279    3.7297   -0.0732 H   0  0  0  0  0  0  0  0  0  0  0  0
   -3.3872    3.3221   -1.7058 H   0  0  0  0  0  0  0  0  0  0  0  0
   -2.4867    4.5113   -0.7487 H   0  0  0  0  0  0  0  0  0  0  0  0
    1.2888   -2.3640    0.0328 H   0  0  0  0  0  0  0  0  0  0  0  0
   -3.2449   -3.1393    0.0247 H   0  0  0  0  0  0  0  0  0  0  0  0
    2.9923    2.6045   -0.1117 H   0  0  0  0  0  0  0  0  0  0  0  0
    6.0315    0.7203    0.8490 H   0  0  0  0  0  0  0  0  0  0  0  0
    6.0376    0.6663   -0.9270 H   0  0  0  0  0  0  0  0  0  0  0  0
    5.6547    2.1728   -0.0853 H   0  0  0  0  0  0  0  0  0  0  0  0
  1 13  1  0  0  0  0
  2 14  1  0  0  0  0
  2 16  1  0  0  0  0
  3  8  1  0  0  0  0
  3 11  1  0  0  0  0
  3 20  1  0  0  0  0
  4 11  1  0  0  0  0
  4 12  2  0  0  0  0
  5 12  1  0  0  0  0
  5 14  1  0  0  0  0
  5 27  1  0  0  0  0
  6 11  2  0  0  0  0
  6 15  1  0  0  0  0
  7 14  2  0  0  0  0
  7 17  1  0  0  0  0
  8  9  1  0  0  0  0
  8 10  1  0  0  0  0
  8 19  1  0  0  0  0
  9 21  1  0  0  0  0
  9 22  1  0  0  0  0
  9 23  1  0  0  0  0
 10 24  1  0  0  0  0
 10 25  1  0  0  0  0
 10 26  1  0  0  0  0
 12 13  1  0  0  0  0
 13 15  2  0  0  0  0
 15 28  1  0  0  0  0
 16 17  2  0  0  0  0
 16 18  1  0  0  0  0
 17 29  1  0  0  0  0
 18 30  1  0  0  0  0
 18 31  1  0  0  0  0
 18 32  1  0  0  0  0
M  END
> <PUBCHEM_COMPOUND_CID>
49830727

> <PUBCHEM_CONFORMER_RMSD>
0.6

> <PUBCHEM_CONFORMER_DIVERSEORDER>
1
46
84
6
73
60
71
2
75
88
80
90
74
7
89
25
83
31
76
50
62
87
68
44
53
17
92
19
22
61
82
18
47
24
20
35
41
52
33
55
21
3
38
27
51
70
40
57
12
23
26
85
37
77
94
28
48
29
69
49
11
81
42
91
16
34
93
39
79
30
95
15
43
56
63
45
54
65
72
32
66
67
58
36
4
10
86
14
9
64
13
5
8
78
59

> <PUBCHEM_MMFF94_PARTIAL_CHARGES>
20
1 -0.11
11 0.72
12 0.41
13 0.11
14 0.46
15 0.16
16 -0.14
17 0.08
18 0.18
2 -0.08
20 0.4
27 0.4
28 0.15
29 0.15
3 -0.87
4 -0.62
5 -0.58
6 -0.62
7 -0.57
8 0.37

> <PUBCHEM_EFFECTIVE_ROTOR_COUNT>
4

> <PUBCHEM_PHARMACOPHORE_FEATURES>
8
1 1 hydrophobe
1 3 donor
1 5 donor
3 5 7 14 cation
3 8 9 10 hydrophobe
4 3 4 6 11 cation
5 2 7 14 16 17 rings
6 4 6 11 12 13 15 rings

> <PUBCHEM_HEAVY_ATOM_COUNT>
18

> <PUBCHEM_ATOM_DEF_STEREO_COUNT>
0

> <PUBCHEM_ATOM_UDEF_STEREO_COUNT>
0

> <PUBCHEM_BOND_DEF_STEREO_COUNT>
0

> <PUBCHEM_BOND_UDEF_STEREO_COUNT>
0

> <PUBCHEM_ISOTOPIC_ATOM_COUNT>
0

> <PUBCHEM_COMPONENT_COUNT>
1

> <PUBCHEM_CACTVS_TAUTO_COUNT>
13

> <PUBCHEM_CONFORMER_ID>
02F85B4700000001

> <PUBCHEM_MMFF94_ENERGY>
44.559

> <PUBCHEM_FEATURE_SELFOVERLAP>
40.596

> <PUBCHEM_SHAPE_FINGERPRINT>
10411042 1 17761775469731196806
10608611 8 18413388765421191670
10967382 1 17545882629121435287
11370993 70 18265889151321550253
12107183 9 18046051667725959874
12173636 292 18410007728099774527
12788726 201 18337661018470516323
13140716 1 17978799230820554546
138480 1 16897081639703871197
14123255 52 18192992617100391933
14142880 1 18113613465585795693
14508225 48 17766264754306248023
14790565 3 18411990174210456753
15042514 8 18193000541262714851
15442244 35 18337106774937867826
17134986 127 18049440336101747797
17834072 32 18265896856503435204
20510252 161 18413673521515637339
20621476 13 17327735102691637957
20671657 1 17762905364030711375
21339142 51 18121212349317116103
21524375 3 18271804554185901095
21650355 55 18121500421163133215
22182937 141 18342184314833659057
2297311 6 18196668490983684558
2306618 200 18201168752957262226
23402539 116 18199464544679420231
23557571 272 18199478825524189990
23558518 356 18260555497698200955
23559900 14 18197210576155098672
238 59 17033845570404319061
23845131 108 18049459045728713849
266924 87 18411127018632704063
283562 15 18411416216028820531
3071541 12 17762902065432849223
3091708 16 9197470283136167490
350125 39 18338243647984952795
4214541 1 18410575093949404244
474 4 17907011773378433265
5939293 188 17113533715162183735
7364860 26 17618502082481144351
9709674 26 18342464785278587382
9981440 41 18336820888633936995

> <PUBCHEM_SHAPE_MULTIPOLES>
355.32
7.8
4.75
0.73
10.59
1.52
-0.1
-4.85
0.49
-5.03
-0.06
-0.22
-0.33
0.11

> <PUBCHEM_SHAPE_SELFOVERLAP>
712.541

> <PUBCHEM_SHAPE_VOLUME>
213.3

> <PUBCHEM_COORDINATE_TYPE>
2
5
10

$$$$
