49830406
  -OEChem-10052120433D

 79 85  0     0  0  0  0  0  0999 V2000
    2.1783   -1.0397    1.1619 F   0  0  0  0  0  0  0  0  0  0  0  0
   -1.0561   -4.8293    0.2435 O   0  0  0  0  0  0  0  0  0  0  0  0
    6.6225    2.3015    0.9102 N   0  0  0  0  0  0  0  0  0  0  0  0
    4.2473    1.4694   -0.4409 N   0  0  0  0  0  0  0  0  0  0  0  0
   -0.4827    0.3267   -3.2110 N   0  0  0  0  0  0  0  0  0  0  0  0
   -3.9090    2.4231    0.5162 N   0  0  0  0  0  0  0  0  0  0  0  0
   -4.0770    1.1580    2.3533 N   0  0  0  0  0  0  0  0  0  0  0  0
   -2.1039    0.7212   -1.5654 N   0  0  0  0  0  0  0  0  0  0  0  0
   -2.7339    0.0098   -3.7800 N   0  0  0  0  0  0  0  0  0  0  0  0
    0.0986   -2.8518    0.7555 N   0  0  0  0  0  0  0  0  0  0  0  0
    5.5309    1.6599    1.6529 C   0  0  0  0  0  0  0  0  0  0  0  0
    6.6962    1.7472   -0.4473 C   0  0  0  0  0  0  0  0  0  0  0  0
    4.1847    1.8910    0.9619 C   0  0  0  0  0  0  0  0  0  0  0  0
    5.3893    1.9823   -1.2081 C   0  0  0  0  0  0  0  0  0  0  0  0
    7.8945    2.1195    1.6084 C   0  0  0  0  0  0  0  0  0  0  0  0
    3.0653    1.1837   -1.1332 C   0  0  0  0  0  0  0  0  0  0  0  0
    7.8496    2.7290    2.9993 C   0  0  0  0  0  0  0  0  0  0  0  0
    1.8830    1.8428   -0.7961 C   0  0  0  0  0  0  0  0  0  0  0  0
    3.0692    0.2398   -2.1603 C   0  0  0  0  0  0  0  0  0  0  0  0
    0.7047    1.5584   -1.4863 C   0  0  0  0  0  0  0  0  0  0  0  0
    1.8908   -0.0447   -2.8504 C   0  0  0  0  0  0  0  0  0  0  0  0
    0.7085    0.6146   -2.5136 C   0  0  0  0  0  0  0  0  0  0  0  0
   -3.6906    1.1292    0.1177 C   0  0  0  0  0  0  0  0  0  0  0  0
   -3.7991    0.3743    1.2619 C   0  0  0  0  0  0  0  0  0  0  0  0
   -1.8396    0.3539   -2.8338 C   0  0  0  0  0  0  0  0  0  0  0  0
   -3.4127    0.7363   -1.2381 C   0  0  0  0  0  0  0  0  0  0  0  0
   -4.1402    2.3892    1.8889 C   0  0  0  0  0  0  0  0  0  0  0  0
   -3.6485   -1.0480    1.3396 C   0  0  0  0  0  0  0  0  0  0  0  0
   -3.9153    3.5935   -0.2375 C   0  0  0  0  0  0  0  0  0  0  0  0
   -4.3949    3.6353    2.5337 C   0  0  0  0  0  0  0  0  0  0  0  0
   -4.4261    0.4060   -2.1147 C   0  0  0  0  0  0  0  0  0  0  0  0
   -2.4464   -1.6441    0.9580 C   0  0  0  0  0  0  0  0  0  0  0  0
   -4.7040   -1.8371    1.7969 C   0  0  0  0  0  0  0  0  0  0  0  0
   -4.1560    4.7630    0.3770 C   0  0  0  0  0  0  0  0  0  0  0  0
   -4.4023    4.7715    1.8102 C   0  0  0  0  0  0  0  0  0  0  0  0
   -2.2997   -3.0292    1.0339 C   0  0  0  0  0  0  0  0  0  0  0  0
   -4.0235    0.0469   -3.3849 C   0  0  0  0  0  0  0  0  0  0  0  0
   -4.5574   -3.2222    1.8725 C   0  0  0  0  0  0  0  0  0  0  0  0
   -3.3552   -3.8183    1.4913 C   0  0  0  0  0  0  0  0  0  0  0  0
   -1.0469   -3.6512    0.6356 C   0  0  0  0  0  0  0  0  0  0  0  0
    1.4441   -3.1904    0.4697 C   0  0  0  0  0  0  0  0  0  0  0  0
    2.4613   -2.2603    0.6844 C   0  0  0  0  0  0  0  0  0  0  0  0
    1.7507   -4.4570   -0.0277 C   0  0  0  0  0  0  0  0  0  0  0  0
    3.7851   -2.5968    0.4014 C   0  0  0  0  0  0  0  0  0  0  0  0
    3.0747   -4.7936   -0.3104 C   0  0  0  0  0  0  0  0  0  0  0  0
    4.0918   -3.8635   -0.0960 C   0  0  0  0  0  0  0  0  0  0  0  0
    5.4254    2.0747    2.6603 H   0  0  0  0  0  0  0  0  0  0  0  0
    5.7113    0.5812    1.7561 H   0  0  0  0  0  0  0  0  0  0  0  0
    7.5084    2.2282   -1.0058 H   0  0  0  0  0  0  0  0  0  0  0  0
    6.9133    0.6708   -0.4159 H   0  0  0  0  0  0  0  0  0  0  0  0
    3.9195    2.9546    1.0203 H   0  0  0  0  0  0  0  0  0  0  0  0
    3.4215    1.3204    1.5055 H   0  0  0  0  0  0  0  0  0  0  0  0
    5.4734    1.4964   -2.1869 H   0  0  0  0  0  0  0  0  0  0  0  0
    5.2470    3.0553   -1.3914 H   0  0  0  0  0  0  0  0  0  0  0  0
    8.6872    2.6272    1.0452 H   0  0  0  0  0  0  0  0  0  0  0  0
    8.1740    1.0607    1.6794 H   0  0  0  0  0  0  0  0  0  0  0  0
    8.8672    2.7978    3.4003 H   0  0  0  0  0  0  0  0  0  0  0  0
    7.2775    2.1200    3.7059 H   0  0  0  0  0  0  0  0  0  0  0  0
    7.4361    3.7433    2.9858 H   0  0  0  0  0  0  0  0  0  0  0  0
    1.8485    2.5995   -0.0175 H   0  0  0  0  0  0  0  0  0  0  0  0
    3.9764   -0.2960   -2.4273 H   0  0  0  0  0  0  0  0  0  0  0  0
   -0.1803    2.1276   -1.2217 H   0  0  0  0  0  0  0  0  0  0  0  0
    1.9059   -0.7861   -3.6452 H   0  0  0  0  0  0  0  0  0  0  0  0
   -0.3414   -0.0854   -4.1285 H   0  0  0  0  0  0  0  0  0  0  0  0
   -3.7244    3.5294   -1.3017 H   0  0  0  0  0  0  0  0  0  0  0  0
   -4.5800    3.6540    3.6019 H   0  0  0  0  0  0  0  0  0  0  0  0
   -5.4729    0.4225   -1.8381 H   0  0  0  0  0  0  0  0  0  0  0  0
   -1.6471   -1.0101    0.5850 H   0  0  0  0  0  0  0  0  0  0  0  0
   -5.6483   -1.3890    2.0971 H   0  0  0  0  0  0  0  0  0  0  0  0
   -4.1714    5.7012   -0.1640 H   0  0  0  0  0  0  0  0  0  0  0  0
   -4.5939    5.7288    2.2828 H   0  0  0  0  0  0  0  0  0  0  0  0
   -4.7487   -0.2293   -4.1428 H   0  0  0  0  0  0  0  0  0  0  0  0
   -5.3790   -3.8365    2.2292 H   0  0  0  0  0  0  0  0  0  0  0  0
   -3.2612   -4.8987    1.5632 H   0  0  0  0  0  0  0  0  0  0  0  0
    0.0004   -1.9184    1.1451 H   0  0  0  0  0  0  0  0  0  0  0  0
    1.0204   -5.2284   -0.2256 H   0  0  0  0  0  0  0  0  0  0  0  0
    4.5764   -1.8716    0.5674 H   0  0  0  0  0  0  0  0  0  0  0  0
    3.3148   -5.7791   -0.6991 H   0  0  0  0  0  0  0  0  0  0  0  0
    5.1225   -4.1250   -0.3170 H   0  0  0  0  0  0  0  0  0  0  0  0
  1 42  1  0  0  0  0
  2 40  2  0  0  0  0
  3 11  1  0  0  0  0
  3 12  1  0  0  0  0
  3 15  1  0  0  0  0
  4 13  1  0  0  0  0
  4 14  1  0  0  0  0
  4 16  1  0  0  0  0
  5 22  1  0  0  0  0
  5 25  1  0  0  0  0
  5 64  1  0  0  0  0
  6 23  1  0  0  0  0
  6 27  1  0  0  0  0
  6 29  1  0  0  0  0
  7 24  1  0  0  0  0
  7 27  2  0  0  0  0
  8 25  1  0  0  0  0
  8 26  2  0  0  0  0
  9 25  2  0  0  0  0
  9 37  1  0  0  0  0
 10 40  1  0  0  0  0
 10 41  1  0  0  0  0
 10 75  1  0  0  0  0
 11 13  1  0  0  0  0
 11 47  1  0  0  0  0
 11 48  1  0  0  0  0
 12 14  1  0  0  0  0
 12 49  1  0  0  0  0
 12 50  1  0  0  0  0
 13 51  1  0  0  0  0
 13 52  1  0  0  0  0
 14 53  1  0  0  0  0
 14 54  1  0  0  0  0
 15 17  1  0  0  0  0
 15 55  1  0  0  0  0
 15 56  1  0  0  0  0
 16 18  2  0  0  0  0
 16 19  1  0  0  0  0
 17 57  1  0  0  0  0
 17 58  1  0  0  0  0
 17 59  1  0  0  0  0
 18 20  1  0  0  0  0
 18 60  1  0  0  0  0
 19 21  2  0  0  0  0
 19 61  1  0  0  0  0
 20 22  2  0  0  0  0
 20 62  1  0  0  0  0
 21 22  1  0  0  0  0
 21 63  1  0  0  0  0
 23 24  2  0  0  0  0
 23 26  1  0  0  0  0
 24 28  1  0  0  0  0
 26 31  1  0  0  0  0
 27 30  1  0  0  0  0
 28 32  2  0  0  0  0
 28 33  1  0  0  0  0
 29 34  2  0  0  0  0
 29 65  1  0  0  0  0
 30 35  2  0  0  0  0
 30 66  1  0  0  0  0
 31 37  2  0  0  0  0
 31 67  1  0  0  0  0
 32 36  1  0  0  0  0
 32 68  1  0  0  0  0
 33 38  2  0  0  0  0
 33 69  1  0  0  0  0
 34 35  1  0  0  0  0
 34 70  1  0  0  0  0
 35 71  1  0  0  0  0
 36 39  2  0  0  0  0
 36 40  1  0  0  0  0
 37 72  1  0  0  0  0
 38 39  1  0  0  0  0
 38 73  1  0  0  0  0
 39 74  1  0  0  0  0
 41 42  1  0  0  0  0
 41 43  2  0  0  0  0
 42 44  2  0  0  0  0
 43 45  1  0  0  0  0
 43 76  1  0  0  0  0
 44 46  1  0  0  0  0
 44 77  1  0  0  0  0
 45 46  2  0  0  0  0
 45 78  1  0  0  0  0
 46 79  1  0  0  0  0
M  END
> <PUBCHEM_COMPOUND_CID>
49830406

> <PUBCHEM_CONFORMER_RMSD>
1.2

> <PUBCHEM_CONFORMER_DIVERSEORDER>
1
80
101
15
114
87
43
12
41
36
144
112
132
133
74
138
48
81
102
123
54
111
116
2
20
39
100
141
127
106
11
119
50
88
34
69
45
24
42
8
124
122
5
105
35
86
60
52
92
94
139
83
17
68
4
55
109
135
49
66
93
91
25
57
130
85
9
89
40
59
71
95
3
72
58
97
96
98
145
120
134
136
56
6
46
107
30
79
37
22
115
47
128
70
82
121
103
142
117
64
44
65
26
76
129
73
75
125
33
118
31
14
108
23
104
53
62
13
110
18
7
51
78
29
143
126
131
77
19
137
140
38
21
27
99
61
90
84
10
113
32
67
16
63
28

> <PUBCHEM_MMFF94_PARTIAL_CHARGES>
65
1 -0.19
10 -0.55
11 0.27
12 0.27
13 0.37
14 0.37
15 0.27
16 0.1
18 -0.15
19 -0.15
2 -0.57
20 -0.15
21 -0.15
22 0.1
23 -0.2
24 0.17
25 0.72
26 0.36
27 0.14
28 0.05
29 -0.18
3 -0.81
30 -0.11
31 -0.15
32 -0.15
33 -0.15
34 -0.15
35 -0.15
36 0.09
37 0.16
38 -0.15
39 -0.15
4 -0.84
40 0.54
41 0.12
42 0.19
43 -0.15
44 -0.15
45 -0.15
46 -0.15
5 -0.6
6 0.33
60 0.15
61 0.15
62 0.15
63 0.15
64 0.4
65 0.15
66 0.15
67 0.15
68 0.15
69 0.15
7 -0.57
70 0.15
71 0.15
72 0.15
73 0.15
74 0.15
75 0.37
76 0.15
77 0.15
78 0.15
79 0.15
8 -0.62
9 -0.62

> <PUBCHEM_EFFECTIVE_ROTOR_COUNT>
10.2

> <PUBCHEM_PHARMACOPHORE_FEATURES>
15
1 10 donor
1 2 acceptor
1 3 cation
1 4 cation
1 5 donor
1 8 acceptor
3 6 7 27 cation
4 5 8 9 25 cation
5 6 7 23 24 27 rings
6 16 18 19 20 21 22 rings
6 28 32 33 36 38 39 rings
6 3 4 11 12 13 14 rings
6 41 42 43 44 45 46 rings
6 6 27 29 30 34 35 rings
6 8 9 25 26 31 37 rings

> <PUBCHEM_HEAVY_ATOM_COUNT>
46

> <PUBCHEM_ATOM_DEF_STEREO_COUNT>
0

> <PUBCHEM_ATOM_UDEF_STEREO_COUNT>
0

> <PUBCHEM_BOND_DEF_STEREO_COUNT>
0

> <PUBCHEM_BOND_UDEF_STEREO_COUNT>
0

> <PUBCHEM_ISOTOPIC_ATOM_COUNT>
0

> <PUBCHEM_COMPONENT_COUNT>
1

> <PUBCHEM_CACTVS_TAUTO_COUNT>
6

> <PUBCHEM_CONFORMER_ID>
02F85A0600000001

> <PUBCHEM_MMFF94_ENERGY>
150.8196

> <PUBCHEM_FEATURE_SELFOVERLAP>
76.245

> <PUBCHEM_SHAPE_FINGERPRINT>
10930396 42 18272090565207453969
11513181 2 18341629100291138975
12422481 6 17821719555846082426
13947947 63 18270673148384998840
14040221 222 18267006281474478280
14395042 24 17827093002469024779
14415360 78 17898568671028047589
15722582 15 18117547441497478674
19304152 47 18060145378757652780
19309040 13 18059017176932313049
21133410 90 17763450013630041063
21987440 362 18411709755684671286
4112364 45 18055079757417304881
56638632 10 17470734308615422965
581034 39 18116162245450982814
9961470 85 18265339395655284209

> <PUBCHEM_SHAPE_MULTIPOLES>
893.67
15.7
7.09
3.4
24.79
4.24
2.4
-15.7
-9.96
-2.12
-4.54
-1.9
-1.74
1.61

> <PUBCHEM_SHAPE_SELFOVERLAP>
1981.211

> <PUBCHEM_SHAPE_VOLUME>
478.6

> <PUBCHEM_COORDINATE_TYPE>
2
5
10

$$$$
