16661285
  -OEChem-10062122033D

 34 37  0     0  0  0  0  0  0999 V2000
   -1.5677   -3.9138   -0.5574 O   0  0  0  0  0  0  0  0  0  0  0  0
   -2.2816   -1.7709   -0.2856 N   0  0  0  0  0  0  0  0  0  0  0  0
    5.5073    0.8756    0.3029 N   0  0  0  0  0  0  0  0  0  0  0  0
    0.0318   -2.3110   -0.2482 N   0  0  0  0  0  0  0  0  0  0  0  0
    5.4257    2.1277   -0.1772 N   0  0  0  0  0  0  0  0  0  0  0  0
    1.6938   -0.6050    0.0664 C   0  0  0  0  0  0  0  0  0  0  0  0
    3.3867    1.0895   -0.2125 C   0  0  0  0  0  0  0  0  0  0  0  0
    0.2822   -1.0510   -0.0605 C   0  0  0  0  0  0  0  0  0  0  0  0
    4.3179    0.1983    0.3088 C   0  0  0  0  0  0  0  0  0  0  0  0
    2.0463    0.6881   -0.3397 C   0  0  0  0  0  0  0  0  0  0  0  0
   -2.0287   -0.4368   -0.0732 C   0  0  0  0  0  0  0  0  0  0  0  0
    2.6494   -1.4798    0.5867 C   0  0  0  0  0  0  0  0  0  0  0  0
   -0.7669   -0.0048    0.0560 C   0  0  0  0  0  0  0  0  0  0  0  0
    3.9875   -1.0950    0.7196 C   0  0  0  0  0  0  0  0  0  0  0  0
   -3.1737    0.4870    0.0310 C   0  0  0  0  0  0  0  0  0  0  0  0
    4.1342    2.2541   -0.4897 C   0  0  0  0  0  0  0  0  0  0  0  0
   -1.2790   -2.7305   -0.3727 C   0  0  0  0  0  0  0  0  0  0  0  0
   -3.2891    1.5574   -0.8561 C   0  0  0  0  0  0  0  0  0  0  0  0
   -4.1413    0.2904    1.0164 C   0  0  0  0  0  0  0  0  0  0  0  0
   -4.3718    2.4314   -0.7575 C   0  0  0  0  0  0  0  0  0  0  0  0
   -5.2240    1.1643    1.1147 C   0  0  0  0  0  0  0  0  0  0  0  0
   -5.3392    2.2348    0.2278 C   0  0  0  0  0  0  0  0  0  0  0  0
    1.3369    1.3800   -0.7801 H   0  0  0  0  0  0  0  0  0  0  0  0
    2.3725   -2.4813    0.9090 H   0  0  0  0  0  0  0  0  0  0  0  0
   -0.5286    1.0281    0.2715 H   0  0  0  0  0  0  0  0  0  0  0  0
    4.7308   -1.7723    1.1251 H   0  0  0  0  0  0  0  0  0  0  0  0
    3.7893    3.1897   -0.9069 H   0  0  0  0  0  0  0  0  0  0  0  0
   -3.2481   -2.0704   -0.3787 H   0  0  0  0  0  0  0  0  0  0  0  0
    6.4110    0.5407    0.6128 H   0  0  0  0  0  0  0  0  0  0  0  0
   -2.5481    1.7247   -1.6341 H   0  0  0  0  0  0  0  0  0  0  0  0
   -4.0660   -0.5362    1.7188 H   0  0  0  0  0  0  0  0  0  0  0  0
   -4.4623    3.2642   -1.4487 H   0  0  0  0  0  0  0  0  0  0  0  0
   -5.9771    1.0120    1.8824 H   0  0  0  0  0  0  0  0  0  0  0  0
   -6.1822    2.9152    0.3045 H   0  0  0  0  0  0  0  0  0  0  0  0
  1 17  2  0  0  0  0
  2 11  1  0  0  0  0
  2 17  1  0  0  0  0
  2 28  1  0  0  0  0
  3  5  1  0  0  0  0
  3  9  1  0  0  0  0
  3 29  1  0  0  0  0
  4  8  2  0  0  0  0
  4 17  1  0  0  0  0
  5 16  2  0  0  0  0
  6  8  1  0  0  0  0
  6 10  2  0  0  0  0
  6 12  1  0  0  0  0
  7  9  2  0  0  0  0
  7 10  1  0  0  0  0
  7 16  1  0  0  0  0
  8 13  1  0  0  0  0
  9 14  1  0  0  0  0
 10 23  1  0  0  0  0
 11 13  2  0  0  0  0
 11 15  1  0  0  0  0
 12 14  2  0  0  0  0
 12 24  1  0  0  0  0
 13 25  1  0  0  0  0
 14 26  1  0  0  0  0
 15 18  2  0  0  0  0
 15 19  1  0  0  0  0
 16 27  1  0  0  0  0
 18 20  1  0  0  0  0
 18 30  1  0  0  0  0
 19 21  2  0  0  0  0
 19 31  1  0  0  0  0
 20 22  2  0  0  0  0
 20 32  1  0  0  0  0
 21 22  1  0  0  0  0
 21 33  1  0  0  0  0
 22 34  1  0  0  0  0
M  END
> <PUBCHEM_COMPOUND_CID>
16661285

> <PUBCHEM_CONFORMER_RMSD>
0.6

> <PUBCHEM_CONFORMER_DIVERSEORDER>
1
9
10
8
3
5
4
7
2
6

> <PUBCHEM_MMFF94_PARTIAL_CHARGES>
33
1 -0.57
10 -0.15
11 0.08
12 -0.15
13 -0.14
14 -0.15
15 0.03
16 0.14
17 0.84
18 -0.15
19 -0.15
2 -0.54
20 -0.15
21 -0.15
22 -0.15
23 0.15
24 0.15
25 0.15
26 0.15
27 0.15
28 0.37
29 0.27
3 0.3
30 0.15
31 0.15
32 0.15
33 0.15
34 0.15
4 -0.66
5 -0.71
6 0.09
8 0.35
9 -0.15

> <PUBCHEM_EFFECTIVE_ROTOR_COUNT>
2

> <PUBCHEM_PHARMACOPHORE_FEATURES>
10
1 1 acceptor
1 2 donor
1 3 donor
1 4 acceptor
1 4 donor
1 5 acceptor
5 3 5 7 9 16 rings
6 15 18 19 20 21 22 rings
6 2 4 8 11 13 17 rings
6 6 7 9 10 12 14 rings

> <PUBCHEM_HEAVY_ATOM_COUNT>
22

> <PUBCHEM_ATOM_DEF_STEREO_COUNT>
0

> <PUBCHEM_ATOM_UDEF_STEREO_COUNT>
0

> <PUBCHEM_BOND_DEF_STEREO_COUNT>
0

> <PUBCHEM_BOND_UDEF_STEREO_COUNT>
0

> <PUBCHEM_ISOTOPIC_ATOM_COUNT>
0

> <PUBCHEM_COMPONENT_COUNT>
1

> <PUBCHEM_CACTVS_TAUTO_COUNT>
9

> <PUBCHEM_CONFORMER_ID>
00FE3B2500000001

> <PUBCHEM_MMFF94_ENERGY>
64.2158

> <PUBCHEM_FEATURE_SELFOVERLAP>
50.929

> <PUBCHEM_SHAPE_FINGERPRINT>
10411042 1 17547290459620435295
10493431 412 18411141342200416517
12107183 9 18264197029366009794
12363563 72 8790594940542149809
12390115 104 18271822228160855995
12403259 415 18262807250662462773
12892183 10 17530969038454790011
13103583 49 11675169095002889021
13540713 5 18263909073241697898
13544653 18 9871458838025641923
13583140 156 16950548961822451031
13785724 45 17689151215194189418
14508225 48 17767390654613861399
1454969 45 18411981391265833575
14767858 380 18200012020503406277
14790565 3 18341900632344394385
15188451 53 15285655334525962121
15196674 1 18409448076659974672
15342168 16 18412264995881496589
15475509 35 16299232276710582018
15778101 99 18339928220606357572
17834072 32 18411136922241193109
18785283 64 18194401078695489351
204376 136 18341332198033623187
20645477 56 18412831312651349887
20715895 44 18121212083097942721
21033648 29 18340476807630498601
21033650 10 14979687545951853491
21120745 212 17833560367942515503
21236236 1 18341894134580666423
21421861 104 17895741908527545298
22224240 67 18411429397757868339
22950370 63 9006765515105982045
23227448 37 18339643437887579437
23559900 14 18131356289587974166
25147074 1 18339061770419774186
283562 15 18120365712442429547
335352 9 18338796711556843662
3472631 163 18342178890258257348
350125 39 18341332297070844891
394222 165 18191301585692187099
474 4 18269836415729912259
5104073 3 18261384603196913434
6327066 14 18409162204064566973
633830 44 17844256129405072141
636775 72 17690280839513378068
77188 2 17259059022806739951
7808743 9 18338797922167785240

> <PUBCHEM_SHAPE_MULTIPOLES>
426.96
12.53
3.27
0.86
1.32
2.05
-0.08
-11.07
-2.04
-0.93
0.86
-0.57
-0.08
-0.59

> <PUBCHEM_SHAPE_SELFOVERLAP>
962.694

> <PUBCHEM_SHAPE_VOLUME>
224

> <PUBCHEM_COORDINATE_TYPE>
2
5
10

$$$$
