49830784
  -OEChem-10062121533D

 27 29  0     0  0  0  0  0  0999 V2000
   -0.9190    1.5462   -0.1880 N   0  0  0  0  0  0  0  0  0  0  0  0
   -2.1611    2.0535   -0.2584 N   0  0  0  0  0  0  0  0  0  0  0  0
   -4.2998    0.9830   -0.1510 N   0  0  0  0  0  0  0  0  0  0  0  0
   -0.8761    0.1873   -0.0292 C   0  0  0  0  0  0  0  0  0  0  0  0
    0.1954   -0.7011    0.0839 C   0  0  0  0  0  0  0  0  0  0  0  0
   -2.2053   -0.2192    0.0066 C   0  0  0  0  0  0  0  0  0  0  0  0
    1.5595   -0.2342    0.0409 C   0  0  0  0  0  0  0  0  0  0  0  0
   -0.1177   -2.0554    0.2392 C   0  0  0  0  0  0  0  0  0  0  0  0
   -2.9408    0.9766   -0.1395 C   0  0  0  0  0  0  0  0  0  0  0  0
   -2.5038   -1.5830    0.1634 C   0  0  0  0  0  0  0  0  0  0  0  0
   -1.4436   -2.4910    0.2788 C   0  0  0  0  0  0  0  0  0  0  0  0
    2.4238   -0.6969   -0.9513 C   0  0  0  0  0  0  0  0  0  0  0  0
    2.0143    0.6799    0.9913 C   0  0  0  0  0  0  0  0  0  0  0  0
    3.7430   -0.2455   -0.9933 C   0  0  0  0  0  0  0  0  0  0  0  0
    3.3334    1.1313    0.9494 C   0  0  0  0  0  0  0  0  0  0  0  0
    4.1978    0.6685   -0.0429 C   0  0  0  0  0  0  0  0  0  0  0  0
    0.6739   -2.7961    0.3375 H   0  0  0  0  0  0  0  0  0  0  0  0
   -3.5294   -1.9378    0.1962 H   0  0  0  0  0  0  0  0  0  0  0  0
   -0.1395    2.1882   -0.2597 H   0  0  0  0  0  0  0  0  0  0  0  0
   -1.6577   -3.5495    0.4019 H   0  0  0  0  0  0  0  0  0  0  0  0
    2.0879   -1.4055   -1.7048 H   0  0  0  0  0  0  0  0  0  0  0  0
    1.3615    1.0466    1.7800 H   0  0  0  0  0  0  0  0  0  0  0  0
    4.4159   -0.6048   -1.7664 H   0  0  0  0  0  0  0  0  0  0  0  0
    3.6884    1.8413    1.6906 H   0  0  0  0  0  0  0  0  0  0  0  0
   -4.8591    0.1406   -0.0571 H   0  0  0  0  0  0  0  0  0  0  0  0
   -4.8297    1.8426   -0.2555 H   0  0  0  0  0  0  0  0  0  0  0  0
    5.2249    1.0199   -0.0752 H   0  0  0  0  0  0  0  0  0  0  0  0
  1  2  1  0  0  0  0
  1  4  1  0  0  0  0
  1 19  1  0  0  0  0
  2  9  2  0  0  0  0
  3  9  1  0  0  0  0
  3 25  1  0  0  0  0
  3 26  1  0  0  0  0
  4  5  1  0  0  0  0
  4  6  2  0  0  0  0
  5  7  1  0  0  0  0
  5  8  2  0  0  0  0
  6  9  1  0  0  0  0
  6 10  1  0  0  0  0
  7 12  2  0  0  0  0
  7 13  1  0  0  0  0
  8 11  1  0  0  0  0
  8 17  1  0  0  0  0
 10 11  2  0  0  0  0
 10 18  1  0  0  0  0
 11 20  1  0  0  0  0
 12 14  1  0  0  0  0
 12 21  1  0  0  0  0
 13 15  2  0  0  0  0
 13 22  1  0  0  0  0
 14 16  2  0  0  0  0
 14 23  1  0  0  0  0
 15 16  1  0  0  0  0
 15 24  1  0  0  0  0
 16 27  1  0  0  0  0
M  END
> <PUBCHEM_COMPOUND_CID>
49830784

> <PUBCHEM_CONFORMER_RMSD>
0.6

> <PUBCHEM_CONFORMER_DIVERSEORDER>
1
2

> <PUBCHEM_MMFF94_PARTIAL_CHARGES>
24
1 0.3
10 -0.15
11 -0.15
12 -0.15
13 -0.15
14 -0.15
15 -0.15
16 -0.15
17 0.15
18 0.15
19 0.27
2 -0.71
20 0.15
21 0.15
22 0.15
23 0.15
24 0.15
25 0.4
26 0.4
27 0.15
3 -0.88
4 -0.15
8 -0.15
9 0.37

> <PUBCHEM_EFFECTIVE_ROTOR_COUNT>
1

> <PUBCHEM_PHARMACOPHORE_FEATURES>
6
1 1 donor
1 3 donor
3 2 3 9 cation
5 1 2 4 6 9 rings
6 4 5 6 8 10 11 rings
6 7 12 13 14 15 16 rings

> <PUBCHEM_HEAVY_ATOM_COUNT>
16

> <PUBCHEM_ATOM_DEF_STEREO_COUNT>
0

> <PUBCHEM_ATOM_UDEF_STEREO_COUNT>
0

> <PUBCHEM_BOND_DEF_STEREO_COUNT>
0

> <PUBCHEM_BOND_UDEF_STEREO_COUNT>
0

> <PUBCHEM_ISOTOPIC_ATOM_COUNT>
0

> <PUBCHEM_COMPONENT_COUNT>
1

> <PUBCHEM_CACTVS_TAUTO_COUNT>
13

> <PUBCHEM_CONFORMER_ID>
02F85B8000000001

> <PUBCHEM_MMFF94_ENERGY>
41.176

> <PUBCHEM_FEATURE_SELFOVERLAP>
30.537

> <PUBCHEM_SHAPE_FINGERPRINT>
10498660 4 18335135392974533589
10608611 8 18271241728955394936
11132069 177 18410009961535541513
11543360 7 16558735837243859397
12173636 292 18409164381380448709
12236239 1 17240482528951780588
12500047 106 18410291419638403158
13380535 76 18412260601629098014
13538477 17 17967247628620713586
13583140 156 16443059517589390557
13764800 53 18334300872286147203
13878862 14 17110152725851272077
14614273 12 18113887243901769647
15219456 202 18131071575704430890
15669948 3 18334851766282472034
15775835 57 18260546701768098562
16945 1 18335138738759240795
17357779 13 18054492871521173407
17846911 113 18409722954725369209
18186145 218 18202008689941741088
19049666 15 18272377438599254938
19784866 240 14836133100469215556
200 152 16559032683802858342
20279233 1 18202284719042423086
20510252 161 18341053011878699915
20645476 183 17748831825432486595
20645477 56 18409450297385075936
20645477 70 17203334377714441334
21501502 16 18409722937646084106
21524375 3 18264768766242139499
22802520 49 18272661125273107094
23402539 116 18411408540558025566
23526113 38 17845663538601131334
23557571 272 18270127944940304262
23559900 14 18341898481261390078
25 1 18200879448323521248
2748010 2 18194394730938664193
350125 39 17974570186998705613
4028521 119 18411131416399146437
43471831 8 18259698986814689339
495365 180 17417797440531984930
5104073 3 18411136970034414946
53812653 166 18412824668394978378
6049 1 18129392642965760618
6333449 129 18411981390258180463
633830 44 18129094533533759637
69090 78 18202278108797773399
7364860 26 18123747561011298226
77492 1 17167857612620550410
81228 2 18191587656083339787
8809292 202 18413394237230710298
9709674 26 18343305894283022270

> <PUBCHEM_SHAPE_MULTIPOLES>
314.33
6.88
2.1
0.87
2.48
0.6
-0.01
-2.37
0.57
-1.71
-0.13
0.67
-0.01
0.78

> <PUBCHEM_SHAPE_SELFOVERLAP>
707.884

> <PUBCHEM_SHAPE_VOLUME>
165.8

> <PUBCHEM_COORDINATE_TYPE>
2
5
10

$$$$
