44591740
  -OEChem-10062122023D

 49 52  0     0  0  0  0  0  0999 V2000
   -2.7780    4.3802   -1.0220 O   0  0  0  0  0  0  0  0  0  0  0  0
    3.1661   -0.2958   -0.1243 N   0  0  0  0  0  0  0  0  0  0  0  0
   -3.0358   -1.5049    1.2500 N   0  0  0  0  0  0  0  0  0  0  0  0
   -2.9297   -2.7839    1.6487 N   0  0  0  0  0  0  0  0  0  0  0  0
    1.0267   -1.2257    0.1280 N   0  0  0  0  0  0  0  0  0  0  0  0
    2.5261   -2.0175   -1.5844 N   0  0  0  0  0  0  0  0  0  0  0  0
   -1.9193    0.3445   -0.0417 C   0  0  0  0  0  0  0  0  0  0  0  0
   -3.0699    0.6329   -1.0226 C   0  0  0  0  0  0  0  0  0  0  0  0
   -1.8813    1.3890    1.0880 C   0  0  0  0  0  0  0  0  0  0  0  0
   -2.9922    2.0565   -1.5682 C   0  0  0  0  0  0  0  0  0  0  0  0
   -1.8097    2.8086    0.5315 C   0  0  0  0  0  0  0  0  0  0  0  0
   -2.9501    3.0902   -0.4454 C   0  0  0  0  0  0  0  0  0  0  0  0
    2.9513    0.6206    0.9752 C   0  0  0  0  0  0  0  0  0  0  0  0
    2.2004    1.8604    0.5050 C   0  0  0  0  0  0  0  0  0  0  0  0
    4.2748    1.1957    1.4644 C   0  0  0  0  0  0  0  0  0  0  0  0
    3.2679    2.7496   -0.1293 C   0  0  0  0  0  0  0  0  0  0  0  0
    4.6008    2.3184    0.4821 C   0  0  0  0  0  0  0  0  0  0  0  0
   -1.9814   -1.0717    0.5009 C   0  0  0  0  0  0  0  0  0  0  0  0
   -1.1259   -2.1419    0.4028 C   0  0  0  0  0  0  0  0  0  0  0  0
    0.1187   -2.1257   -0.3028 C   0  0  0  0  0  0  0  0  0  0  0  0
    2.1915   -1.2255   -0.5478 C   0  0  0  0  0  0  0  0  0  0  0  0
   -1.7609   -3.1677    1.1282 C   0  0  0  0  0  0  0  0  0  0  0  0
    0.3379   -2.9932   -1.3535 C   0  0  0  0  0  0  0  0  0  0  0  0
    1.5720   -2.8931   -1.9629 C   0  0  0  0  0  0  0  0  0  0  0  0
   -0.9853    0.4470   -0.6100 H   0  0  0  0  0  0  0  0  0  0  0  0
   -4.0389    0.4922   -0.5265 H   0  0  0  0  0  0  0  0  0  0  0  0
   -3.0398   -0.0788   -1.8569 H   0  0  0  0  0  0  0  0  0  0  0  0
   -2.7720    1.2978    1.7229 H   0  0  0  0  0  0  0  0  0  0  0  0
   -1.0150    1.2089    1.7367 H   0  0  0  0  0  0  0  0  0  0  0  0
   -2.1041    2.1638   -2.2047 H   0  0  0  0  0  0  0  0  0  0  0  0
   -3.8500    2.2549   -2.2221 H   0  0  0  0  0  0  0  0  0  0  0  0
   -1.8372    3.5340    1.3535 H   0  0  0  0  0  0  0  0  0  0  0  0
   -0.8464    2.9669    0.0299 H   0  0  0  0  0  0  0  0  0  0  0  0
   -3.9078    3.0879    0.0887 H   0  0  0  0  0  0  0  0  0  0  0  0
    2.4379    0.1184    1.8029 H   0  0  0  0  0  0  0  0  0  0  0  0
    1.7691    2.3785    1.3706 H   0  0  0  0  0  0  0  0  0  0  0  0
    1.3858    1.6486   -0.1943 H   0  0  0  0  0  0  0  0  0  0  0  0
    5.0788    0.4546    1.5172 H   0  0  0  0  0  0  0  0  0  0  0  0
    4.1444    1.6218    2.4669 H   0  0  0  0  0  0  0  0  0  0  0  0
    3.2923    2.6024   -1.2152 H   0  0  0  0  0  0  0  0  0  0  0  0
    3.0606    3.8091    0.0523 H   0  0  0  0  0  0  0  0  0  0  0  0
    5.1064    3.1502    0.9832 H   0  0  0  0  0  0  0  0  0  0  0  0
    5.2713    1.9558   -0.3056 H   0  0  0  0  0  0  0  0  0  0  0  0
    4.0270   -0.2639   -0.6582 H   0  0  0  0  0  0  0  0  0  0  0  0
   -3.8593   -0.9853    1.5274 H   0  0  0  0  0  0  0  0  0  0  0  0
   -2.7577    5.0257   -0.2950 H   0  0  0  0  0  0  0  0  0  0  0  0
   -1.4241   -4.1801    1.3022 H   0  0  0  0  0  0  0  0  0  0  0  0
   -0.3989   -3.7108   -1.6930 H   0  0  0  0  0  0  0  0  0  0  0  0
    1.8355   -3.5333   -2.7980 H   0  0  0  0  0  0  0  0  0  0  0  0
  1 12  1  0  0  0  0
  1 46  1  0  0  0  0
  2 13  1  0  0  0  0
  2 21  1  0  0  0  0
  2 44  1  0  0  0  0
  3  4  1  0  0  0  0
  3 18  1  0  0  0  0
  3 45  1  0  0  0  0
  4 22  2  0  0  0  0
  5 20  2  0  0  0  0
  5 21  1  0  0  0  0
  6 21  2  0  0  0  0
  6 24  1  0  0  0  0
  7  8  1  0  0  0  0
  7  9  1  0  0  0  0
  7 18  1  0  0  0  0
  7 25  1  0  0  0  0
  8 10  1  0  0  0  0
  8 26  1  0  0  0  0
  8 27  1  0  0  0  0
  9 11  1  0  0  0  0
  9 28  1  0  0  0  0
  9 29  1  0  0  0  0
 10 12  1  0  0  0  0
 10 30  1  0  0  0  0
 10 31  1  0  0  0  0
 11 12  1  0  0  0  0
 11 32  1  0  0  0  0
 11 33  1  0  0  0  0
 12 34  1  0  0  0  0
 13 14  1  0  0  0  0
 13 15  1  0  0  0  0
 13 35  1  0  0  0  0
 14 16  1  0  0  0  0
 14 36  1  0  0  0  0
 14 37  1  0  0  0  0
 15 17  1  0  0  0  0
 15 38  1  0  0  0  0
 15 39  1  0  0  0  0
 16 17  1  0  0  0  0
 16 40  1  0  0  0  0
 16 41  1  0  0  0  0
 17 42  1  0  0  0  0
 17 43  1  0  0  0  0
 18 19  2  0  0  0  0
 19 20  1  0  0  0  0
 19 22  1  0  0  0  0
 20 23  1  0  0  0  0
 22 47  1  0  0  0  0
 23 24  2  0  0  0  0
 23 48  1  0  0  0  0
 24 49  1  0  0  0  0
M  END
> <PUBCHEM_COMPOUND_CID>
44591740

> <PUBCHEM_CONFORMER_RMSD>
0.8

> <PUBCHEM_CONFORMER_DIVERSEORDER>
1
106
99
64
54
183
129
148
114
123
43
130
94
133
140
66
196
146
151
100
193
188
191
80
131
83
75
87
65
147
13
67
178
51
84
108
173
102
134
174
95
73
177
184
72
182
156
168
55
198
105
59
60
107
93
69
25
163
119
22
169
40
47
186
200
118
181
128
37
52
62
166
113
197
68
76
137
77
41
187
126
97
179
185
110
19
199
27
9
175
18
145
79
70
112
195
82
101
29
111
103
12
26
48
159
141
144
138
96
38
139
11
85
39
132
63
61
171
150
10
167
160
170
14
44
135
56
23
81
16
157
122
4
143
172
180
31
33
30
32
124
86
20
6
78
5
91
7
17
125
71
57
28
53
162
165
109
120
117
192
24
58
155
161
36
92
154
15
46
176
116
3
74
152
34
136
45
153
8
35
164
142
158
189
121
50
88
194
104
42
2
98
127
49
89
149
115
90
190
21

> <PUBCHEM_MMFF94_PARTIAL_CHARGES>
22
1 -0.68
12 0.28
13 0.37
18 -0.33
19 -0.05
2 -0.87
20 0.36
21 0.72
22 0.14
23 -0.15
24 0.16
3 0.3
4 -0.71
44 0.4
45 0.27
46 0.4
47 0.15
48 0.15
49 0.15
5 -0.62
6 -0.62
7 0.18

> <PUBCHEM_EFFECTIVE_ROTOR_COUNT>
6.2

> <PUBCHEM_PHARMACOPHORE_FEATURES>
11
1 1 acceptor
1 1 donor
1 2 donor
1 3 donor
1 4 acceptor
1 5 acceptor
4 2 5 6 21 cation
5 13 14 15 16 17 rings
5 3 4 18 19 22 rings
6 5 6 20 21 23 24 rings
6 7 8 9 10 11 12 rings

> <PUBCHEM_HEAVY_ATOM_COUNT>
24

> <PUBCHEM_ATOM_DEF_STEREO_COUNT>
0

> <PUBCHEM_ATOM_UDEF_STEREO_COUNT>
0

> <PUBCHEM_BOND_DEF_STEREO_COUNT>
0

> <PUBCHEM_BOND_UDEF_STEREO_COUNT>
0

> <PUBCHEM_ISOTOPIC_ATOM_COUNT>
0

> <PUBCHEM_COMPONENT_COUNT>
1

> <PUBCHEM_CACTVS_TAUTO_COUNT>
21

> <PUBCHEM_CONFORMER_ID>
02A86A7C00000001

> <PUBCHEM_MMFF94_ENERGY>
45.9199

> <PUBCHEM_FEATURE_SELFOVERLAP>
55.822

> <PUBCHEM_SHAPE_FINGERPRINT>
10165383 225 17251216850457173943
10670039 82 18120951744108873044
10871710 139 17401766827271470780
11221954 11 18340483370186817966
11370993 70 18339346483912556820
12293681 160 17257388344615235438
12769317 202 17106782735284745533
13149001 5 17981345407619042958
13294875 104 17683805410601703979
13402501 40 18340203093870122913
13583140 156 18261103085097118466
14251764 38 18339067212337997372
17492 54 17909797124125918127
17974551 9 17532368660806875834
20600515 1 17605845943637035587
21860390 5 17767673971788124628
22182313 1 18272662263956242870
22749437 52 18411974746097196104
22907989 373 18191579963633635885
23558518 356 18337946788714878397
238 59 18058160631398886295
25019877 29 16338664371618960998
3187 122 18115875281273387593
3380486 145 18194689391750602763
3886686 26 17898268534118672162
469060 322 17767673224142697991
474 4 18124864677683399905
508706 21 18410014321275539316
5262128 65 17269754616269310311
54672768 99 18339078182006653652
621550 34 18270415982664583483
7399639 24 18270691968462047763
7471813 234 16173397328809043391
7808743 9 17898035476154405142
81228 2 18043559207767522155
84936 182 17469601807063712669
90316 7 18047472506556818051
9709674 26 18412542089501130164
9862522 239 18128526253673240074
9981440 41 18199444654474466650

> <PUBCHEM_SHAPE_MULTIPOLES>
463.13
7.23
5.35
1.59
6.06
1.42
-0.23
5.35
1.34
-2.83
-1.38
-0.39
-0.83
3.15

> <PUBCHEM_SHAPE_SELFOVERLAP>
992.243

> <PUBCHEM_SHAPE_VOLUME>
254.1

> <PUBCHEM_COORDINATE_TYPE>
2
5
10

$$$$
