44376042
  -OEChem-10062121593D

 60 64  0     0  0  0  0  0  0999 V2000
   -0.2123   -1.9015   -2.0172 S   0  0  0  0  0  0  0  0  0  0  0  0
    5.4591    1.0801    1.3578 S   0  0  0  0  0  0  0  0  0  0  0  0
   -3.5835    0.2481   -2.3703 O   0  0  0  0  0  0  0  0  0  0  0  0
   -5.3956   -0.7366    1.7194 O   0  0  0  0  0  0  0  0  0  0  0  0
    0.7175    1.3176   -0.8158 N   0  0  0  0  0  0  0  0  0  0  0  0
   -2.8337    0.3775    2.3359 N   0  0  0  0  0  0  0  0  0  0  0  0
   -4.8128   -0.3973   -0.5066 N   0  0  0  0  0  0  0  0  0  0  0  0
    8.0247    0.6057    1.7286 N   0  0  0  0  0  0  0  0  0  0  0  0
    7.1768    0.0638   -0.4077 N   0  0  0  0  0  0  0  0  0  0  0  0
   -0.2878    0.4154   -0.5923 C   0  0  0  0  0  0  0  0  0  0  0  0
   -1.4531    1.1200   -0.3954 C   0  0  0  0  0  0  0  0  0  0  0  0
    0.2228    2.6013   -0.7672 C   0  0  0  0  0  0  0  0  0  0  0  0
   -1.1452    2.5051   -0.5033 C   0  0  0  0  0  0  0  0  0  0  0  0
    2.1051    0.9839   -1.0713 C   0  0  0  0  0  0  0  0  0  0  0  0
   -2.7651    0.5296   -0.1253 C   0  0  0  0  0  0  0  0  0  0  0  0
   -0.0715   -0.9890   -0.5843 C   0  0  0  0  0  0  0  0  0  0  0  0
    2.9796    1.2100    0.1657 C   0  0  0  0  0  0  0  0  0  0  0  0
   -3.2978    0.2378    1.0724 C   0  0  0  0  0  0  0  0  0  0  0  0
    0.8749    3.8281   -0.9349 C   0  0  0  0  0  0  0  0  0  0  0  0
   -1.9013    3.6898   -0.4015 C   0  0  0  0  0  0  0  0  0  0  0  0
   -3.7379    0.1204   -1.1677 C   0  0  0  0  0  0  0  0  0  0  0  0
    0.2595   -1.7727    0.4955 C   0  0  0  0  0  0  0  0  0  0  0  0
    0.1046    4.9896   -0.8294 C   0  0  0  0  0  0  0  0  0  0  0  0
   -1.2623    4.9240   -0.5670 C   0  0  0  0  0  0  0  0  0  0  0  0
    4.4266    0.8119   -0.1118 C   0  0  0  0  0  0  0  0  0  0  0  0
    0.4055   -3.1596    0.1557 C   0  0  0  0  0  0  0  0  0  0  0  0
   -4.6337   -0.3605    0.8447 C   0  0  0  0  0  0  0  0  0  0  0  0
    0.1716   -3.3740   -1.2062 C   0  0  0  0  0  0  0  0  0  0  0  0
    0.7344   -4.2758    0.9623 C   0  0  0  0  0  0  0  0  0  0  0  0
   -3.2365   -0.5307    3.4105 C   0  0  0  0  0  0  0  0  0  0  0  0
   -1.7230    1.2753    2.6559 C   0  0  0  0  0  0  0  0  0  0  0  0
    0.2570   -4.6601   -1.7746 C   0  0  0  0  0  0  0  0  0  0  0  0
    0.8199   -5.5529    0.4017 C   0  0  0  0  0  0  0  0  0  0  0  0
    0.5834   -5.7407   -0.9527 C   0  0  0  0  0  0  0  0  0  0  0  0
    7.0300    0.5164    0.7963 C   0  0  0  0  0  0  0  0  0  0  0  0
    2.4446    1.6086   -1.9061 H   0  0  0  0  0  0  0  0  0  0  0  0
    2.1820   -0.0515   -1.4134 H   0  0  0  0  0  0  0  0  0  0  0  0
    2.5819    0.6190    1.0013 H   0  0  0  0  0  0  0  0  0  0  0  0
    2.9336    2.2615    0.4734 H   0  0  0  0  0  0  0  0  0  0  0  0
    1.9375    3.8919   -1.1431 H   0  0  0  0  0  0  0  0  0  0  0  0
   -2.9677    3.6563   -0.1971 H   0  0  0  0  0  0  0  0  0  0  0  0
    0.3962   -1.3815    1.4971 H   0  0  0  0  0  0  0  0  0  0  0  0
    0.5804    5.9589   -0.9552 H   0  0  0  0  0  0  0  0  0  0  0  0
   -1.8405    5.8410   -0.4896 H   0  0  0  0  0  0  0  0  0  0  0  0
    4.8234    1.4070   -0.9412 H   0  0  0  0  0  0  0  0  0  0  0  0
    4.4708   -0.2460   -0.3921 H   0  0  0  0  0  0  0  0  0  0  0  0
   -5.6429   -0.7585   -0.9624 H   0  0  0  0  0  0  0  0  0  0  0  0
    0.9225   -4.1443    2.0251 H   0  0  0  0  0  0  0  0  0  0  0  0
   -2.4741   -0.5810    4.1966 H   0  0  0  0  0  0  0  0  0  0  0  0
   -3.3659   -1.5562    3.0463 H   0  0  0  0  0  0  0  0  0  0  0  0
   -4.1641   -0.1835    3.8768 H   0  0  0  0  0  0  0  0  0  0  0  0
   -1.6705    1.4580    3.7359 H   0  0  0  0  0  0  0  0  0  0  0  0
   -1.8625    2.2586    2.1996 H   0  0  0  0  0  0  0  0  0  0  0  0
   -0.7649    0.8438    2.3529 H   0  0  0  0  0  0  0  0  0  0  0  0
    0.0735   -4.8166   -2.8338 H   0  0  0  0  0  0  0  0  0  0  0  0
    1.0730   -6.4014    1.0311 H   0  0  0  0  0  0  0  0  0  0  0  0
    0.6523   -6.7375   -1.3799 H   0  0  0  0  0  0  0  0  0  0  0  0
    8.9725    0.3107    1.5210 H   0  0  0  0  0  0  0  0  0  0  0  0
    7.8439    0.9705    2.6576 H   0  0  0  0  0  0  0  0  0  0  0  0
    8.1559   -0.2124   -0.5401 H   0  0  0  0  0  0  0  0  0  0  0  0
  1 16  1  0  0  0  0
  1 28  1  0  0  0  0
  2 25  1  0  0  0  0
  2 35  1  0  0  0  0
  3 21  2  0  0  0  0
  4 27  2  0  0  0  0
  5 10  1  0  0  0  0
  5 12  1  0  0  0  0
  5 14  1  0  0  0  0
  6 18  1  0  0  0  0
  6 30  1  0  0  0  0
  6 31  1  0  0  0  0
  7 21  1  0  0  0  0
  7 27  1  0  0  0  0
  7 47  1  0  0  0  0
  8 35  1  0  0  0  0
  8 58  1  0  0  0  0
  8 59  1  0  0  0  0
  9 35  2  0  0  0  0
  9 60  1  0  0  0  0
 10 11  2  0  0  0  0
 10 16  1  0  0  0  0
 11 13  1  0  0  0  0
 11 15  1  0  0  0  0
 12 13  1  0  0  0  0
 12 19  2  0  0  0  0
 13 20  2  0  0  0  0
 14 17  1  0  0  0  0
 14 36  1  0  0  0  0
 14 37  1  0  0  0  0
 15 18  2  0  0  0  0
 15 21  1  0  0  0  0
 16 22  2  0  0  0  0
 17 25  1  0  0  0  0
 17 38  1  0  0  0  0
 17 39  1  0  0  0  0
 18 27  1  0  0  0  0
 19 23  1  0  0  0  0
 19 40  1  0  0  0  0
 20 24  1  0  0  0  0
 20 41  1  0  0  0  0
 22 26  1  0  0  0  0
 22 42  1  0  0  0  0
 23 24  2  0  0  0  0
 23 43  1  0  0  0  0
 24 44  1  0  0  0  0
 25 45  1  0  0  0  0
 25 46  1  0  0  0  0
 26 28  1  0  0  0  0
 26 29  2  0  0  0  0
 28 32  2  0  0  0  0
 29 33  1  0  0  0  0
 29 48  1  0  0  0  0
 30 49  1  0  0  0  0
 30 50  1  0  0  0  0
 30 51  1  0  0  0  0
 31 52  1  0  0  0  0
 31 53  1  0  0  0  0
 31 54  1  0  0  0  0
 32 34  1  0  0  0  0
 32 55  1  0  0  0  0
 33 34  2  0  0  0  0
 33 56  1  0  0  0  0
 34 57  1  0  0  0  0
M  END
> <PUBCHEM_COMPOUND_CID>
44376042

> <PUBCHEM_CONFORMER_RMSD>
1

> <PUBCHEM_CONFORMER_DIVERSEORDER>
3
30
77
8
51
36
75
2
50
63
68
12
25
44
55
48
74
41
71
35
38
20
61
47
22
6
39
76
58
66
16
31
70
21
10
37
73
43
11
7
72
18
67
53
5
19
60
24
14
33
1
4
56
27
62
9
52
59
28
29
34
17
32
42
26
23
65
45
49
64
54
57
13
15
40
46
69

> <PUBCHEM_MMFF94_PARTIAL_CHARGES>
45
1 -0.08
10 -0.15
11 -0.05
12 -0.15
14 0.26
15 0.06
16 0.04
18 0.11
19 -0.15
2 -0.37
20 -0.15
21 0.62
22 -0.15
23 -0.15
24 -0.15
25 0.23
27 0.62
28 0.04
29 -0.15
3 -0.57
30 0.37
31 0.37
32 -0.15
33 -0.15
34 -0.15
35 0.64
4 -0.57
40 0.15
41 0.15
42 0.15
43 0.15
44 0.15
47 0.37
48 0.15
5 0.05
55 0.15
56 0.15
57 0.15
58 0.4
59 0.4
6 -0.84
60 0.4
7 -0.49
8 -0.85
9 -0.85

> <PUBCHEM_EFFECTIVE_ROTOR_COUNT>
8.2

> <PUBCHEM_PHARMACOPHORE_FEATURES>
13
1 3 acceptor
1 4 acceptor
1 5 cation
1 6 cation
1 7 donor
1 8 donor
1 9 donor
3 8 9 35 cation
5 1 16 22 26 28 rings
5 5 10 11 12 13 rings
5 7 15 18 21 27 rings
6 12 13 19 20 23 24 rings
6 26 28 29 32 33 34 rings

> <PUBCHEM_HEAVY_ATOM_COUNT>
35

> <PUBCHEM_ATOM_DEF_STEREO_COUNT>
0

> <PUBCHEM_ATOM_UDEF_STEREO_COUNT>
0

> <PUBCHEM_BOND_DEF_STEREO_COUNT>
0

> <PUBCHEM_BOND_UDEF_STEREO_COUNT>
0

> <PUBCHEM_ISOTOPIC_ATOM_COUNT>
0

> <PUBCHEM_COMPONENT_COUNT>
1

> <PUBCHEM_CACTVS_TAUTO_COUNT>
3

> <PUBCHEM_CONFORMER_ID>
02A51FEA00000003

> <PUBCHEM_MMFF94_ENERGY>
83.7246

> <PUBCHEM_FEATURE_SELFOVERLAP>
66.162

> <PUBCHEM_SHAPE_FINGERPRINT>
10074138 170 18197203957679119402
102385 1 17834110849252357732
10930396 42 18124000629723141064
1100329 8 18121214539407298988
11007060 377 18201144542954588544
11115154 58 16767854320353224839
11578080 2 17914616047309548369
12156800 1 16034017810702944463
12608794 3 18270125728547814936
13911987 19 18261683665500530221
14705955 166 15238890459018083498
14866123 147 18266451195485518246
15439362 3 17400346864145384236
15775530 1 17832992641769014028
15815584 197 18337691723376227927
16728300 4 17750497530088376994
20028762 73 18127141985830531215
22311459 1 18265331703338105093
255183 313 18343303708202599970
283562 15 18341603781316094652
3380486 77 18338805631507962181
3383291 50 18409725188741534818
5171179 24 17907303148033338474
5265222 85 18265913363302094046
57527452 28 18129930291403978941
6376802 137 17129577118704099287
9896288 288 18265612092294036472
9981440 41 18192702363495650704

> <PUBCHEM_SHAPE_MULTIPOLES>
691.34
10.68
7.59
2.23
23.19
6.63
-1.51
-4.33
-6.66
0.93
3.28
-1.89
0.5
0.86

> <PUBCHEM_SHAPE_SELFOVERLAP>
1501.621

> <PUBCHEM_SHAPE_VOLUME>
384

> <PUBCHEM_COORDINATE_TYPE>
2
5
10

$$$$
