49831031
  -OEChem-10052120443D

 29 31  0     0  0  0  0  0  0999 V2000
   -4.5547    1.1085   -1.1085 F   0  0  0  0  0  0  0  0  0  0  0  0
   -5.0943   -0.6528    0.0467 F   0  0  0  0  0  0  0  0  0  0  0  0
   -4.5363    1.1889    1.0587 F   0  0  0  0  0  0  0  0  0  0  0  0
    0.5342    1.4199   -0.0772 O   0  0  0  0  0  0  0  0  0  0  0  0
    4.1768   -1.6859   -0.0255 O   0  0  0  0  0  0  0  0  0  0  0  0
    1.5773   -2.5117    0.0556 O   0  0  0  0  0  0  0  0  0  0  0  0
    2.7976    2.2179   -0.0919 C   0  0  0  0  0  0  0  0  0  0  0  0
    4.1794    1.8797    0.4493 C   0  0  0  0  0  0  0  0  0  0  0  0
    1.8664    1.0356   -0.0725 C   0  0  0  0  0  0  0  0  0  0  0  0
    4.7221    0.6280   -0.2137 C   0  0  0  0  0  0  0  0  0  0  0  0
    2.2904   -0.2419   -0.0320 C   0  0  0  0  0  0  0  0  0  0  0  0
    3.7595   -0.5289   -0.0630 C   0  0  0  0  0  0  0  0  0  0  0  0
   -0.1358   -0.9068    0.0140 C   0  0  0  0  0  0  0  0  0  0  0  0
    1.2735   -1.3267    0.0163 C   0  0  0  0  0  0  0  0  0  0  0  0
   -0.4322    0.4514   -0.0340 C   0  0  0  0  0  0  0  0  0  0  0  0
   -1.7614    0.8765   -0.0384 C   0  0  0  0  0  0  0  0  0  0  0  0
   -1.1647   -1.8517    0.0577 C   0  0  0  0  0  0  0  0  0  0  0  0
   -2.7914   -0.0631    0.0051 C   0  0  0  0  0  0  0  0  0  0  0  0
   -2.4933   -1.4251    0.0529 C   0  0  0  0  0  0  0  0  0  0  0  0
   -4.2131    0.3883    0.0005 C   0  0  0  0  0  0  0  0  0  0  0  0
    2.8755    2.5886   -1.1213 H   0  0  0  0  0  0  0  0  0  0  0  0
    2.3781    3.0319    0.5117 H   0  0  0  0  0  0  0  0  0  0  0  0
    4.8623    2.7205    0.2843 H   0  0  0  0  0  0  0  0  0  0  0  0
    4.1180    1.7238    1.5343 H   0  0  0  0  0  0  0  0  0  0  0  0
    5.6734    0.3544    0.2557 H   0  0  0  0  0  0  0  0  0  0  0  0
    4.8983    0.7914   -1.2825 H   0  0  0  0  0  0  0  0  0  0  0  0
   -1.9922    1.9384   -0.0756 H   0  0  0  0  0  0  0  0  0  0  0  0
   -0.9528   -2.9165    0.0952 H   0  0  0  0  0  0  0  0  0  0  0  0
   -3.2823   -2.1714    0.0871 H   0  0  0  0  0  0  0  0  0  0  0  0
  1 20  1  0  0  0  0
  2 20  1  0  0  0  0
  3 20  1  0  0  0  0
  4  9  1  0  0  0  0
  4 15  1  0  0  0  0
  5 12  2  0  0  0  0
  6 14  2  0  0  0  0
  7  8  1  0  0  0  0
  7  9  1  0  0  0  0
  7 21  1  0  0  0  0
  7 22  1  0  0  0  0
  8 10  1  0  0  0  0
  8 23  1  0  0  0  0
  8 24  1  0  0  0  0
  9 11  2  0  0  0  0
 10 12  1  0  0  0  0
 10 25  1  0  0  0  0
 10 26  1  0  0  0  0
 11 12  1  0  0  0  0
 11 14  1  0  0  0  0
 13 14  1  0  0  0  0
 13 15  2  0  0  0  0
 13 17  1  0  0  0  0
 15 16  1  0  0  0  0
 16 18  2  0  0  0  0
 16 27  1  0  0  0  0
 17 19  2  0  0  0  0
 17 28  1  0  0  0  0
 18 19  1  0  0  0  0
 18 20  1  0  0  0  0
 19 29  1  0  0  0  0
M  END
> <PUBCHEM_COMPOUND_CID>
49831031

> <PUBCHEM_CONFORMER_RMSD>
0.6

> <PUBCHEM_CONFORMER_DIVERSEORDER>
1

> <PUBCHEM_MMFF94_PARTIAL_CHARGES>
22
1 -0.34
10 0.06
11 0.03
12 0.49
13 0.09
14 0.47
15 0.08
16 -0.15
17 -0.15
18 -0.14
19 -0.15
2 -0.34
20 1.16
27 0.15
28 0.15
29 0.15
3 -0.34
4 -0.16
5 -0.57
6 -0.57
7 0.14
9 -0.06

> <PUBCHEM_EFFECTIVE_ROTOR_COUNT>
1.6

> <PUBCHEM_PHARMACOPHORE_FEATURES>
6
1 4 acceptor
1 5 acceptor
1 6 acceptor
6 13 15 16 17 18 19 rings
6 4 9 11 13 14 15 rings
6 7 8 9 10 11 12 rings

> <PUBCHEM_HEAVY_ATOM_COUNT>
20

> <PUBCHEM_ATOM_DEF_STEREO_COUNT>
0

> <PUBCHEM_ATOM_UDEF_STEREO_COUNT>
0

> <PUBCHEM_BOND_DEF_STEREO_COUNT>
0

> <PUBCHEM_BOND_UDEF_STEREO_COUNT>
0

> <PUBCHEM_ISOTOPIC_ATOM_COUNT>
0

> <PUBCHEM_COMPONENT_COUNT>
1

> <PUBCHEM_CACTVS_TAUTO_COUNT>
7

> <PUBCHEM_CONFORMER_ID>
02F85C7700000001

> <PUBCHEM_MMFF94_ENERGY>
36.551

> <PUBCHEM_FEATURE_SELFOVERLAP>
30.501

> <PUBCHEM_SHAPE_FINGERPRINT>
10411042 1 17762055432895438442
10608611 8 18409164445725888404
10967382 1 18410575089496090412
11132069 177 18334289907218919872
11471102 20 18410853248531214838
12236239 1 17917710185036232517
12403259 415 18259701177648475605
12644460 14 18260267399976515162
13140716 1 18409726305116338978
13675066 3 18113341928973178641
138480 1 17906453225376489894
15196674 1 18410856585420357226
15375358 24 18334857233627912923
15536298 74 18341895207889531926
16945 1 18337666421771080174
17834072 33 18272366503501652343
18186145 218 18410292527750339732
200 152 18060699489920819841
20645477 70 18343867701632529686
21033648 29 17895181199904058629
21267235 1 18339369578199393398
21279426 13 18265614282014577516
21452121 103 18341603850567762920
231179 274 18040146305856115412
23402539 116 17989484104742079853
23402655 69 18343864428682690716
23559900 14 18343021112576619056
2748010 2 18337678636800520902
335352 9 18410575046499224438
34934 24 18340481270580806462
350125 39 18337676304401566756
3545911 37 18410577326836616896
4072396 5 18335967697939317122
4214541 1 18410856585805323181
474 4 18261675973277223752
495365 180 17560510815928514456
4990 188 17917721209642288300
5104073 3 18409449206268263323
543358 83 18412267216332031242
602551 16 15937272108274868649
633830 44 18343021124976296228
69090 78 18412823611769856407
7364860 26 18341333301777096678
77779 3 18411139164277353603
8272917 22 18270968950886642566
9709674 26 18410579530002274766
9981440 41 17473820006067616880

> <PUBCHEM_SHAPE_MULTIPOLES>
372.16
9.77
2.2
0.68
4.27
0.41
0
-2.8
0.06
-1.29
0.07
0.28
-0.13
0.14

> <PUBCHEM_SHAPE_SELFOVERLAP>
827.157

> <PUBCHEM_SHAPE_VOLUME>
199.8

> <PUBCHEM_COORDINATE_TYPE>
2
5
10

$$$$
