22607266
  -OEChem-10062121533D

 50 54  0     1  0  0  0  0  0999 V2000
    2.4274    1.7788   -1.0631 O   0  0  0  0  0  0  0  0  0  0  0  0
   -4.5285   -0.3413   -1.8035 O   0  0  0  0  0  0  0  0  0  0  0  0
   -6.6059   -1.3496   -1.9342 O   0  0  0  0  0  0  0  0  0  0  0  0
    3.7152   -2.0548    1.7220 N   0  0  0  0  0  0  0  0  0  0  0  0
    5.1289    1.5253   -2.5602 N   0  0  0  0  0  0  0  0  0  0  0  0
   -5.7651   -0.6209    0.1136 N   0  0  0  0  0  0  0  0  0  0  0  0
    0.6509    3.3786    1.7062 N   0  0  0  0  0  0  0  0  0  0  0  0
    4.0979   -0.4695   -1.5450 C   0  0  0  0  0  0  0  0  0  0  0  0
    4.7140    0.9308   -1.2845 C   0  0  2  0  0  0  0  0  0  0  0  0
    3.6914   -1.1953   -0.3244 C   0  0  0  0  0  0  0  0  0  0  0  0
    2.4718   -1.9004   -0.1239 C   0  0  0  0  0  0  0  0  0  0  0  0
    3.7571    1.8978   -0.5746 C   0  0  0  0  0  0  0  0  0  0  0  0
    2.5122   -2.4300    1.1678 C   0  0  0  0  0  0  0  0  0  0  0  0
    4.4347   -1.3082    0.8279 C   0  0  0  0  0  0  0  0  0  0  0  0
    1.3339   -2.1397   -0.9196 C   0  0  0  0  0  0  0  0  0  0  0  0
    1.4674   -3.1900    1.7054 C   0  0  0  0  0  0  0  0  0  0  0  0
    0.2811   -2.8982   -0.3950 C   0  0  0  0  0  0  0  0  0  0  0  0
    0.3489   -3.4143    0.8976 C   0  0  0  0  0  0  0  0  0  0  0  0
    1.4181    2.0888   -0.1893 C   0  0  0  0  0  0  0  0  0  0  0  0
   -2.1275    1.1771    0.5539 C   0  0  0  0  0  0  0  0  0  0  0  0
   -0.8281    1.8031    0.6218 C   0  0  0  0  0  0  0  0  0  0  0  0
    0.1767    1.4692   -0.2796 C   0  0  0  0  0  0  0  0  0  0  0  0
   -3.8667    0.1519   -0.6896 C   0  0  0  0  0  0  0  0  0  0  0  0
   -4.5937   -0.0073    0.4705 C   0  0  0  0  0  0  0  0  0  0  0  0
   -2.6223    0.7441   -0.6807 C   0  0  0  0  0  0  0  0  0  0  0  0
   -2.8795    1.0094    1.7350 C   0  0  0  0  0  0  0  0  0  0  0  0
   -4.1391    0.4061    1.7021 C   0  0  0  0  0  0  0  0  0  0  0  0
    1.6029    3.0280    0.8126 C   0  0  0  0  0  0  0  0  0  0  0  0
   -0.5429    2.7553    1.5873 C   0  0  0  0  0  0  0  0  0  0  0  0
   -5.7312   -0.8246   -1.2565 C   0  0  0  0  0  0  0  0  0  0  0  0
    3.2504   -0.3732   -2.2354 H   0  0  0  0  0  0  0  0  0  0  0  0
    4.8383   -1.0883   -2.0712 H   0  0  0  0  0  0  0  0  0  0  0  0
    5.6207    0.8329   -0.6749 H   0  0  0  0  0  0  0  0  0  0  0  0
    4.0969    2.9356   -0.6862 H   0  0  0  0  0  0  0  0  0  0  0  0
    3.7972    1.6520    0.4956 H   0  0  0  0  0  0  0  0  0  0  0  0
    5.4112   -0.9299    1.0962 H   0  0  0  0  0  0  0  0  0  0  0  0
    4.0223   -2.2963    2.6541 H   0  0  0  0  0  0  0  0  0  0  0  0
    1.2617   -1.7455   -1.9290 H   0  0  0  0  0  0  0  0  0  0  0  0
    5.6051    2.4100   -2.3889 H   0  0  0  0  0  0  0  0  0  0  0  0
    5.8090    0.9176   -3.0154 H   0  0  0  0  0  0  0  0  0  0  0  0
    1.5191   -3.5918    2.7117 H   0  0  0  0  0  0  0  0  0  0  0  0
   -0.5998   -3.0844   -1.0036 H   0  0  0  0  0  0  0  0  0  0  0  0
   -0.4808   -3.9998    1.2853 H   0  0  0  0  0  0  0  0  0  0  0  0
    0.0373    0.7168   -1.0507 H   0  0  0  0  0  0  0  0  0  0  0  0
   -2.0914    0.8740   -1.6170 H   0  0  0  0  0  0  0  0  0  0  0  0
   -2.4999    1.3120    2.7079 H   0  0  0  0  0  0  0  0  0  0  0  0
   -4.7197    0.2679    2.6062 H   0  0  0  0  0  0  0  0  0  0  0  0
    2.5305    3.5758    0.9395 H   0  0  0  0  0  0  0  0  0  0  0  0
   -1.2734    3.0996    2.3125 H   0  0  0  0  0  0  0  0  0  0  0  0
   -6.5135   -0.8752    0.7461 H   0  0  0  0  0  0  0  0  0  0  0  0
  1 12  1  0  0  0  0
  1 19  1  0  0  0  0
  2 23  1  0  0  0  0
  2 30  1  0  0  0  0
  3 30  2  0  0  0  0
  4 13  1  0  0  0  0
  4 14  1  0  0  0  0
  4 37  1  0  0  0  0
  5  9  1  0  0  0  0
  5 39  1  0  0  0  0
  5 40  1  0  0  0  0
  6 24  1  0  0  0  0
  6 30  1  0  0  0  0
  6 50  1  0  0  0  0
  7 28  1  0  0  0  0
  7 29  2  0  0  0  0
  8  9  1  0  0  0  0
  8 10  1  0  0  0  0
  8 31  1  0  0  0  0
  8 32  1  0  0  0  0
  9 12  1  0  0  0  0
  9 33  1  0  0  0  0
 10 11  1  0  0  0  0
 10 14  2  0  0  0  0
 11 13  1  0  0  0  0
 11 15  2  0  0  0  0
 12 34  1  0  0  0  0
 12 35  1  0  0  0  0
 13 16  2  0  0  0  0
 14 36  1  0  0  0  0
 15 17  1  0  0  0  0
 15 38  1  0  0  0  0
 16 18  1  0  0  0  0
 16 41  1  0  0  0  0
 17 18  2  0  0  0  0
 17 42  1  0  0  0  0
 18 43  1  0  0  0  0
 19 22  1  0  0  0  0
 19 28  2  0  0  0  0
 20 21  1  0  0  0  0
 20 25  2  0  0  0  0
 20 26  1  0  0  0  0
 21 22  2  0  0  0  0
 21 29  1  0  0  0  0
 22 44  1  0  0  0  0
 23 24  2  0  0  0  0
 23 25  1  0  0  0  0
 24 27  1  0  0  0  0
 25 45  1  0  0  0  0
 26 27  2  0  0  0  0
 26 46  1  0  0  0  0
 27 47  1  0  0  0  0
 28 48  1  0  0  0  0
 29 49  1  0  0  0  0
M  END
> <PUBCHEM_COMPOUND_CID>
22607266

> <PUBCHEM_CONFORMER_RMSD>
1.4

> <PUBCHEM_CONFORMER_DIVERSEORDER>
1
25
50
52
76
71
4
12
15
75
54
94
60
63
38
13
17
77
87
14
49
36
56
58
28
7
70
5
61
57
29
45
21
88
10
11
20
55
82
53
69
33
27
84
86
3
79
31
35
90
74
43
37
51
9
40
41
89
72
62
44
67
23
46
83
91
8
6
48
47
95
42
96
26
92
78
39
68
93
65
18
73
80
2
85
24
34
64
22
19
16
81
32
59
30
66

> <PUBCHEM_MMFF94_PARTIAL_CHARGES>
42
1 -0.36
10 -0.18
12 0.28
13 -0.15
14 -0.3
15 -0.15
16 -0.15
17 -0.15
18 -0.15
19 0.08
2 -0.23
22 -0.15
23 0.08
24 0.12
25 -0.15
26 -0.15
27 -0.15
28 0.16
29 0.16
3 -0.57
30 0.78
36 0.15
37 0.27
38 0.15
39 0.36
4 0.03
40 0.36
41 0.15
42 0.15
43 0.15
44 0.15
45 0.15
46 0.15
47 0.15
48 0.15
49 0.15
5 -0.99
50 0.37
6 -0.55
7 -0.62
8 0.18
9 0.27

> <PUBCHEM_EFFECTIVE_ROTOR_COUNT>
6

> <PUBCHEM_PHARMACOPHORE_FEATURES>
13
1 1 acceptor
1 3 acceptor
1 4 cation
1 4 donor
1 5 cation
1 5 donor
1 6 donor
1 7 acceptor
5 2 6 23 24 30 rings
5 4 10 11 13 14 rings
6 11 13 15 16 17 18 rings
6 20 23 24 25 26 27 rings
6 7 19 21 22 28 29 rings

> <PUBCHEM_HEAVY_ATOM_COUNT>
30

> <PUBCHEM_ATOM_DEF_STEREO_COUNT>
0

> <PUBCHEM_ATOM_UDEF_STEREO_COUNT>
1

> <PUBCHEM_BOND_DEF_STEREO_COUNT>
0

> <PUBCHEM_BOND_UDEF_STEREO_COUNT>
0

> <PUBCHEM_ISOTOPIC_ATOM_COUNT>
0

> <PUBCHEM_COMPONENT_COUNT>
1

> <PUBCHEM_CACTVS_TAUTO_COUNT>
2

> <PUBCHEM_CONFORMER_ID>
0158F5A200000001

> <PUBCHEM_MMFF94_ENERGY>
85.1006

> <PUBCHEM_FEATURE_SELFOVERLAP>
66.18

> <PUBCHEM_SHAPE_FINGERPRINT>
10319688 67 18268418196835204680
10764073 3 11387518338010992350
10940486 97 17116366070042941734
1100329 8 18410850005852551178
11069576 57 18262237707924088918
11135609 187 18268993248898916913
11513181 2 17913787019626091646
11545043 162 15339128896440731429
12166972 35 17968930869359671178
12553582 1 18272375213510744665
12788726 201 18200326437262526872
14787075 74 18410864251973865094
14931854 50 18411429418526057172
15001296 14 17987223620683695111
15183329 4 18271241626551855037
17134984 74 18262794202652278127
17138139 8 18271527623210600540
17492 54 18335148613210573878
19026451 147 18340193129208684883
19319366 153 18334007307214680510
20028762 73 18271806770648288134
20775530 9 17683245763862956842
21421861 104 18051156716560487401
21703447 108 17845639478337375169
235170 7 17312827073664976901
392239 28 18200013063869248914
397830 11 10519422009369924157
4098825 35 18041273280623393741
4409770 3 16180985745283415153
4573279 79 15578330868315588498
46194498 28 16661794230357243757
463206 1 18341331180047110067
484989 97 18189630499711423514
513532 50 17632291337225675888
6287921 2 17770511832553211006
6669772 16 18124583443230230432

> <PUBCHEM_SHAPE_MULTIPOLES>
579.85
11.97
4.14
1.98
12.94
0.51
-0.19
2.72
-6.16
-3.45
1.78
0.03
-0.07
-2.92

> <PUBCHEM_SHAPE_SELFOVERLAP>
1300.269

> <PUBCHEM_SHAPE_VOLUME>
306.8

> <PUBCHEM_COORDINATE_TYPE>
2
5
10

$$$$
