10029385
  -OEChem-10062121593D

 63 69  0     0  0  0  0  0  0999 V2000
   -0.2253   -0.4335   -4.2922 F   0  0  0  0  0  0  0  0  0  0  0  0
    5.4700   -1.1588    1.6840 O   0  0  0  0  0  0  0  0  0  0  0  0
   -3.3297   -3.7392   -0.0095 O   0  0  0  0  0  0  0  0  0  0  0  0
   -5.9618   -0.1618    1.1160 O   0  0  0  0  0  0  0  0  0  0  0  0
    0.7549   -1.8459    0.9185 N   0  0  0  0  0  0  0  0  0  0  0  0
    3.7172   -1.5938    0.2413 N   0  0  0  0  0  0  0  0  0  0  0  0
    5.0396    0.3980    0.0489 N   0  0  0  0  0  0  0  0  0  0  0  0
   -4.9684   -2.1792    0.5206 N   0  0  0  0  0  0  0  0  0  0  0  0
   -3.0651    1.8794    0.1532 N   0  0  0  0  0  0  0  0  0  0  0  0
   -2.4672    2.8760    2.0644 N   0  0  0  0  0  0  0  0  0  0  0  0
    0.7570   -1.5108   -0.4255 C   0  0  0  0  0  0  0  0  0  0  0  0
    1.8939   -2.0848    1.7896 C   0  0  0  0  0  0  0  0  0  0  0  0
    3.1441   -2.6187    1.1118 C   0  0  0  0  0  0  0  0  0  0  0  0
    3.2700   -1.6314   -1.1524 C   0  0  0  0  0  0  0  0  0  0  0  0
    1.7978   -1.3698   -1.3755 C   0  0  0  0  0  0  0  0  0  0  0  0
    6.4083    0.9131   -0.0047 C   0  0  0  0  0  0  0  0  0  0  0  0
    4.0011    1.3730   -0.3090 C   0  0  0  0  0  0  0  0  0  0  0  0
   -0.5897   -1.3006   -0.7725 C   0  0  0  0  0  0  0  0  0  0  0  0
    6.5678    2.1436    0.8812 C   0  0  0  0  0  0  0  0  0  0  0  0
    4.1240    2.6357    0.5468 C   0  0  0  0  0  0  0  0  0  0  0  0
    5.5388    3.2102    0.5109 C   0  0  0  0  0  0  0  0  0  0  0  0
   -1.3808   -1.5284    0.3843 C   0  0  0  0  0  0  0  0  0  0  0  0
    4.7800   -0.8052    0.7191 C   0  0  0  0  0  0  0  0  0  0  0  0
   -0.5302   -1.8611    1.4059 C   0  0  0  0  0  0  0  0  0  0  0  0
    1.4089   -1.0139   -2.6874 C   0  0  0  0  0  0  0  0  0  0  0  0
   -2.8023   -1.4469    0.5122 C   0  0  0  0  0  0  0  0  0  0  0  0
   -0.9243   -0.9333   -2.0904 C   0  0  0  0  0  0  0  0  0  0  0  0
    0.0831   -0.7925   -3.0389 C   0  0  0  0  0  0  0  0  0  0  0  0
   -3.5858   -0.4076    0.8458 C   0  0  0  0  0  0  0  0  0  0  0  0
   -3.6948   -2.6164    0.2962 C   0  0  0  0  0  0  0  0  0  0  0  0
   -3.1677    0.9183    1.1329 C   0  0  0  0  0  0  0  0  0  0  0  0
   -4.9949   -0.8582    0.8593 C   0  0  0  0  0  0  0  0  0  0  0  0
   -2.7935    1.5638    2.2959 C   0  0  0  0  0  0  0  0  0  0  0  0
   -2.6358    3.0518    0.7697 C   0  0  0  0  0  0  0  0  0  0  0  0
   -3.3229    1.7761   -1.2109 C   0  0  0  0  0  0  0  0  0  0  0  0
   -2.4578    4.1945   -0.0644 C   0  0  0  0  0  0  0  0  0  0  0  0
   -3.1532    2.8569   -1.9899 C   0  0  0  0  0  0  0  0  0  0  0  0
   -2.7055    4.1013   -1.3852 C   0  0  0  0  0  0  0  0  0  0  0  0
    1.5701   -2.8105    2.5456 H   0  0  0  0  0  0  0  0  0  0  0  0
    2.0961   -1.1335    2.2968 H   0  0  0  0  0  0  0  0  0  0  0  0
    3.8695   -2.8933    1.8849 H   0  0  0  0  0  0  0  0  0  0  0  0
    2.9363   -3.5234    0.5287 H   0  0  0  0  0  0  0  0  0  0  0  0
    3.5084   -2.6299   -1.5409 H   0  0  0  0  0  0  0  0  0  0  0  0
    3.8660   -0.9275   -1.7422 H   0  0  0  0  0  0  0  0  0  0  0  0
    6.6221    1.1637   -1.0504 H   0  0  0  0  0  0  0  0  0  0  0  0
    7.1160    0.1342    0.2991 H   0  0  0  0  0  0  0  0  0  0  0  0
    3.0080    0.9441   -0.1546 H   0  0  0  0  0  0  0  0  0  0  0  0
    4.1199    1.6125   -1.3714 H   0  0  0  0  0  0  0  0  0  0  0  0
    7.5798    2.5499    0.7784 H   0  0  0  0  0  0  0  0  0  0  0  0
    6.4342    1.8610    1.9327 H   0  0  0  0  0  0  0  0  0  0  0  0
    3.8653    2.3929    1.5853 H   0  0  0  0  0  0  0  0  0  0  0  0
    3.4057    3.3881    0.2032 H   0  0  0  0  0  0  0  0  0  0  0  0
    5.6145    4.0565    1.2025 H   0  0  0  0  0  0  0  0  0  0  0  0
    5.7528    3.5940   -0.4941 H   0  0  0  0  0  0  0  0  0  0  0  0
   -0.7258   -2.1003    2.4437 H   0  0  0  0  0  0  0  0  0  0  0  0
    2.1697   -0.9056   -3.4592 H   0  0  0  0  0  0  0  0  0  0  0  0
   -1.9582   -0.7723   -2.3802 H   0  0  0  0  0  0  0  0  0  0  0  0
   -5.7925   -2.7647    0.4467 H   0  0  0  0  0  0  0  0  0  0  0  0
   -2.7427    1.1449    3.2910 H   0  0  0  0  0  0  0  0  0  0  0  0
   -3.6640    0.8298   -1.6110 H   0  0  0  0  0  0  0  0  0  0  0  0
   -2.1243    5.1279    0.3751 H   0  0  0  0  0  0  0  0  0  0  0  0
   -3.3440    2.8296   -3.0558 H   0  0  0  0  0  0  0  0  0  0  0  0
   -2.5761    4.9596   -2.0356 H   0  0  0  0  0  0  0  0  0  0  0  0
  1 28  1  0  0  0  0
  2 23  2  0  0  0  0
  3 30  2  0  0  0  0
  4 32  2  0  0  0  0
  5 11  1  0  0  0  0
  5 12  1  0  0  0  0
  5 24  1  0  0  0  0
  6 13  1  0  0  0  0
  6 14  1  0  0  0  0
  6 23  1  0  0  0  0
  7 16  1  0  0  0  0
  7 17  1  0  0  0  0
  7 23  1  0  0  0  0
  8 30  1  0  0  0  0
  8 32  1  0  0  0  0
  8 58  1  0  0  0  0
  9 31  1  0  0  0  0
  9 34  1  0  0  0  0
  9 35  1  0  0  0  0
 10 33  1  0  0  0  0
 10 34  2  0  0  0  0
 11 15  2  0  0  0  0
 11 18  1  0  0  0  0
 12 13  1  0  0  0  0
 12 39  1  0  0  0  0
 12 40  1  0  0  0  0
 13 41  1  0  0  0  0
 13 42  1  0  0  0  0
 14 15  1  0  0  0  0
 14 43  1  0  0  0  0
 14 44  1  0  0  0  0
 15 25  1  0  0  0  0
 16 19  1  0  0  0  0
 16 45  1  0  0  0  0
 16 46  1  0  0  0  0
 17 20  1  0  0  0  0
 17 47  1  0  0  0  0
 17 48  1  0  0  0  0
 18 22  1  0  0  0  0
 18 27  2  0  0  0  0
 19 21  1  0  0  0  0
 19 49  1  0  0  0  0
 19 50  1  0  0  0  0
 20 21  1  0  0  0  0
 20 51  1  0  0  0  0
 20 52  1  0  0  0  0
 21 53  1  0  0  0  0
 21 54  1  0  0  0  0
 22 24  2  0  0  0  0
 22 26  1  0  0  0  0
 24 55  1  0  0  0  0
 25 28  2  0  0  0  0
 25 56  1  0  0  0  0
 26 29  2  0  0  0  0
 26 30  1  0  0  0  0
 27 28  1  0  0  0  0
 27 57  1  0  0  0  0
 29 31  1  0  0  0  0
 29 32  1  0  0  0  0
 31 33  2  0  0  0  0
 33 59  1  0  0  0  0
 34 36  1  0  0  0  0
 35 37  2  0  0  0  0
 35 60  1  0  0  0  0
 36 38  2  0  0  0  0
 36 61  1  0  0  0  0
 37 38  1  0  0  0  0
 37 62  1  0  0  0  0
 38 63  1  0  0  0  0
M  END
> <PUBCHEM_COMPOUND_CID>
10029385

> <PUBCHEM_CONFORMER_RMSD>
1

> <PUBCHEM_CONFORMER_DIVERSEORDER>
1
25
20
58
78
79
77
33
12
51
76
60
44
49
14
41
23
67
4
82
57
47
53
29
72
54
70
50
30
59
74
52
35
61
38
73
19
81
28
80
62
40
18
16
43
32
75
68
21
65
69
27
64
37
10
66
55
31
24
9
45
56
42
3
46
63
26
34
48
7
11
15
17
71
22
39
8
2
13
6
5
36

> <PUBCHEM_MMFF94_PARTIAL_CHARGES>
43
1 -0.19
10 -0.57
11 -0.15
12 0.26
13 0.3
14 0.44
15 -0.14
16 0.3
17 0.3
2 -0.57
22 -0.05
23 0.69
24 -0.3
25 -0.15
26 0.06
27 -0.15
28 0.19
29 0.06
3 -0.57
30 0.62
31 -0.2
32 0.62
33 0.08
34 0.14
35 -0.18
36 -0.11
37 -0.15
38 -0.15
4 -0.57
5 0.05
55 0.15
56 0.15
57 0.15
58 0.37
59 0.15
6 -0.66
60 0.15
61 0.15
62 0.15
63 0.15
7 -0.66
8 -0.49
9 0.33

> <PUBCHEM_EFFECTIVE_ROTOR_COUNT>
6.2

> <PUBCHEM_PHARMACOPHORE_FEATURES>
13
1 2 acceptor
1 3 acceptor
1 4 acceptor
1 5 cation
1 8 donor
3 9 10 34 cation
5 5 11 18 22 24 rings
5 8 26 29 30 32 rings
5 9 10 31 33 34 rings
6 11 15 18 25 27 28 rings
6 7 16 17 19 20 21 rings
6 9 34 35 36 37 38 rings
7 5 6 11 12 13 14 15 rings

> <PUBCHEM_HEAVY_ATOM_COUNT>
38

> <PUBCHEM_ATOM_DEF_STEREO_COUNT>
0

> <PUBCHEM_ATOM_UDEF_STEREO_COUNT>
0

> <PUBCHEM_BOND_DEF_STEREO_COUNT>
0

> <PUBCHEM_BOND_UDEF_STEREO_COUNT>
0

> <PUBCHEM_ISOTOPIC_ATOM_COUNT>
0

> <PUBCHEM_COMPONENT_COUNT>
1

> <PUBCHEM_CACTVS_TAUTO_COUNT>
3

> <PUBCHEM_CONFORMER_ID>
0099094900000001

> <PUBCHEM_MMFF94_ENERGY>
91.366

> <PUBCHEM_FEATURE_SELFOVERLAP>
66.22

> <PUBCHEM_SHAPE_FINGERPRINT>
10369192 42 17131844195605114896
11578080 2 17822834408447933919
11991303 11 16988566870087571654
12107698 1 18343591733289208286
12128747 34 18408328761755771862
13583140 156 18338229341401534254
13911987 19 16056890134134293522
13965767 371 17173497862336664223
14739800 52 18410290307400084122
14747282 140 15604536035631372104
15336146 87 18409455765252796036
15419008 145 18335125507062521376
15513586 35 18199178680251427376
15961568 22 18341621472259668664
18603816 31 11959746962520950892
19309040 13 16629141857295597065
21315764 268 18338520742079086970
22956985 138 17038669634917081275
23559900 14 17913221866576246510
25019877 29 16628575823702766071
27425 322 17696193608802900541
3459 110 18260265222628666180
3493558 16 18118410772277496840
392239 28 18261115192071154065
4144715 1 18336553729348219794
469060 322 18189058757817490129
5081480 168 17343523119689364100
550186 7 18272942630246400702
57527293 21 17846510227069270823
57527585 21 17345748573936849993
5951187 136 17263280631686869117
6086070 43 18120367653925480518

> <PUBCHEM_SHAPE_MULTIPOLES>
727.25
12.98
4.83
2.53
14.67
4.06
-2.42
5.16
5.43
-2.55
0.41
-0.68
-0.16
0.98

> <PUBCHEM_SHAPE_SELFOVERLAP>
1637.294

> <PUBCHEM_SHAPE_VOLUME>
384.3

> <PUBCHEM_COORDINATE_TYPE>
2
5
10

$$$$
