44143344
  -OEChem-10052115183D

 50 53  0     0  0  0  0  0  0999 V2000
    3.4778    3.3352   -1.2964 Cl  0  0  0  0  0  0  0  0  0  0  0  0
    3.2736    3.2899    1.6609 F   0  0  0  0  0  0  0  0  0  0  0  0
    5.0534   -0.5192   -0.2049 O   0  0  0  0  0  0  0  0  0  0  0  0
    2.8832   -2.3579   -0.1007 N   0  0  0  0  0  0  0  0  0  0  0  0
   -0.5362   -3.7940   -0.2729 N   0  0  0  0  0  0  0  0  0  0  0  0
   -2.7641   -3.4431    0.3974 N   0  0  0  0  0  0  0  0  0  0  0  0
   -1.1631    1.2047   -0.9051 N   0  0  0  0  0  0  0  0  0  0  0  0
   -4.7704   -0.3962    0.5436 N   0  0  0  0  0  0  0  0  0  0  0  0
   -3.3733    4.0406   -0.6568 N   0  0  0  0  0  0  0  0  0  0  0  0
    3.8293   -2.2217    1.0156 C   0  0  0  0  0  0  0  0  0  0  0  0
    2.7793   -1.0867   -0.8304 C   0  0  0  0  0  0  0  0  0  0  0  0
    1.5722   -2.7892    0.3799 C   0  0  0  0  0  0  0  0  0  0  0  0
    5.1858   -1.7589    0.4917 C   0  0  0  0  0  0  0  0  0  0  0  0
    4.1605   -0.6516   -1.3114 C   0  0  0  0  0  0  0  0  0  0  0  0
    0.7512   -3.3662   -0.7660 C   0  0  0  0  0  0  0  0  0  0  0  0
   -1.6050   -2.9363   -0.0668 C   0  0  0  0  0  0  0  0  0  0  0  0
   -2.4825   -0.7169   -0.1515 C   0  0  0  0  0  0  0  0  0  0  0  0
   -1.4124   -1.5972   -0.3542 C   0  0  0  0  0  0  0  0  0  0  0  0
   -2.3760    0.6553   -0.4162 C   0  0  0  0  0  0  0  0  0  0  0  0
   -3.7106   -1.2015    0.3317 C   0  0  0  0  0  0  0  0  0  0  0  0
   -3.7762   -2.5622    0.5810 C   0  0  0  0  0  0  0  0  0  0  0  0
   -3.4622    1.4924   -0.2009 C   0  0  0  0  0  0  0  0  0  0  0  0
   -4.6262    0.9218    0.2757 C   0  0  0  0  0  0  0  0  0  0  0  0
   -0.0359    1.7334   -0.2586 C   0  0  0  0  0  0  0  0  0  0  0  0
    1.0373    2.2146   -1.0085 C   0  0  0  0  0  0  0  0  0  0  0  0
    0.0111    1.7787    1.1348 C   0  0  0  0  0  0  0  0  0  0  0  0
   -3.4130    2.8989   -0.4526 C   0  0  0  0  0  0  0  0  0  0  0  0
    2.1573    2.7413   -0.3652 C   0  0  0  0  0  0  0  0  0  0  0  0
    1.1309    2.3052    1.7782 C   0  0  0  0  0  0  0  0  0  0  0  0
    2.2040    2.7866    1.0282 C   0  0  0  0  0  0  0  0  0  0  0  0
    3.9588   -3.1824    1.5271 H   0  0  0  0  0  0  0  0  0  0  0  0
    3.4516   -1.4944    1.7462 H   0  0  0  0  0  0  0  0  0  0  0  0
    2.3689   -0.3160   -0.1691 H   0  0  0  0  0  0  0  0  0  0  0  0
    2.1278   -1.1696   -1.7050 H   0  0  0  0  0  0  0  0  0  0  0  0
    1.6968   -3.5892    1.1232 H   0  0  0  0  0  0  0  0  0  0  0  0
    1.0560   -1.9759    0.9046 H   0  0  0  0  0  0  0  0  0  0  0  0
    5.8733   -1.5984    1.3283 H   0  0  0  0  0  0  0  0  0  0  0  0
    5.6394   -2.5051   -0.1720 H   0  0  0  0  0  0  0  0  0  0  0  0
    4.5780   -1.3629   -2.0346 H   0  0  0  0  0  0  0  0  0  0  0  0
    4.0965    0.3207   -1.8080 H   0  0  0  0  0  0  0  0  0  0  0  0
    0.6527   -2.7130   -1.6384 H   0  0  0  0  0  0  0  0  0  0  0  0
    1.2693   -4.2578   -1.1438 H   0  0  0  0  0  0  0  0  0  0  0  0
   -0.6769   -4.7725   -0.0503 H   0  0  0  0  0  0  0  0  0  0  0  0
   -0.4765   -1.2079   -0.7328 H   0  0  0  0  0  0  0  0  0  0  0  0
   -4.6924   -3.0112    0.9561 H   0  0  0  0  0  0  0  0  0  0  0  0
   -1.1106    1.1984   -1.9196 H   0  0  0  0  0  0  0  0  0  0  0  0
   -5.5153    1.5160    0.4672 H   0  0  0  0  0  0  0  0  0  0  0  0
    1.0004    2.1778   -2.0952 H   0  0  0  0  0  0  0  0  0  0  0  0
   -0.8099    1.4102    1.7438 H   0  0  0  0  0  0  0  0  0  0  0  0
    1.1681    2.3401    2.8630 H   0  0  0  0  0  0  0  0  0  0  0  0
  1 28  1  0  0  0  0
  2 30  1  0  0  0  0
  3 13  1  0  0  0  0
  3 14  1  0  0  0  0
  4 10  1  0  0  0  0
  4 11  1  0  0  0  0
  4 12  1  0  0  0  0
  5 15  1  0  0  0  0
  5 16  1  0  0  0  0
  5 43  1  0  0  0  0
  6 16  2  0  0  0  0
  6 21  1  0  0  0  0
  7 19  1  0  0  0  0
  7 24  1  0  0  0  0
  7 46  1  0  0  0  0
  8 20  1  0  0  0  0
  8 23  2  0  0  0  0
  9 27  3  0  0  0  0
 10 13  1  0  0  0  0
 10 31  1  0  0  0  0
 10 32  1  0  0  0  0
 11 14  1  0  0  0  0
 11 33  1  0  0  0  0
 11 34  1  0  0  0  0
 12 15  1  0  0  0  0
 12 35  1  0  0  0  0
 12 36  1  0  0  0  0
 13 37  1  0  0  0  0
 13 38  1  0  0  0  0
 14 39  1  0  0  0  0
 14 40  1  0  0  0  0
 15 41  1  0  0  0  0
 15 42  1  0  0  0  0
 16 18  1  0  0  0  0
 17 18  2  0  0  0  0
 17 19  1  0  0  0  0
 17 20  1  0  0  0  0
 18 44  1  0  0  0  0
 19 22  2  0  0  0  0
 20 21  2  0  0  0  0
 21 45  1  0  0  0  0
 22 23  1  0  0  0  0
 22 27  1  0  0  0  0
 23 47  1  0  0  0  0
 24 25  2  0  0  0  0
 24 26  1  0  0  0  0
 25 28  1  0  0  0  0
 25 48  1  0  0  0  0
 26 29  2  0  0  0  0
 26 49  1  0  0  0  0
 28 30  2  0  0  0  0
 29 30  1  0  0  0  0
 29 50  1  0  0  0  0
M  END
> <PUBCHEM_COMPOUND_CID>
44143344

> <PUBCHEM_CONFORMER_RMSD>
1

> <PUBCHEM_CONFORMER_DIVERSEORDER>
4
67
39
162
79
108
81
37
159
99
83
57
87
104
122
123
54
107
42
134
116
115
22
34
101
112
64
16
19
6
135
127
130
46
88
62
111
47
153
90
33
117
133
49
11
155
80
52
18
114
85
84
165
5
59
75
2
120
151
92
93
109
138
157
45
152
61
77
66
132
58
10
168
73
164
105
100
163
98
8
3
20
70
148
160
103
119
13
145
144
48
150
53
15
171
1
23
27
124
36
50
118
161
38
40
44
32
154
143
56
82
28
65
121
129
9
141
140
74
110
139
63
51
125
71
69
166
24
137
29
96
26
25
170
113
31
55
91
89
60
30
76
158
35
156
167
21
106
149
97
7
102
43
169
128
86
136
142
68
131
94
146
12
17
126
78
95
72
41
147
14

> <PUBCHEM_MMFF94_PARTIAL_CHARGES>
37
1 -0.18
10 0.27
11 0.27
12 0.27
13 0.28
14 0.28
15 0.37
16 0.41
18 -0.15
19 0.1
2 -0.19
20 0.31
21 0.16
22 0.07
23 0.16
24 0.1
25 -0.15
26 -0.15
27 0.48
28 0.18
29 -0.15
3 -0.56
30 0.19
4 -0.81
43 0.4
44 0.15
45 0.15
46 0.4
47 0.15
48 0.15
49 0.15
5 -0.87
50 0.15
6 -0.62
7 -0.6
8 -0.62
9 -0.56

> <PUBCHEM_EFFECTIVE_ROTOR_COUNT>
7.2

> <PUBCHEM_PHARMACOPHORE_FEATURES>
12
1 3 acceptor
1 4 cation
1 5 donor
1 7 cation
1 7 donor
1 8 acceptor
1 9 acceptor
3 5 6 16 cation
6 24 25 26 28 29 30 rings
6 3 4 10 11 13 14 rings
6 6 16 17 18 20 21 rings
6 8 17 19 20 22 23 rings

> <PUBCHEM_HEAVY_ATOM_COUNT>
30

> <PUBCHEM_ATOM_DEF_STEREO_COUNT>
0

> <PUBCHEM_ATOM_UDEF_STEREO_COUNT>
0

> <PUBCHEM_BOND_DEF_STEREO_COUNT>
0

> <PUBCHEM_BOND_UDEF_STEREO_COUNT>
0

> <PUBCHEM_ISOTOPIC_ATOM_COUNT>
0

> <PUBCHEM_COMPONENT_COUNT>
1

> <PUBCHEM_CACTVS_TAUTO_COUNT>
6

> <PUBCHEM_CONFORMER_ID>
02A192F000000004

> <PUBCHEM_MMFF94_ENERGY>
97.1197

> <PUBCHEM_FEATURE_SELFOVERLAP>
60.929

> <PUBCHEM_SHAPE_FINGERPRINT>
10290309 65 18122340452748409965
1100329 8 18412267224610943770
11112241 14 16915347074983619936
11513181 2 17986397908963599822
12422481 6 18054195960906294072
12788726 201 17771626746255340624
13122387 1 18411138013395293618
13140716 1 18339084890824593755
13402501 40 18267582420655513482
13583140 156 17915733369797649496
1361 2 14949835423206520948
13617811 41 17973728266472598101
13726171 33 18337961086824816896
14117953 113 17760084021657565574
144659 178 17758969503203632484
14725015 67 18408601483146652059
14790565 3 17618225001156361281
19591789 44 18338802324514414911
20600515 1 18196660583954356180
20642791 178 18262812743509344756
20715895 44 17323510796350475405
20764821 26 18338230591221069494
20905425 154 17981897650635746446
22113638 7 18339072671299680542
23559900 14 18409725188261831157
338550 245 18191307289651238148
350125 39 18337677408804182841
3680242 22 18264215720662735634
56638632 10 17985552144030038665
5776283 40 17328323835951552676
6433294 58 18410860983825421726
6823239 73 18341608235581497410
9543594 6 18338516473129436450

> <PUBCHEM_SHAPE_MULTIPOLES>
576.23
9.47
5.92
1.21
1.58
0.18
0.24
-0.82
0.33
0.65
-0.03
1.01
0.76
0.61

> <PUBCHEM_SHAPE_SELFOVERLAP>
1241.526

> <PUBCHEM_SHAPE_VOLUME>
318.6

> <PUBCHEM_COORDINATE_TYPE>
2
5
10

$$$$
