44340930
  -OEChem-10052118243D

 72 78  0     1  0  0  0  0  0999 V2000
    4.0722   -0.9389    0.7481 O   0  0  0  0  0  0  0  0  0  0  0  0
    3.5558   -1.2411   -2.1038 O   0  0  0  0  0  0  0  0  0  0  0  0
    5.3072    0.7975   -2.8303 O   0  0  0  0  0  0  0  0  0  0  0  0
    6.1824   -1.3494   -1.2874 O   0  0  0  0  0  0  0  0  0  0  0  0
    4.9526    0.4819    2.9541 O   0  0  0  0  0  0  0  0  0  0  0  0
    3.7895   -2.9919    0.1598 O   0  0  0  0  0  0  0  0  0  0  0  0
   -3.4230   -2.6931    0.6770 O   0  0  0  0  0  0  0  0  0  0  0  0
   -4.2588    1.8669    0.4640 O   0  0  0  0  0  0  0  0  0  0  0  0
    0.6624    6.7492   -0.1917 O   0  0  0  0  0  0  0  0  0  0  0  0
   -7.8734    0.7096    0.0275 O   0  0  0  0  0  0  0  0  0  0  0  0
   -6.4631   -2.4202   -2.4349 O   0  0  0  0  0  0  0  0  0  0  0  0
    1.7215   -0.8286    0.1809 N   0  0  0  0  0  0  0  0  0  0  0  0
    1.2214    1.9051    0.0539 N   0  0  0  0  0  0  0  0  0  0  0  0
   -4.2209   -0.4813    0.6030 N   0  0  0  0  0  0  0  0  0  0  0  0
   -5.5662   -0.7308    0.7184 N   0  0  0  0  0  0  0  0  0  0  0  0
    3.0849   -0.1776    0.0393 C   0  0  2  0  0  0  0  0  0  0  0  0
    3.4956    0.0172   -1.4303 C   0  0  1  0  0  0  0  0  0  0  0  0
    0.4572   -0.3537    0.2463 C   0  0  0  0  0  0  0  0  0  0  0  0
    4.8783    0.6740   -1.4785 C   0  0  1  0  0  0  0  0  0  0  0  0
    5.9092   -0.0986   -0.6495 C   0  0  1  0  0  0  0  0  0  0  0  0
   -0.6866   -1.2097    0.3831 C   0  0  0  0  0  0  0  0  0  0  0  0
    5.3937   -0.3785    0.7694 C   0  0  1  0  0  0  0  0  0  0  0  0
    1.4937   -2.1929    0.2806 C   0  0  0  0  0  0  0  0  0  0  0  0
    0.2054    1.0219    0.1824 C   0  0  0  0  0  0  0  0  0  0  0  0
    0.0882   -2.4592    0.4011 C   0  0  0  0  0  0  0  0  0  0  0  0
   -2.0128   -0.7921    0.4566 C   0  0  0  0  0  0  0  0  0  0  0  0
   -1.1691    1.4271    0.2607 C   0  0  0  0  0  0  0  0  0  0  0  0
   -2.2630    0.5762    0.3931 C   0  0  0  0  0  0  0  0  0  0  0  0
   -0.8862    2.8661    0.1541 C   0  0  0  0  0  0  0  0  0  0  0  0
    5.4582    0.8439    1.6826 C   0  0  0  0  0  0  0  0  0  0  0  0
    2.4435   -3.2259    0.2734 C   0  0  0  0  0  0  0  0  0  0  0  0
    0.5246    3.1039    0.0345 C   0  0  0  0  0  0  0  0  0  0  0  0
   -3.2841   -1.4889    0.5936 C   0  0  0  0  0  0  0  0  0  0  0  0
   -3.7004    0.7881    0.4875 C   0  0  0  0  0  0  0  0  0  0  0  0
   -0.3046   -3.8150    0.5123 C   0  0  0  0  0  0  0  0  0  0  0  0
    2.0032   -4.5450    0.3863 C   0  0  0  0  0  0  0  0  0  0  0  0
    0.6507   -4.8372    0.5038 C   0  0  0  0  0  0  0  0  0  0  0  0
   -1.7344    3.9998    0.1502 C   0  0  0  0  0  0  0  0  0  0  0  0
    1.0479    4.4007   -0.0816 C   0  0  0  0  0  0  0  0  0  0  0  0
   -6.1659   -0.8756   -0.6014 C   0  0  0  0  0  0  0  0  0  0  0  0
   -1.2022    5.2884    0.0341 C   0  0  0  0  0  0  0  0  0  0  0  0
    0.1679    5.4837   -0.0800 C   0  0  0  0  0  0  0  0  0  0  0  0
   -7.6651   -0.5941   -0.5016 C   0  0  0  0  0  0  0  0  0  0  0  0
   -5.8873   -2.2821   -1.1409 C   0  0  0  0  0  0  0  0  0  0  0  0
    3.0465    0.7107    0.6546 H   0  0  0  0  0  0  0  0  0  0  0  0
    2.7750    0.6302   -1.9824 H   0  0  0  0  0  0  0  0  0  0  0  0
    4.7885    1.6919   -1.0798 H   0  0  0  0  0  0  0  0  0  0  0  0
    6.8588    0.4481   -0.6267 H   0  0  0  0  0  0  0  0  0  0  0  0
    6.0122   -1.1618    1.2252 H   0  0  0  0  0  0  0  0  0  0  0  0
    4.8638    1.6815    1.3079 H   0  0  0  0  0  0  0  0  0  0  0  0
    6.4934    1.1811    1.7983 H   0  0  0  0  0  0  0  0  0  0  0  0
    2.1850    1.8419   -0.1974 H   0  0  0  0  0  0  0  0  0  0  0  0
   -1.3519   -4.0831    0.6060 H   0  0  0  0  0  0  0  0  0  0  0  0
    2.6437   -1.5552   -2.2226 H   0  0  0  0  0  0  0  0  0  0  0  0
    6.1841    1.2177   -2.8216 H   0  0  0  0  0  0  0  0  0  0  0  0
    6.8722   -1.7985   -0.7696 H   0  0  0  0  0  0  0  0  0  0  0  0
    2.7178   -5.3648    0.3833 H   0  0  0  0  0  0  0  0  0  0  0  0
    0.3279   -5.8713    0.5905 H   0  0  0  0  0  0  0  0  0  0  0  0
   -2.8103    3.8876    0.2374 H   0  0  0  0  0  0  0  0  0  0  0  0
    2.1202    4.5514   -0.1706 H   0  0  0  0  0  0  0  0  0  0  0  0
   -5.9807    0.0640    1.2049 H   0  0  0  0  0  0  0  0  0  0  0  0
   -5.7594   -0.1275   -1.2969 H   0  0  0  0  0  0  0  0  0  0  0  0
    5.0127    1.2690    3.5218 H   0  0  0  0  0  0  0  0  0  0  0  0
   -1.8766    6.1415    0.0340 H   0  0  0  0  0  0  0  0  0  0  0  0
    4.2621   -3.8417    0.1765 H   0  0  0  0  0  0  0  0  0  0  0  0
   -8.1635   -1.3166    0.1547 H   0  0  0  0  0  0  0  0  0  0  0  0
   -8.1388   -0.6377   -1.4877 H   0  0  0  0  0  0  0  0  0  0  0  0
   -4.8210   -2.4663   -1.2756 H   0  0  0  0  0  0  0  0  0  0  0  0
   -6.3076   -3.0555   -0.4887 H   0  0  0  0  0  0  0  0  0  0  0  0
    1.6315    6.7047   -0.2616 H   0  0  0  0  0  0  0  0  0  0  0  0
   -8.8347    0.8485    0.0736 H   0  0  0  0  0  0  0  0  0  0  0  0
   -6.2733   -3.3247   -2.7374 H   0  0  0  0  0  0  0  0  0  0  0  0
  1 16  1  0  0  0  0
  1 22  1  0  0  0  0
  2 17  1  0  0  0  0
  2 54  1  0  0  0  0
  3 19  1  0  0  0  0
  3 55  1  0  0  0  0
  4 20  1  0  0  0  0
  4 56  1  0  0  0  0
  5 30  1  0  0  0  0
  5 63  1  0  0  0  0
  6 31  1  0  0  0  0
  6 65  1  0  0  0  0
  7 33  2  0  0  0  0
  8 34  2  0  0  0  0
  9 42  1  0  0  0  0
  9 70  1  0  0  0  0
 10 43  1  0  0  0  0
 10 71  1  0  0  0  0
 11 44  1  0  0  0  0
 11 72  1  0  0  0  0
 12 16  1  0  0  0  0
 12 18  1  0  0  0  0
 12 23  1  0  0  0  0
 13 24  1  0  0  0  0
 13 32  1  0  0  0  0
 13 52  1  0  0  0  0
 14 15  1  0  0  0  0
 14 33  1  0  0  0  0
 14 34  1  0  0  0  0
 15 40  1  0  0  0  0
 15 61  1  0  0  0  0
 16 17  1  0  0  0  0
 16 45  1  0  0  0  0
 17 19  1  0  0  0  0
 17 46  1  0  0  0  0
 18 21  1  0  0  0  0
 18 24  2  0  0  0  0
 19 20  1  0  0  0  0
 19 47  1  0  0  0  0
 20 22  1  0  0  0  0
 20 48  1  0  0  0  0
 21 25  1  0  0  0  0
 21 26  2  0  0  0  0
 22 30  1  0  0  0  0
 22 49  1  0  0  0  0
 23 25  2  0  0  0  0
 23 31  1  0  0  0  0
 24 27  1  0  0  0  0
 25 35  1  0  0  0  0
 26 28  1  0  0  0  0
 26 33  1  0  0  0  0
 27 28  2  0  0  0  0
 27 29  1  0  0  0  0
 28 34  1  0  0  0  0
 29 32  2  0  0  0  0
 29 38  1  0  0  0  0
 30 50  1  0  0  0  0
 30 51  1  0  0  0  0
 31 36  2  0  0  0  0
 32 39  1  0  0  0  0
 35 37  2  0  0  0  0
 35 53  1  0  0  0  0
 36 37  1  0  0  0  0
 36 57  1  0  0  0  0
 37 58  1  0  0  0  0
 38 41  2  0  0  0  0
 38 59  1  0  0  0  0
 39 42  2  0  0  0  0
 39 60  1  0  0  0  0
 40 43  1  0  0  0  0
 40 44  1  0  0  0  0
 40 62  1  0  0  0  0
 41 42  1  0  0  0  0
 41 64  1  0  0  0  0
 43 66  1  0  0  0  0
 43 67  1  0  0  0  0
 44 68  1  0  0  0  0
 44 69  1  0  0  0  0
M  END
> <PUBCHEM_COMPOUND_CID>
44340930

> <PUBCHEM_CONFORMER_RMSD>
1

> <PUBCHEM_CONFORMER_DIVERSEORDER>
5
15
17
11
3
18
9
12
2
16
6
10
14
13
4
7
8
1

> <PUBCHEM_MMFF94_PARTIAL_CHARGES>
58
1 -0.56
10 -0.68
11 -0.68
12 -0.04
13 -0.05
14 -0.11
15 -0.64
16 0.54
17 0.28
18 -0.05
19 0.28
2 -0.68
20 0.28
21 -0.01
22 0.28
23 -0.15
24 -0.05
26 0.09
27 -0.01
28 0.09
3 -0.68
30 0.28
31 0.08
32 -0.15
33 0.54
34 0.54
35 -0.15
36 -0.15
37 -0.15
38 -0.15
39 -0.15
4 -0.68
40 0.27
41 -0.15
42 0.08
43 0.28
44 0.28
5 -0.68
52 0.27
53 0.15
54 0.4
55 0.4
56 0.4
57 0.15
58 0.15
59 0.15
6 -0.53
60 0.15
61 0.36
63 0.4
64 0.15
65 0.45
7 -0.57
70 0.45
71 0.4
72 0.4
8 -0.57
9 -0.53

> <PUBCHEM_EFFECTIVE_ROTOR_COUNT>
7.4

> <PUBCHEM_PHARMACOPHORE_FEATURES>
28
1 1 acceptor
1 10 acceptor
1 10 donor
1 11 acceptor
1 11 donor
1 12 cation
1 13 cation
1 13 donor
1 15 donor
1 2 acceptor
1 2 donor
1 3 acceptor
1 3 donor
1 4 acceptor
1 4 donor
1 5 acceptor
1 5 donor
1 6 donor
1 7 acceptor
1 8 acceptor
1 9 donor
5 12 18 21 23 25 rings
5 13 24 27 29 32 rings
5 14 26 28 33 34 rings
6 1 16 17 19 20 22 rings
6 18 21 24 26 27 28 rings
6 23 25 31 35 36 37 rings
6 29 32 38 39 41 42 rings

> <PUBCHEM_HEAVY_ATOM_COUNT>
44

> <PUBCHEM_ATOM_DEF_STEREO_COUNT>
0

> <PUBCHEM_ATOM_UDEF_STEREO_COUNT>
5

> <PUBCHEM_BOND_DEF_STEREO_COUNT>
0

> <PUBCHEM_BOND_UDEF_STEREO_COUNT>
0

> <PUBCHEM_ISOTOPIC_ATOM_COUNT>
0

> <PUBCHEM_COMPONENT_COUNT>
1

> <PUBCHEM_CACTVS_TAUTO_COUNT>
148

> <PUBCHEM_CONFORMER_ID>
02A496C200000005

> <PUBCHEM_MMFF94_ENERGY>
175.5789

> <PUBCHEM_FEATURE_SELFOVERLAP>
142.63

> <PUBCHEM_SHAPE_FINGERPRINT>
102385 1 17832987143973557051
10675989 125 18335143132711192820
10930396 42 18196905943009894256
1100329 8 18265900352669799530
11513181 2 18125168129939615494
11621639 179 17970610915607857981
12058002 1 17413353265640014363
12788726 201 18188217515795371072
1361 2 18338513148423816673
13617811 41 18408885139718348176
13782708 43 17632300042919163622
13911987 19 18189352288719284950
140371 6 18408328774229295409
14068700 675 18202282520241071297
14068700 686 18270113509840130504
14394314 77 18339367366639402425
14400156 260 18190180080001066249
14725015 67 18412820279640366432
14790565 3 18336842956297365344
15131766 46 16083074033715372302
15200665 1 17689438187802612921
15320467 1 18409735053563969528
15439362 3 18050568744581604461
15664458 139 18338219510902025565
15927050 60 17474682018566324836
18681886 176 18340198704503477331
19319366 153 18113899355562871091
20028762 73 18272368706556455991
21133410 171 17250564900662047795
22311459 1 18409732881117522443
23558518 356 17756434759417824386
23559900 14 18266175214066729017
24771293 8 18201152260362233176
24771750 20 17899712438015068765
3178227 256 18337124461718727331
3380486 145 18192446186140051617
3534868 343 18262244296182303622
4353968 344 18268713797574437854
469060 322 18338812121303669640
6004065 56 18337946913327069219
653340 110 18266737979057228624

> <PUBCHEM_SHAPE_MULTIPOLES>
821.01
14.58
7.25
1.45
14.58
8.95
0.49
-6.84
4.12
-0.23
-0.39
-1.87
-0.32
-1.07

> <PUBCHEM_SHAPE_SELFOVERLAP>
1855.544

> <PUBCHEM_SHAPE_VOLUME>
427.2

> <PUBCHEM_COORDINATE_TYPE>
2
5
10

$$$$
