49830538
  -OEChem-10052115183D

 59 63  0     0  0  0  0  0  0999 V2000
    4.3869   -0.8823    0.9136 O   0  0  0  0  0  0  0  0  0  0  0  0
    4.2754    4.4613    0.4767 O   0  0  0  0  0  0  0  0  0  0  0  0
   -6.3324   -0.9300   -1.3757 O   0  0  0  0  0  0  0  0  0  0  0  0
    2.0058    4.4085   -0.1429 N   0  0  0  0  0  0  0  0  0  0  0  0
    8.4934   -3.1597   -0.2908 N   0  0  0  0  0  0  0  0  0  0  0  0
   -4.0371   -0.4590   -1.4391 N   0  0  0  0  0  0  0  0  0  0  0  0
   -5.3712   -0.4646    0.6234 N   0  0  0  0  0  0  0  0  0  0  0  0
    1.7309    2.1394   -0.0471 C   0  0  0  0  0  0  0  0  0  0  0  0
    3.0530    2.4270    0.2951 C   0  0  0  0  0  0  0  0  0  0  0  0
    1.2856    0.8315   -0.0705 C   0  0  0  0  0  0  0  0  0  0  0  0
    0.9878    3.3952   -0.3465 C   0  0  0  0  0  0  0  0  0  0  0  0
    3.5250    0.1256    0.5998 C   0  0  0  0  0  0  0  0  0  0  0  0
    3.9705    1.4481    0.6221 C   0  0  0  0  0  0  0  0  0  0  0  0
    2.1948   -0.1803    0.2566 C   0  0  0  0  0  0  0  0  0  0  0  0
    3.2340    3.8804    0.2351 C   0  0  0  0  0  0  0  0  0  0  0  0
   -0.0773    0.5007   -0.4205 C   0  0  0  0  0  0  0  0  0  0  0  0
    6.4205   -2.0168    0.3353 C   0  0  0  0  0  0  0  0  0  0  0  0
    5.7657   -0.6711    0.6165 C   0  0  0  0  0  0  0  0  0  0  0  0
    7.8986   -1.8595   -0.0062 C   0  0  0  0  0  0  0  0  0  0  0  0
   -1.0549    0.4292    0.5720 C   0  0  0  0  0  0  0  0  0  0  0  0
   -0.4151    0.2538   -1.7512 C   0  0  0  0  0  0  0  0  0  0  0  0
   -2.7077   -0.1363   -1.0968 C   0  0  0  0  0  0  0  0  0  0  0  0
   -2.3700    0.1106    0.2339 C   0  0  0  0  0  0  0  0  0  0  0  0
   -1.7303   -0.0647   -2.0893 C   0  0  0  0  0  0  0  0  0  0  0  0
    9.6786   -3.0106   -1.1373 C   0  0  0  0  0  0  0  0  0  0  0  0
    8.8413   -3.8509    0.9521 C   0  0  0  0  0  0  0  0  0  0  0  0
   -5.2112   -0.6029   -0.6743 C   0  0  0  0  0  0  0  0  0  0  0  0
   -7.3005   -1.0053   -0.4156 C   0  0  0  0  0  0  0  0  0  0  0  0
   -6.7087   -0.7201    0.8061 C   0  0  0  0  0  0  0  0  0  0  0  0
   -8.6447   -1.3097   -0.5923 C   0  0  0  0  0  0  0  0  0  0  0  0
   -7.5016   -0.7330    1.9626 C   0  0  0  0  0  0  0  0  0  0  0  0
   -9.4215   -1.3186    0.5712 C   0  0  0  0  0  0  0  0  0  0  0  0
   -8.8638   -1.0361    1.8242 C   0  0  0  0  0  0  0  0  0  0  0  0
    0.1693    3.5782    0.3542 H   0  0  0  0  0  0  0  0  0  0  0  0
    0.6476    3.4468   -1.3838 H   0  0  0  0  0  0  0  0  0  0  0  0
    4.9776    1.7308    0.9049 H   0  0  0  0  0  0  0  0  0  0  0  0
    1.8808   -1.2229    0.2491 H   0  0  0  0  0  0  0  0  0  0  0  0
    1.8390    5.4024   -0.2643 H   0  0  0  0  0  0  0  0  0  0  0  0
    6.2752   -2.6593    1.2116 H   0  0  0  0  0  0  0  0  0  0  0  0
    5.8883   -2.5113   -0.4881 H   0  0  0  0  0  0  0  0  0  0  0  0
    6.2466   -0.1902    1.4762 H   0  0  0  0  0  0  0  0  0  0  0  0
    5.8935   -0.0417   -0.2738 H   0  0  0  0  0  0  0  0  0  0  0  0
    7.9553   -1.2192   -0.8969 H   0  0  0  0  0  0  0  0  0  0  0  0
    8.4357   -1.3282    0.7904 H   0  0  0  0  0  0  0  0  0  0  0  0
   -0.8078    0.6196    1.6138 H   0  0  0  0  0  0  0  0  0  0  0  0
    0.3347    0.3061   -2.5372 H   0  0  0  0  0  0  0  0  0  0  0  0
   -3.0921    0.0677    1.0405 H   0  0  0  0  0  0  0  0  0  0  0  0
   -1.9789   -0.2546   -3.1304 H   0  0  0  0  0  0  0  0  0  0  0  0
   10.4497   -2.3930   -0.6625 H   0  0  0  0  0  0  0  0  0  0  0  0
   10.1135   -3.9899   -1.3671 H   0  0  0  0  0  0  0  0  0  0  0  0
    9.4129   -2.5560   -2.0982 H   0  0  0  0  0  0  0  0  0  0  0  0
    9.2731   -4.8339    0.7313 H   0  0  0  0  0  0  0  0  0  0  0  0
    9.5681   -3.2889    1.5503 H   0  0  0  0  0  0  0  0  0  0  0  0
    7.9585   -4.0408    1.5702 H   0  0  0  0  0  0  0  0  0  0  0  0
   -4.1531   -0.6153   -2.4384 H   0  0  0  0  0  0  0  0  0  0  0  0
   -9.0662   -1.5265   -1.5659 H   0  0  0  0  0  0  0  0  0  0  0  0
   -7.0800   -0.5158    2.9384 H   0  0  0  0  0  0  0  0  0  0  0  0
  -10.4817   -1.5498    0.5006 H   0  0  0  0  0  0  0  0  0  0  0  0
   -9.4982   -1.0521    2.7071 H   0  0  0  0  0  0  0  0  0  0  0  0
  1 12  1  0  0  0  0
  1 18  1  0  0  0  0
  2 15  2  0  0  0  0
  3 27  1  0  0  0  0
  3 28  1  0  0  0  0
  4 11  1  0  0  0  0
  4 15  1  0  0  0  0
  4 38  1  0  0  0  0
  5 19  1  0  0  0  0
  5 25  1  0  0  0  0
  5 26  1  0  0  0  0
  6 22  1  0  0  0  0
  6 27  1  0  0  0  0
  6 55  1  0  0  0  0
  7 27  2  0  0  0  0
  7 29  1  0  0  0  0
  8  9  1  0  0  0  0
  8 10  2  0  0  0  0
  8 11  1  0  0  0  0
  9 13  2  0  0  0  0
  9 15  1  0  0  0  0
 10 14  1  0  0  0  0
 10 16  1  0  0  0  0
 11 34  1  0  0  0  0
 11 35  1  0  0  0  0
 12 13  1  0  0  0  0
 12 14  2  0  0  0  0
 13 36  1  0  0  0  0
 14 37  1  0  0  0  0
 16 20  2  0  0  0  0
 16 21  1  0  0  0  0
 17 18  1  0  0  0  0
 17 19  1  0  0  0  0
 17 39  1  0  0  0  0
 17 40  1  0  0  0  0
 18 41  1  0  0  0  0
 18 42  1  0  0  0  0
 19 43  1  0  0  0  0
 19 44  1  0  0  0  0
 20 23  1  0  0  0  0
 20 45  1  0  0  0  0
 21 24  2  0  0  0  0
 21 46  1  0  0  0  0
 22 23  2  0  0  0  0
 22 24  1  0  0  0  0
 23 47  1  0  0  0  0
 24 48  1  0  0  0  0
 25 49  1  0  0  0  0
 25 50  1  0  0  0  0
 25 51  1  0  0  0  0
 26 52  1  0  0  0  0
 26 53  1  0  0  0  0
 26 54  1  0  0  0  0
 28 29  1  0  0  0  0
 28 30  2  0  0  0  0
 29 31  2  0  0  0  0
 30 32  1  0  0  0  0
 30 56  1  0  0  0  0
 31 33  1  0  0  0  0
 31 57  1  0  0  0  0
 32 33  2  0  0  0  0
 32 58  1  0  0  0  0
 33 59  1  0  0  0  0
M  END
> <PUBCHEM_COMPOUND_CID>
49830538

> <PUBCHEM_CONFORMER_RMSD>
1

> <PUBCHEM_CONFORMER_DIVERSEORDER>
1
102
34
82
59
85
69
89
12
84
73
106
65
91
13
15
110
14
2
105
54
3
60
76
64
47
112
45
17
22
27
20
71
81
38
5
67
96
79
44
104
97
37
77
18
111
52
109
55
93
43
42
6
78
11
57
8
87
51
63
90
48
99
103
16
70
10
9
33
36
75
100
92
4
30
98
53
95
19
80
40
41
50
62
7
74
86
68
26
49
29
28
108
24
88
113
25
72
61
58
39
107
66
21
23
32
46
83
35
56
101
94
31

> <PUBCHEM_MMFF94_PARTIAL_CHARGES>
42
1 -0.36
11 0.44
12 0.08
13 -0.15
14 -0.15
15 0.54
18 0.28
19 0.27
2 -0.57
20 -0.15
21 -0.15
22 0.1
23 -0.15
24 -0.15
25 0.27
26 0.27
27 0.56
28 0.14
29 0.23
3 -0.28
30 -0.15
31 -0.15
32 -0.15
33 -0.15
36 0.15
37 0.15
38 0.37
4 -0.73
45 0.15
46 0.15
47 0.15
48 0.15
5 -0.81
55 0.4
56 0.15
57 0.15
58 0.15
59 0.15
6 -0.58
7 -0.57
8 -0.14
9 0.09

> <PUBCHEM_EFFECTIVE_ROTOR_COUNT>
8.4

> <PUBCHEM_PHARMACOPHORE_FEATURES>
11
1 1 acceptor
1 2 acceptor
1 4 donor
1 5 cation
1 6 donor
3 6 7 27 cation
5 3 7 27 28 29 rings
5 4 8 9 11 15 rings
6 16 20 21 22 23 24 rings
6 28 29 30 31 32 33 rings
6 8 9 10 12 13 14 rings

> <PUBCHEM_HEAVY_ATOM_COUNT>
33

> <PUBCHEM_ATOM_DEF_STEREO_COUNT>
0

> <PUBCHEM_ATOM_UDEF_STEREO_COUNT>
0

> <PUBCHEM_BOND_DEF_STEREO_COUNT>
0

> <PUBCHEM_BOND_UDEF_STEREO_COUNT>
0

> <PUBCHEM_ISOTOPIC_ATOM_COUNT>
0

> <PUBCHEM_COMPONENT_COUNT>
1

> <PUBCHEM_CACTVS_TAUTO_COUNT>
4

> <PUBCHEM_CONFORMER_ID>
02F85A8A00000001

> <PUBCHEM_MMFF94_ENERGY>
102.3771

> <PUBCHEM_FEATURE_SELFOVERLAP>
56.028

> <PUBCHEM_SHAPE_FINGERPRINT>
10076449 9 17676210151928009458
10411042 1 18338795616551237912
11411753 29 18113892758439915757
11476731 38 18411423917654112942
11607047 191 11312047739673415564
11672396 167 18342729767818836743
11761917 87 18335427863394712923
12013929 2 18187642484884610959
12047536 79 13038640487754010230
13533116 47 18336261348774161569
13673619 4 18040429984225077764
13692115 27 18261946346344210288
13782708 43 17531510041056743945
14400156 188 18334011692487014474
14675020 138 15267349530215323740
14965480 1 17386020489628735875
15131766 46 17836920471625819221
15183329 4 17059506278591680641
15419008 145 17275108289183554859
1577012 14 17845374522126124645
1754911 235 12901551230034473322
17852330 31 18129938026102664883
1818759 1 18409732837667261002
19301679 30 18271245994190248798
20105231 36 18259703393572610107
20771845 65 18202561775041690496
21049683 271 18114181922109147244
21057603 43 18060418037379314840
21130935 74 18267865180571205371
21267235 1 18410853240136588934
21365058 113 17821447967320131524
21781055 127 16558208075735740044
21927370 108 18340207380474428464
23081809 10 17845370119768562173
23522609 53 17843697792700895777
23729398 52 18336550521340270500
25242607 90 18200863008022928634
255183 451 18410291402912351228
3178227 256 18410291428165144698
397830 11 17679585808167121433
4403749 210 9943221771701395460
45377200 153 15719969029035945609
54039377 194 18410576154727471710
54076057 127 18263083378267999752
57527295 17 17460027384316144912
6058803 2 17413290718062652765
9962374 69 18342166804083331166

> <PUBCHEM_SHAPE_MULTIPOLES>
641.59
31.25
4.36
1.44
13.04
4.31
0.22
-41.18
-6.54
-14.68
-0.49
2.17
-0.49
0.96

> <PUBCHEM_SHAPE_SELFOVERLAP>
1413.203

> <PUBCHEM_SHAPE_VOLUME>
349.6

> <PUBCHEM_COORDINATE_TYPE>
2
5
10

$$$$
