49830315
  -OEChem-10062121543D

 43 46  0     1  0  0  0  0  0999 V2000
    0.5419   -5.1057   -0.2572 Cl  0  0  0  0  0  0  0  0  0  0  0  0
    2.4737   -0.6045   -0.5528 N   0  0  0  0  0  0  0  0  0  0  0  0
    2.1215    2.7859    0.9296 N   0  0  0  0  0  0  0  0  0  0  0  0
    0.1938   -0.6782   -0.1337 N   0  0  0  0  0  0  0  0  0  0  0  0
    1.4845   -2.6961   -0.3968 N   0  0  0  0  0  0  0  0  0  0  0  0
   -4.1655   -0.3495    1.0895 N   0  0  0  0  0  0  0  0  0  0  0  0
   -4.6032    1.8301    0.1614 N   0  0  0  0  0  0  0  0  0  0  0  0
    2.4828    0.8475   -0.5380 C   0  0  1  0  0  0  0  0  0  0  0  0
    2.4625    1.3587    0.9156 C   0  0  1  0  0  0  0  0  0  0  0  0
    3.6913    1.3598   -1.3324 C   0  0  0  0  0  0  0  0  0  0  0  0
    3.8154    1.1528    1.6170 C   0  0  0  0  0  0  0  0  0  0  0  0
    5.0169    1.1349   -0.6050 C   0  0  0  0  0  0  0  0  0  0  0  0
    4.9929    1.7005    0.8112 C   0  0  0  0  0  0  0  0  0  0  0  0
    1.3354   -1.3585   -0.3517 C   0  0  0  0  0  0  0  0  0  0  0  0
   -0.8991   -1.4461    0.0566 C   0  0  0  0  0  0  0  0  0  0  0  0
   -2.1252   -0.7396    0.2923 C   0  0  0  0  0  0  0  0  0  0  0  0
   -2.5471    0.5354   -0.1694 C   0  0  0  0  0  0  0  0  0  0  0  0
   -0.8798   -2.8257    0.0349 C   0  0  0  0  0  0  0  0  0  0  0  0
    0.3520   -3.4022   -0.1986 C   0  0  0  0  0  0  0  0  0  0  0  0
   -3.8226    0.7485    0.3452 C   0  0  0  0  0  0  0  0  0  0  0  0
   -3.1411   -1.2599    1.0647 C   0  0  0  0  0  0  0  0  0  0  0  0
   -1.9961    1.5484   -0.9709 C   0  0  0  0  0  0  0  0  0  0  0  0
   -2.7622    2.6910   -1.1938 C   0  0  0  0  0  0  0  0  0  0  0  0
   -4.0228    2.7725   -0.6177 C   0  0  0  0  0  0  0  0  0  0  0  0
    1.5914    1.2057   -1.0713 H   0  0  0  0  0  0  0  0  0  0  0  0
    1.6945    0.8381    1.4993 H   0  0  0  0  0  0  0  0  0  0  0  0
    3.5716    2.4346   -1.5191 H   0  0  0  0  0  0  0  0  0  0  0  0
    3.7332    0.8753   -2.3158 H   0  0  0  0  0  0  0  0  0  0  0  0
    3.9700    0.0790    1.7842 H   0  0  0  0  0  0  0  0  0  0  0  0
    3.8060    1.6166    2.6113 H   0  0  0  0  0  0  0  0  0  0  0  0
    5.8275    1.6068   -1.1724 H   0  0  0  0  0  0  0  0  0  0  0  0
    5.2468    0.0636   -0.5664 H   0  0  0  0  0  0  0  0  0  0  0  0
    4.9393    2.7950    0.7683 H   0  0  0  0  0  0  0  0  0  0  0  0
    5.9311    1.4517    1.3203 H   0  0  0  0  0  0  0  0  0  0  0  0
    3.3423   -1.1108   -0.6777 H   0  0  0  0  0  0  0  0  0  0  0  0
    1.1946    2.9196    0.5272 H   0  0  0  0  0  0  0  0  0  0  0  0
    2.0668    3.1158    1.8924 H   0  0  0  0  0  0  0  0  0  0  0  0
   -1.7630   -3.4377    0.1747 H   0  0  0  0  0  0  0  0  0  0  0  0
   -3.2406   -2.1881    1.6114 H   0  0  0  0  0  0  0  0  0  0  0  0
   -5.0393   -0.4678    1.5832 H   0  0  0  0  0  0  0  0  0  0  0  0
   -1.0095    1.4587   -1.4132 H   0  0  0  0  0  0  0  0  0  0  0  0
   -2.3800    3.5004   -1.8066 H   0  0  0  0  0  0  0  0  0  0  0  0
   -4.6339    3.6562   -0.7813 H   0  0  0  0  0  0  0  0  0  0  0  0
  1 19  1  0  0  0  0
  2  8  1  0  0  0  0
  2 14  1  0  0  0  0
  2 35  1  0  0  0  0
  3  9  1  0  0  0  0
  3 36  1  0  0  0  0
  3 37  1  0  0  0  0
  4 14  2  0  0  0  0
  4 15  1  0  0  0  0
  5 14  1  0  0  0  0
  5 19  2  0  0  0  0
  6 20  1  0  0  0  0
  6 21  1  0  0  0  0
  6 40  1  0  0  0  0
  7 20  1  0  0  0  0
  7 24  2  0  0  0  0
  8  9  1  0  0  0  0
  8 10  1  0  0  0  0
  8 25  1  0  0  0  0
  9 11  1  0  0  0  0
  9 26  1  0  0  0  0
 10 12  1  0  0  0  0
 10 27  1  0  0  0  0
 10 28  1  0  0  0  0
 11 13  1  0  0  0  0
 11 29  1  0  0  0  0
 11 30  1  0  0  0  0
 12 13  1  0  0  0  0
 12 31  1  0  0  0  0
 12 32  1  0  0  0  0
 13 33  1  0  0  0  0
 13 34  1  0  0  0  0
 15 16  1  0  0  0  0
 15 18  2  0  0  0  0
 16 17  1  0  0  0  0
 16 21  2  0  0  0  0
 17 20  2  0  0  0  0
 17 22  1  0  0  0  0
 18 19  1  0  0  0  0
 18 38  1  0  0  0  0
 21 39  1  0  0  0  0
 22 23  2  0  0  0  0
 22 41  1  0  0  0  0
 23 24  1  0  0  0  0
 23 42  1  0  0  0  0
 24 43  1  0  0  0  0
M  END
> <PUBCHEM_COMPOUND_CID>
49830315

> <PUBCHEM_CONFORMER_RMSD>
0.8

> <PUBCHEM_CONFORMER_DIVERSEORDER>
1
30
105
68
36
32
135
13
91
140
117
150
86
47
35
119
39
90
41
158
171
152
111
128
131
151
19
88
17
82
100
81
78
154
118
168
34
127
21
126
114
69
93
122
20
27
113
84
143
101
156
144
15
170
55
96
95
10
63
7
133
58
167
155
136
149
33
62
141
102
50
53
103
92
108
28
94
157
80
26
5
142
159
59
161
87
54
98
6
60
137
124
132
18
148
147
123
11
104
79
125
48
66
73
107
121
145
51
44
169
97
70
8
173
134
164
14
139
37
65
172
165
130
31
61
162
153
89
77
116
43
56
160
22
75
166
23
29
52
120
106
67
16
129
12
72
146
163
3
74
109
110
112
38
99
83
138
9
64
25
2
76
4
85
24
71
45
57
115
40
46
49
42

> <PUBCHEM_MMFF94_PARTIAL_CHARGES>
28
1 -0.18
14 0.72
15 0.36
16 -0.05
18 -0.15
19 0.49
2 -0.87
20 0.11
21 -0.3
22 -0.15
23 -0.15
24 0.16
3 -0.99
35 0.4
36 0.36
37 0.36
38 0.15
39 0.15
4 -0.62
40 0.27
41 0.15
42 0.15
43 0.15
5 -0.62
6 0.03
7 -0.57
8 0.37
9 0.27

> <PUBCHEM_EFFECTIVE_ROTOR_COUNT>
4.2

> <PUBCHEM_PHARMACOPHORE_FEATURES>
12
1 2 donor
1 3 cation
1 3 donor
1 5 acceptor
1 6 cation
1 6 donor
1 7 acceptor
4 2 4 5 14 cation
5 6 16 17 20 21 rings
6 4 5 14 15 18 19 rings
6 7 17 20 22 23 24 rings
6 8 9 10 11 12 13 rings

> <PUBCHEM_HEAVY_ATOM_COUNT>
24

> <PUBCHEM_ATOM_DEF_STEREO_COUNT>
0

> <PUBCHEM_ATOM_UDEF_STEREO_COUNT>
2

> <PUBCHEM_BOND_DEF_STEREO_COUNT>
0

> <PUBCHEM_BOND_UDEF_STEREO_COUNT>
0

> <PUBCHEM_ISOTOPIC_ATOM_COUNT>
0

> <PUBCHEM_COMPONENT_COUNT>
1

> <PUBCHEM_CACTVS_TAUTO_COUNT>
16

> <PUBCHEM_CONFORMER_ID>
02F859AB00000001

> <PUBCHEM_MMFF94_ENERGY>
45.1395

> <PUBCHEM_FEATURE_SELFOVERLAP>
61.009

> <PUBCHEM_SHAPE_FINGERPRINT>
10165383 225 18269855218806655513
10670039 82 18188788235318114516
10759866 29 18040436590491706424
1100329 8 16827280239121013224
11370993 70 18411976966304936505
11552529 35 16735241671590751546
11725454 13 17917991719799626934
11833330 49 17691118661896471626
12403259 415 18339934748260107372
12422481 6 18044628972778172074
12549972 3 17462594722560646467
12596602 18 16443632422918307992
12633257 1 18269837691087591296
12769317 202 18268989795570247564
12788726 201 17611191842074930882
13134695 92 17620182140396017999
13140716 1 18263359188013801395
13402501 40 18411420622159149889
13540713 4 17970641684346649441
13544653 18 12468349172239393116
13726171 33 18189917438040041460
138480 1 17762336916308310478
14251757 5 18194698170658325228
14341114 328 17095526218501921464
14468879 13 18260274014632287353
14856354 85 16515687780048057642
15042514 8 17976827810667472115
15230672 131 18408326576177061910
15403338 16 16588566678585041129
20101258 96 17253731875958117106
21033648 29 18342730853991589544
21133410 32 14690579940432127148
21279426 13 18270690775341354462
21524375 3 18411985801221703238
22122407 14 17554631504170530385
22149856 69 18191330225473048505
23536364 44 17622751738098824390
23559900 14 18045224843017918559
3187 122 17044270529625289434
3298306 158 18341050739951776438
3524813 1 18341335590635962985
469060 322 18120950657250116507
495365 180 18268700615707044615
508706 21 18339924925933808334
5104073 3 18189064088514872561
5265222 85 18191886707036403790
5385378 56 18268435637393834577
57124632 79 18266730294959400026
6442390 28 18411143566571580318
7226269 152 17988638623693248264
7399639 24 18337121107286179611
7808743 9 18120662580950661708
81228 2 17692243462344226130
84936 182 18199186187479194497
9709674 26 18046635499768487447
9862522 239 18335409197076012214
9981440 41 18408038511654629731

> <PUBCHEM_SHAPE_MULTIPOLES>
465.89
9.28
4.87
1.16
2.93
6.34
-0.13
-9.39
-1.19
-0.64
0.84
0.52
-0.56
1.52

> <PUBCHEM_SHAPE_SELFOVERLAP>
1012.745

> <PUBCHEM_SHAPE_VOLUME>
253.9

> <PUBCHEM_COORDINATE_TYPE>
2
5
10

$$$$
