24905175
  -OEChem-10052115143D

 38 40  0     0  0  0  0  0  0999 V2000
    5.1565    0.2199   -0.9947 F   0  0  0  0  0  0  0  0  0  0  0  0
    4.1348    0.3397    1.5573 O   0  0  0  0  0  0  0  0  0  0  0  0
   -2.3047    1.0154   -0.0104 N   0  0  0  0  0  0  0  0  0  0  0  0
   -1.0266    1.3911   -0.2032 N   0  0  0  0  0  0  0  0  0  0  0  0
   -3.6201   -0.9981    0.2692 N   0  0  0  0  0  0  0  0  0  0  0  0
   -2.2319   -3.0021    0.1798 N   0  0  0  0  0  0  0  0  0  0  0  0
    0.1313   -2.9207   -0.1452 N   0  0  0  0  0  0  0  0  0  0  0  0
   -3.3364    2.0212    0.0803 C   0  0  0  0  0  0  0  0  0  0  0  0
   -2.4683   -0.3351    0.0791 C   0  0  0  0  0  0  0  0  0  0  0  0
   -1.2059   -0.8832   -0.0656 C   0  0  0  0  0  0  0  0  0  0  0  0
   -0.3625    0.2305   -0.2360 C   0  0  0  0  0  0  0  0  0  0  0  0
   -3.1147    2.9489    1.2774 C   0  0  0  0  0  0  0  0  0  0  0  0
   -3.4550    2.8245   -1.2174 C   0  0  0  0  0  0  0  0  0  0  0  0
    1.0654    0.2277   -0.4307 C   0  0  0  0  0  0  0  0  0  0  0  0
   -1.1082   -2.2696   -0.0098 C   0  0  0  0  0  0  0  0  0  0  0  0
    1.9195    0.2854    0.6707 C   0  0  0  0  0  0  0  0  0  0  0  0
    1.5937    0.1670   -1.7203 C   0  0  0  0  0  0  0  0  0  0  0  0
   -3.4014   -2.3303    0.3057 C   0  0  0  0  0  0  0  0  0  0  0  0
    3.3016    0.2823    0.4825 C   0  0  0  0  0  0  0  0  0  0  0  0
    2.9756    0.1639   -1.9086 C   0  0  0  0  0  0  0  0  0  0  0  0
    3.8297    0.2215   -0.8071 C   0  0  0  0  0  0  0  0  0  0  0  0
    3.5277    0.4001    2.8470 C   0  0  0  0  0  0  0  0  0  0  0  0
   -4.2885    1.4997    0.2361 H   0  0  0  0  0  0  0  0  0  0  0  0
   -2.1946    3.5342    1.1717 H   0  0  0  0  0  0  0  0  0  0  0  0
   -3.0381    2.3740    2.2070 H   0  0  0  0  0  0  0  0  0  0  0  0
   -3.9490    3.6504    1.3824 H   0  0  0  0  0  0  0  0  0  0  0  0
   -2.5479    3.4050   -1.4191 H   0  0  0  0  0  0  0  0  0  0  0  0
   -4.2964    3.5235   -1.1636 H   0  0  0  0  0  0  0  0  0  0  0  0
   -3.6220    2.1605   -2.0728 H   0  0  0  0  0  0  0  0  0  0  0  0
    1.4576    0.3309    1.6522 H   0  0  0  0  0  0  0  0  0  0  0  0
    0.9416    0.1211   -2.5894 H   0  0  0  0  0  0  0  0  0  0  0  0
   -4.2809   -2.9470    0.4563 H   0  0  0  0  0  0  0  0  0  0  0  0
    3.3872    0.1167   -2.9125 H   0  0  0  0  0  0  0  0  0  0  0  0
    0.9853   -2.4016   -0.2875 H   0  0  0  0  0  0  0  0  0  0  0  0
    0.1576   -3.9304   -0.0987 H   0  0  0  0  0  0  0  0  0  0  0  0
    4.3372    0.4402    3.5832 H   0  0  0  0  0  0  0  0  0  0  0  0
    2.9464   -0.5032    3.0613 H   0  0  0  0  0  0  0  0  0  0  0  0
    2.9375    1.3144    2.9720 H   0  0  0  0  0  0  0  0  0  0  0  0
  1 21  1  0  0  0  0
  2 19  1  0  0  0  0
  2 22  1  0  0  0  0
  3  4  1  0  0  0  0
  3  8  1  0  0  0  0
  3  9  1  0  0  0  0
  4 11  2  0  0  0  0
  5  9  2  0  0  0  0
  5 18  1  0  0  0  0
  6 15  1  0  0  0  0
  6 18  2  0  0  0  0
  7 15  1  0  0  0  0
  7 34  1  0  0  0  0
  7 35  1  0  0  0  0
  8 12  1  0  0  0  0
  8 13  1  0  0  0  0
  8 23  1  0  0  0  0
  9 10  1  0  0  0  0
 10 11  1  0  0  0  0
 10 15  2  0  0  0  0
 11 14  1  0  0  0  0
 12 24  1  0  0  0  0
 12 25  1  0  0  0  0
 12 26  1  0  0  0  0
 13 27  1  0  0  0  0
 13 28  1  0  0  0  0
 13 29  1  0  0  0  0
 14 16  2  0  0  0  0
 14 17  1  0  0  0  0
 16 19  1  0  0  0  0
 16 30  1  0  0  0  0
 17 20  2  0  0  0  0
 17 31  1  0  0  0  0
 18 32  1  0  0  0  0
 19 21  2  0  0  0  0
 20 21  1  0  0  0  0
 20 33  1  0  0  0  0
 22 36  1  0  0  0  0
 22 37  1  0  0  0  0
 22 38  1  0  0  0  0
M  END
> <PUBCHEM_COMPOUND_CID>
24905175

> <PUBCHEM_CONFORMER_RMSD>
0.6

> <PUBCHEM_CONFORMER_DIVERSEORDER>
2
9
5
3
8
6
7
4
10
1

> <PUBCHEM_MMFF94_PARTIAL_CHARGES>
25
1 -0.19
11 0.23
14 0.05
15 0.41
16 -0.15
17 -0.15
18 0.47
19 0.08
2 -0.36
20 -0.15
21 0.19
22 0.28
3 0.31
30 0.15
31 0.15
32 0.15
33 0.15
34 0.4
35 0.4
4 -0.71
5 -0.57
6 -0.62
7 -0.9
8 0.26
9 0.11

> <PUBCHEM_EFFECTIVE_ROTOR_COUNT>
3

> <PUBCHEM_PHARMACOPHORE_FEATURES>
10
1 2 acceptor
1 4 acceptor
1 7 cation
1 7 donor
3 3 5 9 cation
3 5 6 18 cation
3 8 12 13 hydrophobe
5 3 4 9 10 11 rings
6 14 16 17 19 20 21 rings
6 5 6 9 10 15 18 rings

> <PUBCHEM_HEAVY_ATOM_COUNT>
22

> <PUBCHEM_ATOM_DEF_STEREO_COUNT>
0

> <PUBCHEM_ATOM_UDEF_STEREO_COUNT>
0

> <PUBCHEM_BOND_DEF_STEREO_COUNT>
0

> <PUBCHEM_BOND_UDEF_STEREO_COUNT>
0

> <PUBCHEM_ISOTOPIC_ATOM_COUNT>
0

> <PUBCHEM_COMPONENT_COUNT>
1

> <PUBCHEM_CACTVS_TAUTO_COUNT>
5

> <PUBCHEM_CONFORMER_ID>
017C05D700000002

> <PUBCHEM_MMFF94_ENERGY>
59.4729

> <PUBCHEM_FEATURE_SELFOVERLAP>
51.025

> <PUBCHEM_SHAPE_FINGERPRINT>
10319926 262 18270100389163136000
11582403 64 17340925011724289868
11725454 13 17486457504690279000
12236239 1 17603868944219896846
12403259 415 17917715712247763872
12500047 106 18411983529373290862
12553582 1 18191872446838392099
12788726 201 18115312309750619883
13140716 1 18122356932711205787
13583140 156 17917135157429182970
14178342 30 18409163290300512642
14294032 229 18262238799500163485
15042514 8 18193008216923102219
15842332 3 17675927624879230420
16752209 62 18408320016659168175
16945 1 18337962280772749751
173720 79 17968084280208678917
18186145 218 17917437488286976792
19049666 15 17917160402872331062
20510252 161 18342746255622473721
20645477 70 14779532509650800040
21033648 29 17561356297309955096
21065201 7 18411705391660242902
212916 134 18267292158307603665
22112679 90 17822286903276263892
22149856 69 17903088733999637481
23402539 116 18341050817620137543
23419403 2 17200774869453633913
23526113 38 17273427071216392110
23557571 272 18272941526260184429
23559900 14 18271816657994461958
23598291 2 17530681005131622382
2748010 2 18120673344196435359
350125 39 18121234090794749291
469060 322 18336847346270959257
495365 180 17631156507870919318
5265222 85 18198359514846675614
57527295 17 17202206205152830756
602551 16 18411703222791403186
6049 1 17846508070694325624
7615 1 17749388204217768604
77492 1 17603587460610949598
81228 2 18338529650257827747
84936 182 17623852323210448129
9862522 239 17823126831476098021

> <PUBCHEM_SHAPE_MULTIPOLES>
414.7
8.3
3.02
1.68
5.36
0.91
-0.65
-2.89
-0.87
-5.34
-0.24
2.4
-0.72
0.41

> <PUBCHEM_SHAPE_SELFOVERLAP>
907.03

> <PUBCHEM_SHAPE_VOLUME>
227.3

> <PUBCHEM_COORDINATE_TYPE>
2
5
10

$$$$
