10429593
  -OEChem-10062122033D

 49 51  0     0  0  0  0  0  0999 V2000
    4.4058    3.0936    1.2163 F   0  0  0  0  0  0  0  0  0  0  0  0
    7.1342    0.0136   -1.1284 F   0  0  0  0  0  0  0  0  0  0  0  0
   -5.4316    0.6614    0.7015 O   0  0  0  0  0  0  0  0  0  0  0  0
    2.9108   -2.4302   -0.0289 O   0  0  0  0  0  0  0  0  0  0  0  0
   -3.2576    0.0413    0.1596 N   0  0  0  0  0  0  0  0  0  0  0  0
   -1.2694   -2.9751    0.0520 N   0  0  0  0  0  0  0  0  0  0  0  0
    0.0636   -2.7225    0.0514 N   0  0  0  0  0  0  0  0  0  0  0  0
    1.3327   -0.6876    0.1048 N   0  0  0  0  0  0  0  0  0  0  0  0
   -3.4262   -1.4705    0.1144 C   0  0  0  0  0  0  0  0  0  0  0  0
   -1.9945   -1.8382    0.0921 C   0  0  0  0  0  0  0  0  0  0  0  0
   -1.8186    0.4903    0.1625 C   0  0  0  0  0  0  0  0  0  0  0  0
   -1.1238   -0.7950    0.1181 C   0  0  0  0  0  0  0  0  0  0  0  0
   -4.1346   -1.9224   -1.1635 C   0  0  0  0  0  0  0  0  0  0  0  0
   -4.1147   -2.0004    1.3731 C   0  0  0  0  0  0  0  0  0  0  0  0
   -4.3388    0.9177    0.1941 C   0  0  0  0  0  0  0  0  0  0  0  0
   -4.1056    2.2630   -0.4476 C   0  0  0  0  0  0  0  0  0  0  0  0
    0.1388   -1.3793    0.0917 C   0  0  0  0  0  0  0  0  0  0  0  0
   -3.7579    2.0274   -1.9177 C   0  0  0  0  0  0  0  0  0  0  0  0
   -2.9483    2.9574    0.2718 C   0  0  0  0  0  0  0  0  0  0  0  0
   -5.3834    3.0947   -0.3260 C   0  0  0  0  0  0  0  0  0  0  0  0
    2.6145   -1.2428    0.0450 C   0  0  0  0  0  0  0  0  0  0  0  0
    3.7273   -0.2564    0.0443 C   0  0  0  0  0  0  0  0  0  0  0  0
    4.9206   -0.6011   -0.5540 C   0  0  0  0  0  0  0  0  0  0  0  0
    3.5288    0.9700    0.6423 C   0  0  0  0  0  0  0  0  0  0  0  0
    4.5728    1.8951    0.6420 C   0  0  0  0  0  0  0  0  0  0  0  0
    5.9645    0.3240   -0.5545 C   0  0  0  0  0  0  0  0  0  0  0  0
    5.7906    1.5722    0.0436 C   0  0  0  0  0  0  0  0  0  0  0  0
   -1.5872    1.0040    1.0975 H   0  0  0  0  0  0  0  0  0  0  0  0
   -1.5423    1.0509   -0.7261 H   0  0  0  0  0  0  0  0  0  0  0  0
   -5.1707   -1.5676   -1.1867 H   0  0  0  0  0  0  0  0  0  0  0  0
   -3.6370   -1.5310   -2.0590 H   0  0  0  0  0  0  0  0  0  0  0  0
   -4.1509   -3.0153   -1.2441 H   0  0  0  0  0  0  0  0  0  0  0  0
   -4.0601   -3.0944    1.4209 H   0  0  0  0  0  0  0  0  0  0  0  0
   -3.6465   -1.6073    2.2835 H   0  0  0  0  0  0  0  0  0  0  0  0
   -5.1740   -1.7271    1.4029 H   0  0  0  0  0  0  0  0  0  0  0  0
   -1.5827   -3.9380    0.0249 H   0  0  0  0  0  0  0  0  0  0  0  0
   -3.5181    2.9768   -2.4112 H   0  0  0  0  0  0  0  0  0  0  0  0
   -4.6204    1.6015   -2.4466 H   0  0  0  0  0  0  0  0  0  0  0  0
   -2.9304    1.3456   -2.1130 H   0  0  0  0  0  0  0  0  0  0  0  0
   -1.9839    2.9101   -0.2381 H   0  0  0  0  0  0  0  0  0  0  0  0
   -2.8586    2.6688    1.3245 H   0  0  0  0  0  0  0  0  0  0  0  0
   -3.1451    4.0390    0.3020 H   0  0  0  0  0  0  0  0  0  0  0  0
   -5.6476    3.2762    0.7227 H   0  0  0  0  0  0  0  0  0  0  0  0
   -5.2650    4.0709   -0.8103 H   0  0  0  0  0  0  0  0  0  0  0  0
   -6.2380    2.5986   -0.8013 H   0  0  0  0  0  0  0  0  0  0  0  0
    1.2184    0.3215    0.1017 H   0  0  0  0  0  0  0  0  0  0  0  0
    5.0723   -1.5654   -1.0293 H   0  0  0  0  0  0  0  0  0  0  0  0
    2.6146    1.2499    1.1542 H   0  0  0  0  0  0  0  0  0  0  0  0
    6.6033    2.2923    0.0435 H   0  0  0  0  0  0  0  0  0  0  0  0
  1 25  1  0  0  0  0
  2 26  1  0  0  0  0
  3 15  2  0  0  0  0
  4 21  2  0  0  0  0
  5  9  1  0  0  0  0
  5 11  1  0  0  0  0
  5 15  1  0  0  0  0
  6  7  1  0  0  0  0
  6 10  1  0  0  0  0
  6 36  1  0  0  0  0
  7 17  2  0  0  0  0
  8 17  1  0  0  0  0
  8 21  1  0  0  0  0
  8 46  1  0  0  0  0
  9 10  1  0  0  0  0
  9 13  1  0  0  0  0
  9 14  1  0  0  0  0
 10 12  2  0  0  0  0
 11 12  1  0  0  0  0
 11 28  1  0  0  0  0
 11 29  1  0  0  0  0
 12 17  1  0  0  0  0
 13 30  1  0  0  0  0
 13 31  1  0  0  0  0
 13 32  1  0  0  0  0
 14 33  1  0  0  0  0
 14 34  1  0  0  0  0
 14 35  1  0  0  0  0
 15 16  1  0  0  0  0
 16 18  1  0  0  0  0
 16 19  1  0  0  0  0
 16 20  1  0  0  0  0
 18 37  1  0  0  0  0
 18 38  1  0  0  0  0
 18 39  1  0  0  0  0
 19 40  1  0  0  0  0
 19 41  1  0  0  0  0
 19 42  1  0  0  0  0
 20 43  1  0  0  0  0
 20 44  1  0  0  0  0
 20 45  1  0  0  0  0
 21 22  1  0  0  0  0
 22 23  2  0  0  0  0
 22 24  1  0  0  0  0
 23 26  1  0  0  0  0
 23 47  1  0  0  0  0
 24 25  2  0  0  0  0
 24 48  1  0  0  0  0
 25 27  1  0  0  0  0
 26 27  2  0  0  0  0
 27 49  1  0  0  0  0
M  END
> <PUBCHEM_COMPOUND_CID>
10429593

> <PUBCHEM_CONFORMER_RMSD>
0.8

> <PUBCHEM_CONFORMER_DIVERSEORDER>
1
10
7
9
8
2
6
5
3
4

> <PUBCHEM_MMFF94_PARTIAL_CHARGES>
27
1 -0.19
10 -0.33
11 0.48
12 -0.18
15 0.57
16 0.06
17 0.35
2 -0.19
21 0.54
22 0.09
23 -0.15
24 -0.15
25 0.19
26 0.19
27 -0.15
3 -0.57
36 0.27
4 -0.57
46 0.37
47 0.15
48 0.15
49 0.15
5 -0.66
6 0.3
7 -0.71
8 -0.49
9 0.48

> <PUBCHEM_EFFECTIVE_ROTOR_COUNT>
5.6

> <PUBCHEM_PHARMACOPHORE_FEATURES>
9
1 3 acceptor
1 4 acceptor
1 6 donor
1 8 donor
3 9 13 14 hydrophobe
4 16 18 19 20 hydrophobe
5 5 9 10 11 12 rings
5 6 7 10 12 17 rings
6 22 23 24 25 26 27 rings

> <PUBCHEM_HEAVY_ATOM_COUNT>
27

> <PUBCHEM_ATOM_DEF_STEREO_COUNT>
0

> <PUBCHEM_ATOM_UDEF_STEREO_COUNT>
0

> <PUBCHEM_BOND_DEF_STEREO_COUNT>
0

> <PUBCHEM_BOND_UDEF_STEREO_COUNT>
0

> <PUBCHEM_ISOTOPIC_ATOM_COUNT>
0

> <PUBCHEM_COMPONENT_COUNT>
1

> <PUBCHEM_CACTVS_TAUTO_COUNT>
8

> <PUBCHEM_CONFORMER_ID>
009F249900000001

> <PUBCHEM_MMFF94_ENERGY>
101.5376

> <PUBCHEM_FEATURE_SELFOVERLAP>
45.916

> <PUBCHEM_SHAPE_FINGERPRINT>
10 15 18113626659994048993
10411042 1 17832711540930121483
10670039 82 18334576867306659284
10763959 59 18413394246226846444
11101153 10 18267300031351552221
11595378 159 17095511869058195188
11796584 16 10375603568277976166
12107183 9 18045771296292509466
12390115 104 18340216210657890867
12403259 415 18341895220869438064
12596602 18 15864075372825072112
12769317 202 18342730780981783320
12925494 130 18337952273605205321
13402501 40 18412262822359597376
14347329 18 18411412895623397440
14848178 96 18339634534315054944
15183329 4 18272376343704120554
17844677 252 18339366361337064232
20645477 56 18409452483497153323
21033648 144 18115582648013911919
21033648 29 18341604954100174880
21236236 1 18410573998495341071
21279426 13 18342745087913394212
21315763 129 18341047519111374054
21315764 268 18335134272003679013
21709351 56 18273213119097058094
221357 26 18201719608815339072
22393880 68 18343300384013762122
22956985 138 16598741821735860795
23559900 14 18200027318697580530
2747138 104 18044104668302787259
283562 15 18334571374408173123
2838139 119 18412537704655791806
350125 39 18410856581927035489
3552219 110 17773326841020870435
4073 2 18040725774971734506
4371632 12 16412070997488214209
469060 322 16515681152333303663
497634 4 17346041194448391995
508706 21 18337945804724275400
5104073 3 18114460080764717050
5283173 99 18413388752504764880
6327066 14 18190175699018392597
7808743 9 18408601452859594211
9981440 41 18260552212491416283

> <PUBCHEM_SHAPE_MULTIPOLES>
509.44
15.62
3.69
1.03
17.35
0.88
-0.19
9.06
-1.66
-3.4
0.19
-0.47
0.24
1.54

> <PUBCHEM_SHAPE_SELFOVERLAP>
1106.042

> <PUBCHEM_SHAPE_VOLUME>
282

> <PUBCHEM_COORDINATE_TYPE>
2
5
10

$$$$
