11597571
  -OEChem-10052115173D

 52 55  0     1  0  0  0  0  0999 V2000
   -3.2423    0.9068   -2.3851 Cl  0  0  0  0  0  0  0  0  0  0  0  0
   -4.9813   -2.0040    1.8814 Cl  0  0  0  0  0  0  0  0  0  0  0  0
   -5.5471    2.5913   -1.7054 F   0  0  0  0  0  0  0  0  0  0  0  0
   -2.2018   -1.4748    0.6853 O   0  0  0  0  0  0  0  0  0  0  0  0
    4.5444   -0.6226   -0.8188 N   0  0  0  0  0  0  0  0  0  0  0  0
    7.3586    1.3419    1.1756 N   0  0  0  0  0  0  0  0  0  0  0  0
    4.0318   -1.4574   -1.7359 N   0  0  0  0  0  0  0  0  0  0  0  0
   -0.2071    1.5400    1.2337 N   0  0  0  0  0  0  0  0  0  0  0  0
   -2.4643    1.0582    1.7908 N   0  0  0  0  0  0  0  0  0  0  0  0
    6.0009   -0.4285   -0.7451 C   0  0  0  0  0  0  0  0  0  0  0  0
    6.6321   -0.9414    0.5609 C   0  0  0  0  0  0  0  0  0  0  0  0
    6.4589    0.9963   -1.1026 C   0  0  0  0  0  0  0  0  0  0  0  0
    6.7403    0.1112    1.6627 C   0  0  0  0  0  0  0  0  0  0  0  0
    6.5771    1.9376    0.0946 C   0  0  0  0  0  0  0  0  0  0  0  0
    3.6117   -0.0259   -0.0264 C   0  0  0  0  0  0  0  0  0  0  0  0
    2.3979   -0.5047   -0.4552 C   0  0  0  0  0  0  0  0  0  0  0  0
    2.7178   -1.3815   -1.5092 C   0  0  0  0  0  0  0  0  0  0  0  0
    1.1407   -0.1298    0.1133 C   0  0  0  0  0  0  0  0  0  0  0  0
    0.0617   -1.0095    0.1192 C   0  0  0  0  0  0  0  0  0  0  0  0
    0.9534    1.1231    0.6794 C   0  0  0  0  0  0  0  0  0  0  0  0
   -1.1486   -0.6170    0.6804 C   0  0  0  0  0  0  0  0  0  0  0  0
   -3.0822   -1.4326   -0.4383 C   0  0  2  0  0  0  0  0  0  0  0  0
   -1.2306    0.6568    1.2195 C   0  0  0  0  0  0  0  0  0  0  0  0
   -4.2121   -0.4614   -0.2350 C   0  0  0  0  0  0  0  0  0  0  0  0
   -3.5786   -2.8513   -0.6984 C   0  0  0  0  0  0  0  0  0  0  0  0
   -4.3481    0.6319   -1.0864 C   0  0  0  0  0  0  0  0  0  0  0  0
   -5.1166   -0.6608    0.8045 C   0  0  0  0  0  0  0  0  0  0  0  0
   -5.3966    1.5322   -0.8969 C   0  0  0  0  0  0  0  0  0  0  0  0
   -6.1650    0.2397    0.9940 C   0  0  0  0  0  0  0  0  0  0  0  0
   -6.3050    1.3361    0.1433 C   0  0  0  0  0  0  0  0  0  0  0  0
    6.3808   -1.0816   -1.5455 H   0  0  0  0  0  0  0  0  0  0  0  0
    7.6500   -1.2844    0.3284 H   0  0  0  0  0  0  0  0  0  0  0  0
    6.0915   -1.8179    0.9383 H   0  0  0  0  0  0  0  0  0  0  0  0
    5.8001    1.4402   -1.8587 H   0  0  0  0  0  0  0  0  0  0  0  0
    7.4526    0.9221   -1.5659 H   0  0  0  0  0  0  0  0  0  0  0  0
    5.7561    0.3252    2.0934 H   0  0  0  0  0  0  0  0  0  0  0  0
    7.3536   -0.2917    2.4766 H   0  0  0  0  0  0  0  0  0  0  0  0
    7.0718    2.8603   -0.2294 H   0  0  0  0  0  0  0  0  0  0  0  0
    5.5857    2.2290    0.4585 H   0  0  0  0  0  0  0  0  0  0  0  0
    7.4290    2.0082    1.9443 H   0  0  0  0  0  0  0  0  0  0  0  0
    3.8796    0.6652    0.7596 H   0  0  0  0  0  0  0  0  0  0  0  0
    2.0539   -1.9698   -2.1272 H   0  0  0  0  0  0  0  0  0  0  0  0
    0.1496   -2.0071   -0.3053 H   0  0  0  0  0  0  0  0  0  0  0  0
    1.7393    1.8722    0.7051 H   0  0  0  0  0  0  0  0  0  0  0  0
   -2.4833   -1.1941   -1.3214 H   0  0  0  0  0  0  0  0  0  0  0  0
   -4.4907   -2.8740   -1.3040 H   0  0  0  0  0  0  0  0  0  0  0  0
   -3.7093   -3.4604    0.1985 H   0  0  0  0  0  0  0  0  0  0  0  0
   -2.8084   -3.3913   -1.2656 H   0  0  0  0  0  0  0  0  0  0  0  0
   -6.8813    0.1015    1.8000 H   0  0  0  0  0  0  0  0  0  0  0  0
   -3.0134    0.3474    2.2588 H   0  0  0  0  0  0  0  0  0  0  0  0
   -2.5007    1.9976    2.1679 H   0  0  0  0  0  0  0  0  0  0  0  0
   -7.1210    2.0373    0.2906 H   0  0  0  0  0  0  0  0  0  0  0  0
  1 26  1  0  0  0  0
  2 27  1  0  0  0  0
  3 28  1  0  0  0  0
  4 21  1  0  0  0  0
  4 22  1  0  0  0  0
  5  7  1  0  0  0  0
  5 10  1  0  0  0  0
  5 15  1  0  0  0  0
  6 13  1  0  0  0  0
  6 14  1  0  0  0  0
  6 40  1  0  0  0  0
  7 17  2  0  0  0  0
  8 20  2  0  0  0  0
  8 23  1  0  0  0  0
  9 23  1  0  0  0  0
  9 50  1  0  0  0  0
  9 51  1  0  0  0  0
 10 11  1  0  0  0  0
 10 12  1  0  0  0  0
 10 31  1  0  0  0  0
 11 13  1  0  0  0  0
 11 32  1  0  0  0  0
 11 33  1  0  0  0  0
 12 14  1  0  0  0  0
 12 34  1  0  0  0  0
 12 35  1  0  0  0  0
 13 36  1  0  0  0  0
 13 37  1  0  0  0  0
 14 38  1  0  0  0  0
 14 39  1  0  0  0  0
 15 16  2  0  0  0  0
 15 41  1  0  0  0  0
 16 17  1  0  0  0  0
 16 18  1  0  0  0  0
 17 42  1  0  0  0  0
 18 19  2  0  0  0  0
 18 20  1  0  0  0  0
 19 21  1  0  0  0  0
 19 43  1  0  0  0  0
 20 44  1  0  0  0  0
 21 23  2  0  0  0  0
 22 24  1  0  0  0  0
 22 25  1  0  0  0  0
 22 45  1  0  0  0  0
 24 26  1  0  0  0  0
 24 27  2  0  0  0  0
 25 46  1  0  0  0  0
 25 47  1  0  0  0  0
 25 48  1  0  0  0  0
 26 28  2  0  0  0  0
 27 29  1  0  0  0  0
 28 30  1  0  0  0  0
 29 30  2  0  0  0  0
 29 49  1  0  0  0  0
 30 52  1  0  0  0  0
M  END
> <PUBCHEM_COMPOUND_CID>
11597571

> <PUBCHEM_CONFORMER_RMSD>
1

> <PUBCHEM_CONFORMER_DIVERSEORDER>
117
16
337
21
51
102
57
157
449
408
354
30
114
302
662
482
191
556
288
385
58
271
414
34
257
245
439
547
196
475
554
49
670
189
5
588
605
368
41
10
197
186
158
424
64
170
433
56
127
85
529
372
24
500
231
44
144
130
381
262
397
456
373
155
660
78
519
65
553
326
77
353
587
35
504
28
183
672
135
133
9
80
289
84
521
612
481
583
518
452
69
201
604
22
124
228
544
18
268
4
237
112
142
6
451
502
220
199
379
389
159
371
118
73
79
620
90
36
11
594
63
338
40
134
516
187
54
581
607
436
38
176
258
42
619
599
7
47
241
614
137
20
55
128
428
141
8
37
110
46
32
384
167
652
50
66
95
2
227
248
348
19
238
3
212
96
82
1
252
109
412
305
74
160
98
565
520
71
401
297
123
27

> <PUBCHEM_MMFF94_PARTIAL_CHARGES>
36
1 -0.18
10 0.26
13 0.27
14 0.27
15 -0.3
16 -0.05
17 0.14
18 0.05
19 -0.15
2 -0.18
20 0.16
21 0.08
22 0.42
23 0.41
24 -0.14
26 0.18
27 0.18
28 0.19
29 -0.15
3 -0.19
30 -0.15
4 -0.36
40 0.36
41 0.15
42 0.15
43 0.15
44 0.15
49 0.15
5 0.31
50 0.4
51 0.4
52 0.15
6 -0.9
7 -0.71
8 -0.62
9 -0.9

> <PUBCHEM_EFFECTIVE_ROTOR_COUNT>
6.2

> <PUBCHEM_PHARMACOPHORE_FEATURES>
11
1 4 acceptor
1 6 cation
1 6 donor
1 7 acceptor
1 8 acceptor
1 9 cation
1 9 donor
5 5 7 15 16 17 rings
6 24 26 27 28 29 30 rings
6 6 10 11 12 13 14 rings
6 8 18 19 20 21 23 rings

> <PUBCHEM_HEAVY_ATOM_COUNT>
30

> <PUBCHEM_ATOM_DEF_STEREO_COUNT>
0

> <PUBCHEM_ATOM_UDEF_STEREO_COUNT>
1

> <PUBCHEM_BOND_DEF_STEREO_COUNT>
0

> <PUBCHEM_BOND_UDEF_STEREO_COUNT>
0

> <PUBCHEM_ISOTOPIC_ATOM_COUNT>
0

> <PUBCHEM_COMPONENT_COUNT>
1

> <PUBCHEM_CACTVS_TAUTO_COUNT>
2

> <PUBCHEM_CONFORMER_ID>
00B0F70300000075

> <PUBCHEM_MMFF94_ENERGY>
84.7193

> <PUBCHEM_FEATURE_SELFOVERLAP>
55.822

> <PUBCHEM_SHAPE_FINGERPRINT>
10165383 225 18409732817040990473
10835480 77 18273494576609224964
10906281 52 17631751424986447222
11135926 11 17846503599623256806
11475781 23 18336547097285289924
11646440 116 14273453682932568428
11719270 70 18131069325500783934
12166972 35 13118006604116886070
12236239 1 17675926504045954954
12516196 113 17203612592367881770
12788726 201 17488464066493098627
13533116 47 17967810519310042354
13914758 101 17821727196418634072
14251752 14 18040997319303002752
14840074 17 16630529522410061852
14849402 71 15936989538371739180
14856354 85 17095531720898301707
15021287 119 14634871959085799423
15183329 4 13190337976908293146
15276724 80 17560246812510018689
1577012 14 15502385516909851702
18608769 82 18335708286574064155
19377110 9 16008742515653415809
20511986 3 18410567384309417926
21130935 74 17313101960752732138
21315759 40 15285365041490697283
21424621 283 17676489432213290280
21756936 100 16588020200226552661
21859007 373 18187919539417301860
23081809 10 16298674953486077230
23198884 109 16588029021788627001
23536379 177 17385725789945467786
23559900 14 17846491582119737088
24771293 8 15913318135932272418
24771750 20 17910681187051248352
249057 25 16009039414037327119
3009799 131 18202280286240619272
3383291 50 12468636144980757272
4098825 35 18261115213583173533
4169191 19 17632013169368892432
4325135 7 16559031584924324228
4760202 170 16558459812333235433
49967989 163 13973670780768103773
504579 68 15051733092579817240
5104073 3 13768507417447163372
5283173 99 18408882902204177188
59755656 520 13551197697175866289
6328613 192 15626216948888682344
7226269 152 18413669102083876331
9996256 80 12468361271062195344

> <PUBCHEM_SHAPE_MULTIPOLES>
583.08
20.69
2.14
1.79
22.81
0.13
0.21
-5.27
-1.78
-2.37
0.37
-0.44
-0.14
2.03

> <PUBCHEM_SHAPE_SELFOVERLAP>
1247.956

> <PUBCHEM_SHAPE_VOLUME>
325.5

> <PUBCHEM_COORDINATE_TYPE>
2
5
10

$$$$
