9905711
  -OEChem-10052120443D

 28 30  0     0  0  0  0  0  0999 V2000
   -4.1056   -2.1347   -0.1729 O   0  0  0  0  0  0  0  0  0  0  0  0
    0.3417    1.5823    0.1109 N   0  0  0  0  0  0  0  0  0  0  0  0
   -0.1114   -0.5883   -0.0402 N   0  0  0  0  0  0  0  0  0  0  0  0
   -1.8660   -2.6276   -0.1851 N   0  0  0  0  0  0  0  0  0  0  0  0
    5.0087   -0.4596   -0.0184 N   0  0  0  0  0  0  0  0  0  0  0  0
   -1.0267    1.4939    0.1015 C   0  0  0  0  0  0  0  0  0  0  0  0
   -1.2846    0.1292    0.0067 C   0  0  0  0  0  0  0  0  0  0  0  0
    0.8426    0.3132    0.0244 C   0  0  0  0  0  0  0  0  0  0  0  0
   -2.6172   -0.3152   -0.0273 C   0  0  0  0  0  0  0  0  0  0  0  0
   -2.0304    2.4610    0.1659 C   0  0  0  0  0  0  0  0  0  0  0  0
    2.2613    0.0500    0.0098 C   0  0  0  0  0  0  0  0  0  0  0  0
   -3.6414    0.6379    0.0361 C   0  0  0  0  0  0  0  0  0  0  0  0
   -3.3509    2.0009    0.1309 C   0  0  0  0  0  0  0  0  0  0  0  0
   -2.9293   -1.7294   -0.1256 C   0  0  0  0  0  0  0  0  0  0  0  0
    2.7550   -1.1400    0.5316 C   0  0  0  0  0  0  0  0  0  0  0  0
    3.1384    0.9858   -0.5259 C   0  0  0  0  0  0  0  0  0  0  0  0
    4.1247   -1.3450    0.4939 C   0  0  0  0  0  0  0  0  0  0  0  0
    4.4911    0.6857   -0.5163 C   0  0  0  0  0  0  0  0  0  0  0  0
    0.8727    2.4402    0.1831 H   0  0  0  0  0  0  0  0  0  0  0  0
   -1.8025    3.5183    0.2394 H   0  0  0  0  0  0  0  0  0  0  0  0
   -4.6856    0.3345    0.0129 H   0  0  0  0  0  0  0  0  0  0  0  0
   -4.1660    2.7190    0.1786 H   0  0  0  0  0  0  0  0  0  0  0  0
    2.1057   -1.8959    0.9615 H   0  0  0  0  0  0  0  0  0  0  0  0
    2.8064    1.9245   -0.9568 H   0  0  0  0  0  0  0  0  0  0  0  0
    4.5610   -2.2566    0.8888 H   0  0  0  0  0  0  0  0  0  0  0  0
    5.2173    1.3806   -0.9251 H   0  0  0  0  0  0  0  0  0  0  0  0
   -0.8905   -2.3532   -0.1564 H   0  0  0  0  0  0  0  0  0  0  0  0
   -2.0442   -3.6239   -0.2607 H   0  0  0  0  0  0  0  0  0  0  0  0
  1 14  2  0  0  0  0
  2  6  1  0  0  0  0
  2  8  1  0  0  0  0
  2 19  1  0  0  0  0
  3  7  1  0  0  0  0
  3  8  2  0  0  0  0
  4 14  1  0  0  0  0
  4 27  1  0  0  0  0
  4 28  1  0  0  0  0
  5 17  2  0  0  0  0
  5 18  1  0  0  0  0
  6  7  1  0  0  0  0
  6 10  2  0  0  0  0
  7  9  2  0  0  0  0
  8 11  1  0  0  0  0
  9 12  1  0  0  0  0
  9 14  1  0  0  0  0
 10 13  1  0  0  0  0
 10 20  1  0  0  0  0
 11 15  2  0  0  0  0
 11 16  1  0  0  0  0
 12 13  2  0  0  0  0
 12 21  1  0  0  0  0
 13 22  1  0  0  0  0
 15 17  1  0  0  0  0
 15 23  1  0  0  0  0
 16 18  2  0  0  0  0
 16 24  1  0  0  0  0
 17 25  1  0  0  0  0
 18 26  1  0  0  0  0
M  END
> <PUBCHEM_COMPOUND_CID>
9905711

> <PUBCHEM_CONFORMER_RMSD>
0.6

> <PUBCHEM_CONFORMER_DIVERSEORDER>
1
3
2
4

> <PUBCHEM_MMFF94_PARTIAL_CHARGES>
28
1 -0.57
10 -0.15
11 0.05
12 -0.15
13 -0.15
14 0.54
15 -0.15
16 -0.15
17 0.16
18 0.16
19 0.27
2 0.03
20 0.15
21 0.15
22 0.15
23 0.15
24 0.15
25 0.15
26 0.15
27 0.37
28 0.37
3 -0.57
4 -0.8
5 -0.62
6 -0.15
7 0.23
8 0.13
9 0.09

> <PUBCHEM_EFFECTIVE_ROTOR_COUNT>
2

> <PUBCHEM_PHARMACOPHORE_FEATURES>
8
1 1 acceptor
1 2 donor
1 4 donor
1 5 acceptor
3 2 3 8 cation
5 2 3 6 7 8 rings
6 5 11 15 16 17 18 rings
6 6 7 9 10 12 13 rings

> <PUBCHEM_HEAVY_ATOM_COUNT>
18

> <PUBCHEM_ATOM_DEF_STEREO_COUNT>
0

> <PUBCHEM_ATOM_UDEF_STEREO_COUNT>
0

> <PUBCHEM_BOND_DEF_STEREO_COUNT>
0

> <PUBCHEM_BOND_UDEF_STEREO_COUNT>
0

> <PUBCHEM_ISOTOPIC_ATOM_COUNT>
0

> <PUBCHEM_COMPONENT_COUNT>
1

> <PUBCHEM_CACTVS_TAUTO_COUNT>
9

> <PUBCHEM_CONFORMER_ID>
0097262F00000001

> <PUBCHEM_MMFF94_ENERGY>
45.1467

> <PUBCHEM_FEATURE_SELFOVERLAP>
40.703

> <PUBCHEM_SHAPE_FINGERPRINT>
10062212 137 18335135375731146418
10616163 171 18411702079998182838
11046707 91 18342175596023336331
12107183 9 17759236293897453034
12173636 292 18339356345125638357
12236239 1 17967817123861642264
12403814 3 17895196550212041941
12500047 106 18340199683323334752
12553582 1 18196363934679086887
12757275 245 18411138043364781327
13140716 1 18342461478011338273
13167823 11 18334295353575106898
13760787 19 18334861584846437132
14508225 48 18338784728550725749
14790565 3 18124602972747829217
14965852 173 18410854360621997209
15042514 8 18410017628769427403
15196674 1 18410011035667651658
15442244 35 18335983078090434304
15669948 3 18411976957741128735
16752209 62 18340471318814910779
16945 1 18341334405588914473
17492 89 18409168792476229650
17804303 29 18271807942841309609
18186145 218 16153429458713757264
19050596 39 18408039594181287344
19422 9 18334858316265542070
200 152 18334573576897525638
20281475 54 18335414647769344850
20510252 161 18272374161285838473
21267235 1 18409176531684958914
21634736 98 18263363766601718380
221490 88 18336833112253318160
23175994 123 16845575309416173296
23366157 5 18043527424756557656
23402539 116 18411412903944091964
23402655 69 18260551087383576732
23557571 272 18201167610917889308
23559900 14 18128539254655608198
2748010 2 18125426751906578493
4214541 1 18410292480405537436
474 4 17386580179732827564
5104073 3 18411416207327902592
559249 180 18190454966054735210
57096353 35 18188216497893006788
573450 72 18335412435803087448
58051976 100 18408605833805370420
633830 44 16588314843330626964
67856867 119 18261670472131376028
69090 78 18335983051946318073
77779 3 18410013217558465324
8809292 202 18410856577083448499
9709674 26 18271811159798422190

> <PUBCHEM_SHAPE_MULTIPOLES>
344.64
9.02
2.45
0.66
7.11
0.5
0
1.52
0.27
-2.71
0.01
0.2
-0.01
-0.75

> <PUBCHEM_SHAPE_SELFOVERLAP>
773.861

> <PUBCHEM_SHAPE_VOLUME>
182.4

> <PUBCHEM_COORDINATE_TYPE>
2
5
10

$$$$
