49830442
  -OEChem-10052115193D

 39 42  0     0  0  0  0  0  0999 V2000
   -1.7883    0.6209   -0.9172 N   0  0  0  0  0  0  0  0  0  0  0  0
   -0.4478   -0.8265   -1.7749 N   0  0  0  0  0  0  0  0  0  0  0  0
   -1.6691   -0.3132   -1.8745 N   0  0  0  0  0  0  0  0  0  0  0  0
    5.4353   -1.0233    0.8083 N   0  0  0  0  0  0  0  0  0  0  0  0
    6.0186    0.1740    0.6325 N   0  0  0  0  0  0  0  0  0  0  0  0
    5.1264    2.2522   -0.1528 N   0  0  0  0  0  0  0  0  0  0  0  0
   -0.6502    0.7310   -0.1792 C   0  0  0  0  0  0  0  0  0  0  0  0
    0.1893   -0.1977   -0.7414 C   0  0  0  0  0  0  0  0  0  0  0  0
    1.5344   -0.4829   -0.3241 C   0  0  0  0  0  0  0  0  0  0  0  0
   -3.0167    1.3626   -0.7775 C   0  0  0  0  0  0  0  0  0  0  0  0
    3.8046    0.2354    0.0563 C   0  0  0  0  0  0  0  0  0  0  0  0
    2.4954    0.5353   -0.3554 C   0  0  0  0  0  0  0  0  0  0  0  0
    4.1066   -1.0539    0.4803 C   0  0  0  0  0  0  0  0  0  0  0  0
    1.8649   -1.7693    0.1063 C   0  0  0  0  0  0  0  0  0  0  0  0
   -4.1073    0.5875   -0.0810 C   0  0  0  0  0  0  0  0  0  0  0  0
    3.1637   -2.0834    0.5195 C   0  0  0  0  0  0  0  0  0  0  0  0
   -0.4953    1.6765    0.9395 C   0  0  0  0  0  0  0  0  0  0  0  0
    5.0234    0.9373    0.1754 C   0  0  0  0  0  0  0  0  0  0  0  0
   -4.8258   -0.3847   -0.7771 C   0  0  0  0  0  0  0  0  0  0  0  0
   -4.3973    0.8430    1.2591 C   0  0  0  0  0  0  0  0  0  0  0  0
   -5.8344   -1.1014   -0.1329 C   0  0  0  0  0  0  0  0  0  0  0  0
   -5.4059    0.1263    1.9034 C   0  0  0  0  0  0  0  0  0  0  0  0
   -6.1245   -0.8458    1.2073 C   0  0  0  0  0  0  0  0  0  0  0  0
   -3.3466    1.6483   -1.7847 H   0  0  0  0  0  0  0  0  0  0  0  0
   -2.8087    2.3028   -0.2551 H   0  0  0  0  0  0  0  0  0  0  0  0
    2.2447    1.5367   -0.6951 H   0  0  0  0  0  0  0  0  0  0  0  0
    1.1111   -2.5544    0.1288 H   0  0  0  0  0  0  0  0  0  0  0  0
    3.4224   -3.0816    0.8545 H   0  0  0  0  0  0  0  0  0  0  0  0
    0.4200    1.4875    1.5085 H   0  0  0  0  0  0  0  0  0  0  0  0
   -1.3279    1.5960    1.6449 H   0  0  0  0  0  0  0  0  0  0  0  0
   -0.4511    2.7064    0.5711 H   0  0  0  0  0  0  0  0  0  0  0  0
    6.0035   -1.7849    1.1576 H   0  0  0  0  0  0  0  0  0  0  0  0
   -4.6148   -0.5907   -1.8229 H   0  0  0  0  0  0  0  0  0  0  0  0
   -3.8477    1.5986    1.8134 H   0  0  0  0  0  0  0  0  0  0  0  0
   -6.3947   -1.8574   -0.6751 H   0  0  0  0  0  0  0  0  0  0  0  0
   -5.6321    0.3255    2.9468 H   0  0  0  0  0  0  0  0  0  0  0  0
    6.0028    2.7575   -0.0675 H   0  0  0  0  0  0  0  0  0  0  0  0
    4.3445    2.8005   -0.4979 H   0  0  0  0  0  0  0  0  0  0  0  0
   -6.9100   -1.4035    1.7089 H   0  0  0  0  0  0  0  0  0  0  0  0
  1  3  1  0  0  0  0
  1  7  1  0  0  0  0
  1 10  1  0  0  0  0
  2  3  2  0  0  0  0
  2  8  1  0  0  0  0
  4  5  1  0  0  0  0
  4 13  1  0  0  0  0
  4 32  1  0  0  0  0
  5 18  2  0  0  0  0
  6 18  1  0  0  0  0
  6 37  1  0  0  0  0
  6 38  1  0  0  0  0
  7  8  2  0  0  0  0
  7 17  1  0  0  0  0
  8  9  1  0  0  0  0
  9 12  2  0  0  0  0
  9 14  1  0  0  0  0
 10 15  1  0  0  0  0
 10 24  1  0  0  0  0
 10 25  1  0  0  0  0
 11 12  1  0  0  0  0
 11 13  2  0  0  0  0
 11 18  1  0  0  0  0
 12 26  1  0  0  0  0
 13 16  1  0  0  0  0
 14 16  2  0  0  0  0
 14 27  1  0  0  0  0
 15 19  2  0  0  0  0
 15 20  1  0  0  0  0
 16 28  1  0  0  0  0
 17 29  1  0  0  0  0
 17 30  1  0  0  0  0
 17 31  1  0  0  0  0
 19 21  1  0  0  0  0
 19 33  1  0  0  0  0
 20 22  2  0  0  0  0
 20 34  1  0  0  0  0
 21 23  2  0  0  0  0
 21 35  1  0  0  0  0
 22 23  1  0  0  0  0
 22 36  1  0  0  0  0
 23 39  1  0  0  0  0
M  END
> <PUBCHEM_COMPOUND_CID>
49830442

> <PUBCHEM_CONFORMER_RMSD>
0.6

> <PUBCHEM_CONFORMER_DIVERSEORDER>
2
29
23
41
38
43
26
5
36
34
16
30
3
13
31
42
27
39
46
32
25
1
20
14
6
28
24
45
35
8
33
17
22
44
40
7
10
18
15
4
21
19
11
9
37
12

> <PUBCHEM_MMFF94_PARTIAL_CHARGES>
33
1 0.31
10 0.4
12 -0.15
13 -0.15
14 -0.15
15 -0.14
16 -0.15
17 0.18
18 0.37
19 -0.15
2 -0.23
20 -0.15
21 -0.15
22 -0.15
23 -0.15
26 0.15
27 0.15
28 0.15
3 -0.42
32 0.27
33 0.15
34 0.15
35 0.15
36 0.15
37 0.4
38 0.4
39 0.15
4 0.3
5 -0.71
6 -0.88
7 -0.33
8 0.17
9 0.05

> <PUBCHEM_EFFECTIVE_ROTOR_COUNT>
3

> <PUBCHEM_PHARMACOPHORE_FEATURES>
7
1 4 donor
1 6 donor
3 5 6 18 cation
5 1 2 3 7 8 rings
5 4 5 11 13 18 rings
6 15 19 20 21 22 23 rings
6 9 11 12 13 14 16 rings

> <PUBCHEM_HEAVY_ATOM_COUNT>
23

> <PUBCHEM_ATOM_DEF_STEREO_COUNT>
0

> <PUBCHEM_ATOM_UDEF_STEREO_COUNT>
0

> <PUBCHEM_BOND_DEF_STEREO_COUNT>
0

> <PUBCHEM_BOND_UDEF_STEREO_COUNT>
0

> <PUBCHEM_ISOTOPIC_ATOM_COUNT>
0

> <PUBCHEM_COMPONENT_COUNT>
1

> <PUBCHEM_CACTVS_TAUTO_COUNT>
13

> <PUBCHEM_CONFORMER_ID>
02F85A2A00000002

> <PUBCHEM_MMFF94_ENERGY>
47.8391

> <PUBCHEM_FEATURE_SELFOVERLAP>
35.614

> <PUBCHEM_SHAPE_FINGERPRINT>
10 15 17749666394235698056
106641 1 17846215596670379795
10670039 82 15410627938371108016
10803635 8 13118002215102855643
12166972 35 18259707787846074972
12236239 1 18131628972312585216
12516196 113 18113338617996660949
12596602 18 18273501160915468123
12616971 3 18272640243468908460
12633257 1 18131359631088224731
12670543 26 9367351426876219363
12730499 353 18261112963885480282
13544653 18 18040722441992203205
13583140 156 18335409124436374709
13782708 43 17096362839977630634
13862211 1 14056719058408132841
14251764 18 18131634508931624691
14341114 176 18408606954586054220
14341114 328 18202568362982984091
146900 427 18272651276892011704
14787075 74 18410572903014962627
14790565 3 17846779637033966768
14848160 23 17022903454128011675
14849402 71 17987513887343189640
14856354 85 17418093260889264663
15183329 4 10015588298114279171
15188451 53 16443342083081268265
15475509 8 16056337088760572400
15510800 12 16733283304317561299
15685185 35 17906740555164258476
15716309 27 18408604764653932139
15880784 105 18335143059870815939
1601671 61 16702302342983777112
17349148 13 13118004370385257468
17492 89 18195242209591147770
17844677 252 18334858277368646380
18222031 100 14923946739008915286
18785283 64 17823707549561880604
190975 80 18261401108740576299
19377110 9 18413113861649732409
19489759 90 14996279206764230261
19784866 170 16773520984354609909
200 152 11458426816835468095
20281389 69 14764628595007928027
21267235 1 18341051827222125870
21623969 137 18260550021651607538
22079108 93 18261388979531112946
23402539 116 13767925706654365831
23559900 14 12396596142911992126
25147074 1 17773869994841841813
2838139 119 10879994644974840491
3004659 81 11530482233731249640
3009799 131 11963389669516829327
312425 54 17676773050600332121
4325135 7 18333449854417724375
4340502 62 18259705605538133602
5104073 3 18189048694603218016
542803 24 17060617797903036740
59755656 520 16200429165316325887
633830 44 13614222776952116716
6913067 236 15936402342800598438
7495541 125 18409445912017933385
8988823 20 13334740167510053198

> <PUBCHEM_SHAPE_MULTIPOLES>
443.44
15.57
1.71
1.36
2.78
0
-0.05
1.06
5.74
-1.45
0.19
1.7
0.06
-0.36

> <PUBCHEM_SHAPE_SELFOVERLAP>
989.196

> <PUBCHEM_SHAPE_VOLUME>
238.7

> <PUBCHEM_COORDINATE_TYPE>
2
5
10

$$$$
