9934347
  -OEChem-10062122013D

 58 61  0     0  0  0  0  0  0999 V2000
   -5.1845   -2.7190    0.0551 Cl  0  0  0  0  0  0  0  0  0  0  0  0
    6.5666    3.0583   -0.0821 O   0  0  0  0  0  0  0  0  0  0  0  0
    3.2021   -3.4341    0.4683 O   0  0  0  0  0  0  0  0  0  0  0  0
   -4.3100    1.3470   -1.6703 O   0  0  0  0  0  0  0  0  0  0  0  0
    4.5613    1.1127   -0.3856 N   0  0  0  0  0  0  0  0  0  0  0  0
    0.6026   -2.8880   -0.4609 N   0  0  0  0  0  0  0  0  0  0  0  0
   -3.3127   -0.3415    0.1519 N   0  0  0  0  0  0  0  0  0  0  0  0
   -1.3436   -1.6135   -0.1553 N   0  0  0  0  0  0  0  0  0  0  0  0
   -1.4586   -4.0077   -0.4048 N   0  0  0  0  0  0  0  0  0  0  0  0
   -5.1762    3.2876   -0.7428 N   0  0  0  0  0  0  0  0  0  0  0  0
    5.9739    0.7518   -0.5474 C   0  0  0  0  0  0  0  0  0  0  0  0
    4.3116    2.3179    0.4172 C   0  0  0  0  0  0  0  0  0  0  0  0
    6.7708    1.9748   -0.9883 C   0  0  0  0  0  0  0  0  0  0  0  0
    5.1960    3.4571   -0.0767 C   0  0  0  0  0  0  0  0  0  0  0  0
    3.5804    0.1159   -0.4032 C   0  0  0  0  0  0  0  0  0  0  0  0
    3.8642   -1.1902    0.0440 C   0  0  0  0  0  0  0  0  0  0  0  0
    2.2780    0.3874   -0.8684 C   0  0  0  0  0  0  0  0  0  0  0  0
    2.8856   -2.1841    0.0267 C   0  0  0  0  0  0  0  0  0  0  0  0
    1.6031   -1.8921   -0.4381 C   0  0  0  0  0  0  0  0  0  0  0  0
    1.2995   -0.6064   -0.8858 C   0  0  0  0  0  0  0  0  0  0  0  0
   -0.7979   -2.8340   -0.3344 C   0  0  0  0  0  0  0  0  0  0  0  0
    3.0006   -3.7014    1.8543 C   0  0  0  0  0  0  0  0  0  0  0  0
   -2.8847    0.8467    0.7660 C   0  0  0  0  0  0  0  0  0  0  0  0
   -2.6876   -1.5984   -0.0381 C   0  0  0  0  0  0  0  0  0  0  0  0
   -3.3493    2.0940    0.3341 C   0  0  0  0  0  0  0  0  0  0  0  0
   -3.4749   -2.7304   -0.0931 C   0  0  0  0  0  0  0  0  0  0  0  0
   -1.9775    0.7825    1.8293 C   0  0  0  0  0  0  0  0  0  0  0  0
   -2.7991   -3.9190   -0.2800 C   0  0  0  0  0  0  0  0  0  0  0  0
   -2.9120    3.2624    0.9582 C   0  0  0  0  0  0  0  0  0  0  0  0
   -1.5405    1.9508    2.4534 C   0  0  0  0  0  0  0  0  0  0  0  0
   -4.2945    2.2027   -0.7700 C   0  0  0  0  0  0  0  0  0  0  0  0
   -2.0076    3.1907    2.0179 C   0  0  0  0  0  0  0  0  0  0  0  0
   -6.1852    3.5195   -1.7512 C   0  0  0  0  0  0  0  0  0  0  0  0
    6.3652    0.3906    0.4117 H   0  0  0  0  0  0  0  0  0  0  0  0
    6.0990   -0.0382   -1.2972 H   0  0  0  0  0  0  0  0  0  0  0  0
    3.2649    2.6370    0.3680 H   0  0  0  0  0  0  0  0  0  0  0  0
    4.5457    2.0928    1.4651 H   0  0  0  0  0  0  0  0  0  0  0  0
    7.8401    1.7403   -0.9975 H   0  0  0  0  0  0  0  0  0  0  0  0
    6.4914    2.2896   -2.0010 H   0  0  0  0  0  0  0  0  0  0  0  0
    4.9061    3.7804   -1.0838 H   0  0  0  0  0  0  0  0  0  0  0  0
    5.0996    4.3203    0.5895 H   0  0  0  0  0  0  0  0  0  0  0  0
    4.8519   -1.4441    0.4226 H   0  0  0  0  0  0  0  0  0  0  0  0
    2.0250    1.3773   -1.2419 H   0  0  0  0  0  0  0  0  0  0  0  0
    0.3318   -0.3450   -1.3007 H   0  0  0  0  0  0  0  0  0  0  0  0
    0.9614   -3.8381   -0.4537 H   0  0  0  0  0  0  0  0  0  0  0  0
    1.9498   -3.5630    2.1280 H   0  0  0  0  0  0  0  0  0  0  0  0
    3.2770   -4.7417    2.0462 H   0  0  0  0  0  0  0  0  0  0  0  0
    3.6359   -3.0524    2.4654 H   0  0  0  0  0  0  0  0  0  0  0  0
   -4.1945   -0.2665   -0.3465 H   0  0  0  0  0  0  0  0  0  0  0  0
   -1.6069   -0.1705    2.1982 H   0  0  0  0  0  0  0  0  0  0  0  0
   -3.2246    4.2498    0.6308 H   0  0  0  0  0  0  0  0  0  0  0  0
   -3.3214   -4.8690   -0.3381 H   0  0  0  0  0  0  0  0  0  0  0  0
   -0.8371    1.8953    3.2791 H   0  0  0  0  0  0  0  0  0  0  0  0
   -1.6615    4.1006    2.4997 H   0  0  0  0  0  0  0  0  0  0  0  0
   -5.1893    3.9116    0.0571 H   0  0  0  0  0  0  0  0  0  0  0  0
   -5.8584    3.1272   -2.7174 H   0  0  0  0  0  0  0  0  0  0  0  0
   -7.1028    3.0134   -1.4413 H   0  0  0  0  0  0  0  0  0  0  0  0
   -6.3631    4.5948   -1.8233 H   0  0  0  0  0  0  0  0  0  0  0  0
  1 26  1  0  0  0  0
  2 13  1  0  0  0  0
  2 14  1  0  0  0  0
  3 18  1  0  0  0  0
  3 22  1  0  0  0  0
  4 31  2  0  0  0  0
  5 11  1  0  0  0  0
  5 12  1  0  0  0  0
  5 15  1  0  0  0  0
  6 19  1  0  0  0  0
  6 21  1  0  0  0  0
  6 45  1  0  0  0  0
  7 23  1  0  0  0  0
  7 24  1  0  0  0  0
  7 49  1  0  0  0  0
  8 21  1  0  0  0  0
  8 24  2  0  0  0  0
  9 21  2  0  0  0  0
  9 28  1  0  0  0  0
 10 31  1  0  0  0  0
 10 33  1  0  0  0  0
 10 55  1  0  0  0  0
 11 13  1  0  0  0  0
 11 34  1  0  0  0  0
 11 35  1  0  0  0  0
 12 14  1  0  0  0  0
 12 36  1  0  0  0  0
 12 37  1  0  0  0  0
 13 38  1  0  0  0  0
 13 39  1  0  0  0  0
 14 40  1  0  0  0  0
 14 41  1  0  0  0  0
 15 16  2  0  0  0  0
 15 17  1  0  0  0  0
 16 18  1  0  0  0  0
 16 42  1  0  0  0  0
 17 20  2  0  0  0  0
 17 43  1  0  0  0  0
 18 19  2  0  0  0  0
 19 20  1  0  0  0  0
 20 44  1  0  0  0  0
 22 46  1  0  0  0  0
 22 47  1  0  0  0  0
 22 48  1  0  0  0  0
 23 25  1  0  0  0  0
 23 27  2  0  0  0  0
 24 26  1  0  0  0  0
 25 29  2  0  0  0  0
 25 31  1  0  0  0  0
 26 28  2  0  0  0  0
 27 30  1  0  0  0  0
 27 50  1  0  0  0  0
 28 52  1  0  0  0  0
 29 32  1  0  0  0  0
 29 51  1  0  0  0  0
 30 32  2  0  0  0  0
 30 53  1  0  0  0  0
 32 54  1  0  0  0  0
 33 56  1  0  0  0  0
 33 57  1  0  0  0  0
 33 58  1  0  0  0  0
M  END
> <PUBCHEM_COMPOUND_CID>
9934347

> <PUBCHEM_CONFORMER_RMSD>
1

> <PUBCHEM_CONFORMER_DIVERSEORDER>
1
17
93
82
110
112
33
118
102
10
71
42
119
50
84
116
86
61
41
97
89
121
108
113
80
98
87
55
123
117
90
105
37
51
111
81
70
99
44
120
76
74
20
48
27
67
122
107
54
57
21
60
109
32
101
47
85
31
22
66
73
96
115
95
26
30
104
34
100
53
58
14
88
29
103
43
83
69
24
64
15
7
56
106
25
68
52
75
5
62
23
77
12
35
59
40
78
11
49
19
63
92
45
18
36
6
79
38
39
114
46
72
91
13
16
65
4
8
28
94
2
9
3

> <PUBCHEM_MMFF94_PARTIAL_CHARGES>
44
1 -0.18
10 -0.73
11 0.37
12 0.37
13 0.28
14 0.28
15 0.1
16 -0.15
17 -0.15
18 0.08
19 0.1
2 -0.56
20 -0.15
21 0.72
22 0.28
23 0.1
24 0.41
25 0.09
26 0.18
27 -0.15
28 0.16
29 -0.15
3 -0.36
30 -0.15
31 0.54
32 -0.15
33 0.3
4 -0.57
42 0.15
43 0.15
44 0.15
45 0.4
49 0.4
5 -0.84
50 0.15
51 0.15
52 0.15
53 0.15
54 0.15
55 0.37
6 -0.6
7 -0.6
8 -0.62
9 -0.62

> <PUBCHEM_EFFECTIVE_ROTOR_COUNT>
9.2

> <PUBCHEM_PHARMACOPHORE_FEATURES>
12
1 10 donor
1 2 acceptor
1 3 acceptor
1 4 acceptor
1 5 cation
1 6 donor
1 7 donor
4 6 8 9 21 cation
6 15 16 17 18 19 20 rings
6 2 5 11 12 13 14 rings
6 23 25 27 29 30 32 rings
6 8 9 21 24 26 28 rings

> <PUBCHEM_HEAVY_ATOM_COUNT>
33

> <PUBCHEM_ATOM_DEF_STEREO_COUNT>
0

> <PUBCHEM_ATOM_UDEF_STEREO_COUNT>
0

> <PUBCHEM_BOND_DEF_STEREO_COUNT>
0

> <PUBCHEM_BOND_UDEF_STEREO_COUNT>
0

> <PUBCHEM_ISOTOPIC_ATOM_COUNT>
0

> <PUBCHEM_COMPONENT_COUNT>
1

> <PUBCHEM_CACTVS_TAUTO_COUNT>
22

> <PUBCHEM_CONFORMER_ID>
0097960B00000001

> <PUBCHEM_MMFF94_ENERGY>
138.3446

> <PUBCHEM_FEATURE_SELFOVERLAP>
60.897

> <PUBCHEM_SHAPE_FINGERPRINT>
10032420 55 18196365038400669434
100830 39 18270124638527941532
10290309 65 18342462542820784455
10670039 82 18199475527348112984
11135609 187 18339921494836038289
12107183 9 18264200306547544754
12788726 201 18341612642039517091
13560911 43 18118398686176586344
13583140 156 17751378187215327779
14394314 77 18270131226980932667
14790565 3 18190747634254224764
15347590 135 17971199367727006250
16992787 43 18343022173792951929
17809404 112 17749969764133082312
19304152 47 17968674820494063192
19319366 153 17838037227841960255
19611394 137 17614854336386952339
20715895 44 18049152264535214367
21033648 29 16516831151254554337
21049683 271 18052820536227049419
22393880 68 18342466949925818908
22956985 138 16608857383828692179
23559900 14 17987520308408863158
469060 322 18116448118289010169
48014 12 18191037887754367724
550186 7 17843141426604571422
57527585 21 16988573364162044073
6036956 94 18119253002474702661
6371009 1 17980467975996973681
6677587 24 17030175474296103493

> <PUBCHEM_SHAPE_MULTIPOLES>
633.5
14.66
6.47
1.52
12.87
1.76
-0.7
-13.86
4.93
-3.48
-0.44
-1.26
-1.11
-0.48

> <PUBCHEM_SHAPE_SELFOVERLAP>
1351.237

> <PUBCHEM_SHAPE_VOLUME>
350.2

> <PUBCHEM_COORDINATE_TYPE>
2
5
10

$$$$
