49830692
  -OEChem-10052120443D

 35 37  0     0  0  0  0  0  0999 V2000
   -2.5666    2.4020    0.0001 F   0  0  0  0  0  0  0  0  0  0  0  0
   -6.7894   -1.0557   -0.0009 F   0  0  0  0  0  0  0  0  0  0  0  0
    6.8216   -1.0117    0.0018 F   0  0  0  0  0  0  0  0  0  0  0  0
    5.2054   -1.9827    1.0849 F   0  0  0  0  0  0  0  0  0  0  0  0
    5.2074   -1.9830   -1.0839 F   0  0  0  0  0  0  0  0  0  0  0  0
    0.8270   -1.1627   -0.0008 O   0  0  0  0  0  0  0  0  0  0  0  0
   -0.9134    0.4043   -0.0004 N   0  0  0  0  0  0  0  0  0  0  0  0
   -4.2645   -2.0962    0.0000 N   0  0  0  0  0  0  0  0  0  0  0  0
    1.2741    1.1327   -0.0007 N   0  0  0  0  0  0  0  0  0  0  0  0
    3.3668    0.0037   -0.0009 N   0  0  0  0  0  0  0  0  0  0  0  0
   -3.3557    0.1359    0.0002 C   0  0  0  0  0  0  0  0  0  0  0  0
   -2.0601   -0.3982   -0.0003 C   0  0  0  0  0  0  0  0  0  0  0  0
   -4.4441   -0.7618    0.0002 C   0  0  0  0  0  0  0  0  0  0  0  0
   -3.5800    1.5231    0.0005 C   0  0  0  0  0  0  0  0  0  0  0  0
   -1.8719   -1.7729   -0.0004 C   0  0  0  0  0  0  0  0  0  0  0  0
   -5.7311   -0.2308    0.0004 C   0  0  0  0  0  0  0  0  0  0  0  0
   -4.8776    2.0266    0.0010 C   0  0  0  0  0  0  0  0  0  0  0  0
   -5.9542    1.1483    0.0010 C   0  0  0  0  0  0  0  0  0  0  0  0
   -2.9978   -2.5711   -0.0002 C   0  0  0  0  0  0  0  0  0  0  0  0
    0.4417    0.0020   -0.0007 C   0  0  0  0  0  0  0  0  0  0  0  0
    2.6884    1.1729   -0.0008 C   0  0  0  0  0  0  0  0  0  0  0  0
    4.7158    0.0921   -0.0005 C   0  0  0  0  0  0  0  0  0  0  0  0
    3.2922    2.4201   -0.0003 C   0  0  0  0  0  0  0  0  0  0  0  0
    5.4146    1.2886   -0.0002 C   0  0  0  0  0  0  0  0  0  0  0  0
    4.6816    2.4703    0.0000 C   0  0  0  0  0  0  0  0  0  0  0  0
    5.4696   -1.1959    0.0007 C   0  0  0  0  0  0  0  0  0  0  0  0
   -0.9325   -2.2988   -0.0007 H   0  0  0  0  0  0  0  0  0  0  0  0
   -1.0691    1.4077   -0.0003 H   0  0  0  0  0  0  0  0  0  0  0  0
   -5.0472    3.0989    0.0012 H   0  0  0  0  0  0  0  0  0  0  0  0
   -6.9701    1.5323    0.0010 H   0  0  0  0  0  0  0  0  0  0  0  0
   -2.9143   -3.6531   -0.0002 H   0  0  0  0  0  0  0  0  0  0  0  0
    0.8102    2.0377   -0.0005 H   0  0  0  0  0  0  0  0  0  0  0  0
    2.7155    3.3393    0.0000 H   0  0  0  0  0  0  0  0  0  0  0  0
    6.4983    1.3271    0.0002 H   0  0  0  0  0  0  0  0  0  0  0  0
    5.1924    3.4285    0.0004 H   0  0  0  0  0  0  0  0  0  0  0  0
  1 14  1  0  0  0  0
  2 16  1  0  0  0  0
  3 26  1  0  0  0  0
  4 26  1  0  0  0  0
  5 26  1  0  0  0  0
  6 20  2  0  0  0  0
  7 12  1  0  0  0  0
  7 20  1  0  0  0  0
  7 28  1  0  0  0  0
  8 13  1  0  0  0  0
  8 19  2  0  0  0  0
  9 20  1  0  0  0  0
  9 21  1  0  0  0  0
  9 32  1  0  0  0  0
 10 21  1  0  0  0  0
 10 22  2  0  0  0  0
 11 12  1  0  0  0  0
 11 13  1  0  0  0  0
 11 14  2  0  0  0  0
 12 15  2  0  0  0  0
 13 16  2  0  0  0  0
 14 17  1  0  0  0  0
 15 19  1  0  0  0  0
 15 27  1  0  0  0  0
 16 18  1  0  0  0  0
 17 18  2  0  0  0  0
 17 29  1  0  0  0  0
 18 30  1  0  0  0  0
 19 31  1  0  0  0  0
 21 23  2  0  0  0  0
 22 24  1  0  0  0  0
 22 26  1  0  0  0  0
 23 25  1  0  0  0  0
 23 33  1  0  0  0  0
 24 25  2  0  0  0  0
 24 34  1  0  0  0  0
 25 35  1  0  0  0  0
M  END
> <PUBCHEM_COMPOUND_CID>
49830692

> <PUBCHEM_CONFORMER_RMSD>
0.8

> <PUBCHEM_CONFORMER_DIVERSEORDER>
1
17
9
10
18
5
20
6
19
4
13
8
14
7
11
16
15
12
21
2
22
3

> <PUBCHEM_MMFF94_PARTIAL_CHARGES>
34
1 -0.19
10 -0.62
12 0.12
13 0.31
14 0.19
15 -0.15
16 0.19
17 -0.15
18 -0.15
19 0.16
2 -0.19
20 0.69
21 0.43
22 0.17
23 -0.15
24 -0.15
25 -0.15
26 1.16
27 0.15
28 0.37
29 0.15
3 -0.34
30 0.15
31 0.15
32 0.37
33 0.15
34 0.15
35 0.15
4 -0.34
5 -0.34
6 -0.57
7 -0.55
8 -0.62
9 -0.55

> <PUBCHEM_EFFECTIVE_ROTOR_COUNT>
5

> <PUBCHEM_PHARMACOPHORE_FEATURES>
8
1 10 acceptor
1 6 acceptor
1 7 donor
1 8 acceptor
1 9 donor
6 10 21 22 23 24 25 rings
6 11 13 14 16 17 18 rings
6 8 11 12 13 15 19 rings

> <PUBCHEM_HEAVY_ATOM_COUNT>
26

> <PUBCHEM_ATOM_DEF_STEREO_COUNT>
0

> <PUBCHEM_ATOM_UDEF_STEREO_COUNT>
0

> <PUBCHEM_BOND_DEF_STEREO_COUNT>
0

> <PUBCHEM_BOND_UDEF_STEREO_COUNT>
0

> <PUBCHEM_ISOTOPIC_ATOM_COUNT>
0

> <PUBCHEM_COMPONENT_COUNT>
1

> <PUBCHEM_CACTVS_TAUTO_COUNT>
11

> <PUBCHEM_CONFORMER_ID>
02F85B2400000001

> <PUBCHEM_MMFF94_ENERGY>
69.4457

> <PUBCHEM_FEATURE_SELFOVERLAP>
40.681

> <PUBCHEM_SHAPE_FINGERPRINT>
10411042 1 17834394898070207743
10595046 47 18265895937501395948
10835480 77 18342733061531023832
11405975 8 18410292523386787680
11524674 6 17060338539609882959
12107183 9 18121215381532132168
12166972 35 18408326600633594973
12236239 1 18114180847987521073
13073987 5 18410292553372521872
13167823 11 18410008875225339738
13533116 47 18341612642123191928
13785724 45 18053105017586188206
14251764 18 18335137596909720288
14341114 176 18408889559181705949
14420673 8 18336830784286526738
14933364 13 18410014351108286004
15042514 8 18192435384666566835
15183329 4 18410013217247248594
15196674 1 18410856589783935268
15250474 111 18340192103044258694
15419008 42 17912641311176696556
17844677 252 18410580591112138104
17857418 61 18411417315244886706
1813 80 16877941654946955412
19611394 137 17970080027310604707
19958102 18 18261384555609563335
20281389 69 18408040723721048625
21065198 57 18339079418550617552
21236236 1 18413388761516582029
21267235 1 18335707161165466603
21279426 13 18411418371437719580
21315764 268 18409162246766514805
21859007 373 17896309217414356069
23402539 116 18342171194225255165
23536379 177 18411136943700289905
23559900 14 18342170072626841664
23569943 247 17314779707600394474
3004659 81 18408605855897294176
335352 9 18410573972720464181
350125 39 18408885109605941901
3545911 37 18410856589894809037
404807 14 17407696012059302870
4073 2 18042127720900100354
4197921 191 18335706073848215781
4214541 1 18410573993741645573
5104073 3 18411983584886210288
559249 180 18410571756232534947
59755656 215 18409730616788932310
59755656 520 17240201041322634635
633830 44 17676767677601233360
9965369 4 18410291380867451673
9995097 60 18342176656980608790
9996256 80 18412544332001449351

> <PUBCHEM_SHAPE_MULTIPOLES>
472.91
17.9
2.75
0.64
6.42
0.07
0
-1.32
0
0.57
0
0.31
-0.12
0

> <PUBCHEM_SHAPE_SELFOVERLAP>
1046.832

> <PUBCHEM_SHAPE_VOLUME>
251.3

> <PUBCHEM_COORDINATE_TYPE>
2
5
10

$$$$
