9927800
  -OEChem-10052115143D

 43 45  0     0  0  0  0  0  0999 V2000
    4.2792   -1.8015   -0.1547 O   0  0  0  0  0  0  0  0  0  0  0  0
    1.7157   -2.2373   -1.1091 O   0  0  0  0  0  0  0  0  0  0  0  0
    4.9616    0.6863    0.8553 O   0  0  0  0  0  0  0  0  0  0  0  0
    0.5201    2.2989   -0.0463 N   0  0  0  0  0  0  0  0  0  0  0  0
   -1.4385    1.0122    0.0726 N   0  0  0  0  0  0  0  0  0  0  0  0
   -1.5443    3.4084   -0.1602 N   0  0  0  0  0  0  0  0  0  0  0  0
   -3.2305   -2.5808    1.0444 N   0  0  0  0  0  0  0  0  0  0  0  0
    1.4730    1.2595   -0.0734 C   0  0  0  0  0  0  0  0  0  0  0  0
    3.3579   -0.7964   -0.1276 C   0  0  0  0  0  0  0  0  0  0  0  0
    2.0680   -1.0197   -0.6093 C   0  0  0  0  0  0  0  0  0  0  0  0
    3.7054    0.4551    0.3814 C   0  0  0  0  0  0  0  0  0  0  0  0
    1.1256    0.0082   -0.5823 C   0  0  0  0  0  0  0  0  0  0  0  0
    2.7628    1.4830    0.4084 C   0  0  0  0  0  0  0  0  0  0  0  0
   -0.8473    2.2387   -0.0447 C   0  0  0  0  0  0  0  0  0  0  0  0
   -2.7875    0.9897    0.0706 C   0  0  0  0  0  0  0  0  0  0  0  0
   -3.3786   -0.3211    0.1960 C   0  0  0  0  0  0  0  0  0  0  0  0
   -3.5731    2.1186   -0.0413 C   0  0  0  0  0  0  0  0  0  0  0  0
   -2.8901    3.3123   -0.1550 C   0  0  0  0  0  0  0  0  0  0  0  0
   -4.6119   -0.6104   -0.3781 C   0  0  0  0  0  0  0  0  0  0  0  0
   -2.7344   -1.3326    0.8908 C   0  0  0  0  0  0  0  0  0  0  0  0
    4.3473   -2.6473    0.9909 C   0  0  0  0  0  0  0  0  0  0  0  0
    0.3776   -2.3815   -1.5809 C   0  0  0  0  0  0  0  0  0  0  0  0
    5.9282    1.1649   -0.0778 C   0  0  0  0  0  0  0  0  0  0  0  0
   -5.1550   -1.8831   -0.2420 C   0  0  0  0  0  0  0  0  0  0  0  0
   -4.4311   -2.8241    0.4723 C   0  0  0  0  0  0  0  0  0  0  0  0
    0.1538   -0.1245   -1.0325 H   0  0  0  0  0  0  0  0  0  0  0  0
    3.0386    2.4563    0.8077 H   0  0  0  0  0  0  0  0  0  0  0  0
    0.9075    3.2336    0.0215 H   0  0  0  0  0  0  0  0  0  0  0  0
   -4.6554    2.1142   -0.0228 H   0  0  0  0  0  0  0  0  0  0  0  0
   -3.4219    4.2537   -0.2426 H   0  0  0  0  0  0  0  0  0  0  0  0
   -5.1694    0.1203   -0.9577 H   0  0  0  0  0  0  0  0  0  0  0  0
   -1.7736   -1.1834    1.3752 H   0  0  0  0  0  0  0  0  0  0  0  0
    5.1244   -3.3967    0.8175 H   0  0  0  0  0  0  0  0  0  0  0  0
    4.6123   -2.0690    1.8817 H   0  0  0  0  0  0  0  0  0  0  0  0
    3.3941   -3.1621    1.1474 H   0  0  0  0  0  0  0  0  0  0  0  0
    0.1824   -1.7411   -2.4478 H   0  0  0  0  0  0  0  0  0  0  0  0
   -0.3525   -2.2392   -0.7781 H   0  0  0  0  0  0  0  0  0  0  0  0
    0.2689   -3.4158   -1.9239 H   0  0  0  0  0  0  0  0  0  0  0  0
    6.8782    1.2924    0.4483 H   0  0  0  0  0  0  0  0  0  0  0  0
    6.0714    0.4439   -0.8887 H   0  0  0  0  0  0  0  0  0  0  0  0
    5.6209    2.1332   -0.4854 H   0  0  0  0  0  0  0  0  0  0  0  0
   -6.1121   -2.1328   -0.6855 H   0  0  0  0  0  0  0  0  0  0  0  0
   -4.8102   -3.8319    0.6059 H   0  0  0  0  0  0  0  0  0  0  0  0
  1  9  1  0  0  0  0
  1 21  1  0  0  0  0
  2 10  1  0  0  0  0
  2 22  1  0  0  0  0
  3 11  1  0  0  0  0
  3 23  1  0  0  0  0
  4  8  1  0  0  0  0
  4 14  1  0  0  0  0
  4 28  1  0  0  0  0
  5 14  1  0  0  0  0
  5 15  2  0  0  0  0
  6 14  2  0  0  0  0
  6 18  1  0  0  0  0
  7 20  1  0  0  0  0
  7 25  2  0  0  0  0
  8 12  2  0  0  0  0
  8 13  1  0  0  0  0
  9 10  2  0  0  0  0
  9 11  1  0  0  0  0
 10 12  1  0  0  0  0
 11 13  2  0  0  0  0
 12 26  1  0  0  0  0
 13 27  1  0  0  0  0
 15 16  1  0  0  0  0
 15 17  1  0  0  0  0
 16 19  1  0  0  0  0
 16 20  2  0  0  0  0
 17 18  2  0  0  0  0
 17 29  1  0  0  0  0
 18 30  1  0  0  0  0
 19 24  2  0  0  0  0
 19 31  1  0  0  0  0
 20 32  1  0  0  0  0
 21 33  1  0  0  0  0
 21 34  1  0  0  0  0
 21 35  1  0  0  0  0
 22 36  1  0  0  0  0
 22 37  1  0  0  0  0
 22 38  1  0  0  0  0
 23 39  1  0  0  0  0
 23 40  1  0  0  0  0
 23 41  1  0  0  0  0
 24 25  1  0  0  0  0
 24 42  1  0  0  0  0
 25 43  1  0  0  0  0
M  END
> <PUBCHEM_COMPOUND_CID>
9927800

> <PUBCHEM_CONFORMER_RMSD>
0.8

> <PUBCHEM_CONFORMER_DIVERSEORDER>
11
13
66
40
3
72
52
26
64
73
79
46
44
62
12
50
43
21
16
76
22
63
31
48
6
34
60
45
42
59
51
29
36
7
55
58
47
1
78
39
2
30
14
41
81
65
37
71
24
27
80
53
17
10
28
77
4
69
32
70
9
19
54
68
25
74
20
23
35
38
5
61
56
75
8
49
57
18
33
15
67

> <PUBCHEM_MMFF94_PARTIAL_CHARGES>
33
1 -0.36
10 0.08
11 0.08
12 -0.15
13 -0.15
14 0.72
15 0.31
17 -0.15
18 0.16
19 -0.15
2 -0.36
20 0.16
21 0.28
22 0.28
23 0.28
24 -0.15
25 0.16
26 0.15
27 0.15
28 0.4
29 0.15
3 -0.36
30 0.15
31 0.15
32 0.15
4 -0.6
42 0.15
43 0.15
5 -0.62
6 -0.62
7 -0.62
8 0.1
9 0.08

> <PUBCHEM_EFFECTIVE_ROTOR_COUNT>
6

> <PUBCHEM_PHARMACOPHORE_FEATURES>
10
1 1 acceptor
1 2 acceptor
1 3 acceptor
1 4 donor
1 5 acceptor
1 7 acceptor
4 4 5 6 14 cation
6 5 6 14 15 17 18 rings
6 7 16 19 20 24 25 rings
6 8 9 10 11 12 13 rings

> <PUBCHEM_HEAVY_ATOM_COUNT>
25

> <PUBCHEM_ATOM_DEF_STEREO_COUNT>
0

> <PUBCHEM_ATOM_UDEF_STEREO_COUNT>
0

> <PUBCHEM_BOND_DEF_STEREO_COUNT>
0

> <PUBCHEM_BOND_UDEF_STEREO_COUNT>
0

> <PUBCHEM_ISOTOPIC_ATOM_COUNT>
0

> <PUBCHEM_COMPONENT_COUNT>
1

> <PUBCHEM_CACTVS_TAUTO_COUNT>
3

> <PUBCHEM_CONFORMER_ID>
00977C780000000B

> <PUBCHEM_MMFF94_ENERGY>
115.6555

> <PUBCHEM_FEATURE_SELFOVERLAP>
50.757

> <PUBCHEM_SHAPE_FINGERPRINT>
10 15 18198048370114616688
10616163 171 18411703179367080517
11828532 37 16811242179183988971
12363563 72 18262810686768083827
12553582 1 18193301756499032567
12633257 1 18196376909500449105
13140716 1 18270117894732798680
13402501 40 18412826910716248239
13631057 29 18410857698186392616
138480 1 15743316724238480241
13911882 115 18130797767307653974
14117953 113 18271530918041841263
1454969 45 18267584804852992916
14790565 3 16968017220633608413
14840074 17 17987801946445988911
14866123 147 18338519626273755129
15196674 1 18411980222148375780
15250474 111 18188202088225539874
15352361 1 18337391642711603163
15685185 35 16885275613071212628
17492 89 18409728426682879706
17980427 23 17968106334428427348
19141452 34 18339931424747295929
20261772 1 18059573650022512230
20403669 9 18411142450344384743
20642791 13 18412266112873894621
21033648 29 17703215291382628320
21796203 349 17833021564194785153
221490 88 18271249301146196734
22393880 68 18268157474380422934
23558518 356 18262246525312436857
23559900 14 18339918221421774392
3004659 81 17895468262601286569
463206 1 18050287265467896239
474229 33 18342175609245809516
5104073 3 18271240522011543656
5309563 4 18195250142622317515
9709674 26 18270121184656304397

> <PUBCHEM_SHAPE_MULTIPOLES>
476.96
11.58
4.03
0.94
4.76
0.72
-0.1
-4.34
1.79
-2.8
0.01
0.19
-0.61
0.59

> <PUBCHEM_SHAPE_SELFOVERLAP>
1032.647

> <PUBCHEM_SHAPE_VOLUME>
259.3

> <PUBCHEM_COORDINATE_TYPE>
2
5
10

$$$$
