11537943
  -OEChem-10052115183D

 41 44  0     0  0  0  0  0  0999 V2000
    7.5454   -0.8386   -0.9317 F   0  0  0  0  0  0  0  0  0  0  0  0
    5.9641   -2.1336   -1.6572 F   0  0  0  0  0  0  0  0  0  0  0  0
    6.0541   -0.0613   -2.3103 F   0  0  0  0  0  0  0  0  0  0  0  0
   -4.4366   -1.8541    1.3643 N   0  0  0  0  0  0  0  0  0  0  0  0
    1.2007    1.2486    0.2319 N   0  0  0  0  0  0  0  0  0  0  0  0
   -6.5250   -1.8892    0.1639 N   0  0  0  0  0  0  0  0  0  0  0  0
   -2.8313    2.0502   -0.3045 N   0  0  0  0  0  0  0  0  0  0  0  0
   -0.5298    2.7587   -0.3964 N   0  0  0  0  0  0  0  0  0  0  0  0
   -3.4307   -0.1197    0.3994 C   0  0  0  0  0  0  0  0  0  0  0  0
   -4.7058   -0.2863   -0.2031 C   0  0  0  0  0  0  0  0  0  0  0  0
   -5.3071   -1.3755    0.4208 C   0  0  0  0  0  0  0  0  0  0  0  0
   -2.4050    0.8476    0.1344 C   0  0  0  0  0  0  0  0  0  0  0  0
    1.6686   -0.0175    0.6944 C   0  0  0  0  0  0  0  0  0  0  0  0
    3.1616   -0.0418    0.8510 C   0  0  0  0  0  0  0  0  0  0  0  0
   -3.2931   -1.0982    1.3603 C   0  0  0  0  0  0  0  0  0  0  0  0
   -0.1741    1.5346    0.0454 C   0  0  0  0  0  0  0  0  0  0  0  0
   -1.0764    0.5300    0.3300 C   0  0  0  0  0  0  0  0  0  0  0  0
   -5.4334    0.3620   -1.2143 C   0  0  0  0  0  0  0  0  0  0  0  0
    3.9591   -0.4282   -0.2197 C   0  0  0  0  0  0  0  0  0  0  0  0
    5.3461   -0.4506   -0.0740 C   0  0  0  0  0  0  0  0  0  0  0  0
    3.7311    0.3226    2.0653 C   0  0  0  0  0  0  0  0  0  0  0  0
    5.9256   -0.0862    1.1413 C   0  0  0  0  0  0  0  0  0  0  0  0
   -6.7011   -0.1291   -1.5207 C   0  0  0  0  0  0  0  0  0  0  0  0
    5.1181    0.3003    2.2111 C   0  0  0  0  0  0  0  0  0  0  0  0
   -7.1800   -1.2264   -0.8178 C   0  0  0  0  0  0  0  0  0  0  0  0
    6.2097   -0.8639   -1.2172 C   0  0  0  0  0  0  0  0  0  0  0  0
   -1.8549    2.9456   -0.5466 C   0  0  0  0  0  0  0  0  0  0  0  0
    1.3807   -0.8176   -0.0005 H   0  0  0  0  0  0  0  0  0  0  0  0
    1.2230   -0.2696    1.6661 H   0  0  0  0  0  0  0  0  0  0  0  0
   -2.4982   -1.3331    2.0554 H   0  0  0  0  0  0  0  0  0  0  0  0
   -4.6127   -2.6421    1.9718 H   0  0  0  0  0  0  0  0  0  0  0  0
   -0.7827   -0.4555    0.6654 H   0  0  0  0  0  0  0  0  0  0  0  0
    1.8495    1.9968    0.0154 H   0  0  0  0  0  0  0  0  0  0  0  0
   -5.0347    1.2159   -1.7519 H   0  0  0  0  0  0  0  0  0  0  0  0
    3.5092   -0.7105   -1.1684 H   0  0  0  0  0  0  0  0  0  0  0  0
    3.1122    0.6276    2.9046 H   0  0  0  0  0  0  0  0  0  0  0  0
    7.0038   -0.0970    1.2743 H   0  0  0  0  0  0  0  0  0  0  0  0
   -7.3011    0.3373   -2.2948 H   0  0  0  0  0  0  0  0  0  0  0  0
    5.5693    0.5845    3.1573 H   0  0  0  0  0  0  0  0  0  0  0  0
   -8.1664   -1.6227   -1.0441 H   0  0  0  0  0  0  0  0  0  0  0  0
   -2.1691    3.9198   -0.9005 H   0  0  0  0  0  0  0  0  0  0  0  0
  1 26  1  0  0  0  0
  2 26  1  0  0  0  0
  3 26  1  0  0  0  0
  4 11  1  0  0  0  0
  4 15  1  0  0  0  0
  4 31  1  0  0  0  0
  5 13  1  0  0  0  0
  5 16  1  0  0  0  0
  5 33  1  0  0  0  0
  6 11  1  0  0  0  0
  6 25  2  0  0  0  0
  7 12  1  0  0  0  0
  7 27  2  0  0  0  0
  8 16  2  0  0  0  0
  8 27  1  0  0  0  0
  9 10  1  0  0  0  0
  9 12  1  0  0  0  0
  9 15  2  0  0  0  0
 10 11  2  0  0  0  0
 10 18  1  0  0  0  0
 12 17  2  0  0  0  0
 13 14  1  0  0  0  0
 13 28  1  0  0  0  0
 13 29  1  0  0  0  0
 14 19  2  0  0  0  0
 14 21  1  0  0  0  0
 15 30  1  0  0  0  0
 16 17  1  0  0  0  0
 17 32  1  0  0  0  0
 18 23  2  0  0  0  0
 18 34  1  0  0  0  0
 19 20  1  0  0  0  0
 19 35  1  0  0  0  0
 20 22  2  0  0  0  0
 20 26  1  0  0  0  0
 21 24  2  0  0  0  0
 21 36  1  0  0  0  0
 22 24  1  0  0  0  0
 22 37  1  0  0  0  0
 23 25  1  0  0  0  0
 23 38  1  0  0  0  0
 24 39  1  0  0  0  0
 25 40  1  0  0  0  0
 27 41  1  0  0  0  0
M  END
> <PUBCHEM_COMPOUND_CID>
11537943

> <PUBCHEM_CONFORMER_RMSD>
0.8

> <PUBCHEM_CONFORMER_DIVERSEORDER>
3
208
69
185
63
33
201
83
141
198
49
119
65
113
114
23
203
85
202
82
4
101
150
170
132
184
139
115
67
10
86
39
195
187
66
25
125
87
8
209
171
205
183
135
204
71
13
145
18
42
118
206
140
176
50
24
70
131
200
123
7
62
182
180
76
178
197
159
80
60
26
100
173
43
14
207
130
75
144
199
134
54
68
15
52
189
179
56
95
165
9
120
146
193
22
210
104
51
155
109
11
57
12
38
72
192
108
48
36
133
186
129
37
64
196
122
99
162
1
191
142
27
55
41
31
147
211
59
89
47
29
154
194
58
161
96
30
175
53
103
169
44
149
190
181
35
148
88
166
177
138
156
2
163
21
117
97
6
40
124
164
158
78
61
94
167
168
126
127
112
79
152
106
172
111
81
16
143
20
136
19
188
174
92
46
5
98
91
28
110
74
107
160
105
116
84
121
73
90
153
157
93
34
102
137
32
17
45
151
77
128

> <PUBCHEM_MMFF94_PARTIAL_CHARGES>
38
1 -0.34
11 0.11
12 0.36
13 0.51
14 -0.14
15 -0.3
16 0.41
17 -0.15
18 -0.15
19 -0.15
2 -0.34
20 -0.14
21 -0.15
22 -0.15
23 -0.15
24 -0.15
25 0.16
26 1.16
27 0.47
3 -0.34
30 0.15
31 0.27
32 0.15
33 0.4
34 0.15
35 0.15
36 0.15
37 0.15
38 0.15
39 0.15
4 0.03
40 0.15
41 0.15
5 -0.87
6 -0.57
7 -0.62
8 -0.62
9 -0.05

> <PUBCHEM_EFFECTIVE_ROTOR_COUNT>
5

> <PUBCHEM_PHARMACOPHORE_FEATURES>
10
1 4 cation
1 4 donor
1 5 donor
1 6 acceptor
3 5 8 16 cation
3 7 8 27 cation
5 4 9 10 11 15 rings
6 14 19 20 21 22 24 rings
6 6 10 11 18 23 25 rings
6 7 8 12 16 17 27 rings

> <PUBCHEM_HEAVY_ATOM_COUNT>
27

> <PUBCHEM_ATOM_DEF_STEREO_COUNT>
0

> <PUBCHEM_ATOM_UDEF_STEREO_COUNT>
0

> <PUBCHEM_BOND_DEF_STEREO_COUNT>
0

> <PUBCHEM_BOND_UDEF_STEREO_COUNT>
0

> <PUBCHEM_ISOTOPIC_ATOM_COUNT>
0

> <PUBCHEM_COMPONENT_COUNT>
1

> <PUBCHEM_CACTVS_TAUTO_COUNT>
8

> <PUBCHEM_CONFORMER_ID>
00B00E1700000003

> <PUBCHEM_MMFF94_ENERGY>
67.5145

> <PUBCHEM_FEATURE_SELFOVERLAP>
50.995

> <PUBCHEM_SHAPE_FINGERPRINT>
10299344 5 15554447422597119502
10670039 82 18187931630124363854
10692045 39 10951787239504374628
10835480 77 13912327888924354988
12236239 1 16660359272987597690
12516196 113 18410848889245235977
12616971 3 14620788289350326376
12760667 363 18412545423160668913
12788726 201 17968925406430108313
12895836 83 13190335786490965537
13533116 47 16630524055554964930
13617811 41 18333450941392551734
13668630 136 18272083937983342279
13673619 4 17846501418117181296
13782708 43 17988924427532652214
14117953 113 18411976980118240703
14123256 34 18410577314278749819
14251764 18 14476956809596939914
14251764 30 17704072880672313072
14556957 393 17313394391542207756
14930077 153 15719386201704859461
14931854 50 17822002100016630875
15183329 4 16877938334994964991
15276724 80 14996550764482542271
15301273 46 17917711292810805729
15352257 5 17560802134701567262
15510800 12 18340492270129981119
16994733 274 13912595061870954341
17844677 252 17489590039515027864
18222031 100 18410009953103973144
2026 5 18057329388647448646
21267235 1 18333733550931562395
21307412 95 18408885166242792399
21424621 283 11458693985629556823
21623969 137 17203331079248207518
2297311 6 18410576171400912561
2303208 19 17989488489987948588
23198884 109 14634862038396569689
23559900 14 18042114526893026617
249057 25 17168140084531165232
2838139 119 12396289370393343170
3004659 81 17822006540506172109
314173 85 18411134745041206841
335352 9 18186791484396569725
3383291 50 18337387245161809251
34797466 226 18341327877391794040
3663271 9 15267058181077410274
437815 12 18343299284439084545
504579 68 16950567645405215250
513202 73 16845578569380870529
5265222 85 17095809918588007979
58083652 198 15625925518204316552
58902169 19 16008746914085353894
59755656 215 18408317774475600395
86090 222 17917722292317640126
9689198 14 12829478209380639263

> <PUBCHEM_SHAPE_MULTIPOLES>
508.92
21.53
2.09
1.69
7.28
1.27
-0.12
-12.04
-7.57
-2.2
-0.24
2.85
-0.46
1.89

> <PUBCHEM_SHAPE_SELFOVERLAP>
1136.084

> <PUBCHEM_SHAPE_VOLUME>
271

> <PUBCHEM_COORDINATE_TYPE>
2
5
10

$$$$
