11755812
  -OEChem-10052115143D

 57 61  0     0  0  0  0  0  0999 V2000
    6.1203    2.7994    1.2021 F   0  0  0  0  0  0  0  0  0  0  0  0
    4.2427    2.7105    0.1202 F   0  0  0  0  0  0  0  0  0  0  0  0
    4.3435    2.0110    2.1767 F   0  0  0  0  0  0  0  0  0  0  0  0
    1.7052   -1.2626    0.0732 O   0  0  0  0  0  0  0  0  0  0  0  0
   -5.0649   -1.2013    0.9995 N   0  0  0  0  0  0  0  0  0  0  0  0
   -3.0762    1.7157   -0.1103 N   0  0  0  0  0  0  0  0  0  0  0  0
   -2.6371   -0.5776   -0.1754 N   0  0  0  0  0  0  0  0  0  0  0  0
   -5.6476    0.9459    1.1470 N   0  0  0  0  0  0  0  0  0  0  0  0
    1.5644   -3.4876   -0.6467 N   0  0  0  0  0  0  0  0  0  0  0  0
    3.6347   -2.4894   -0.4179 N   0  0  0  0  0  0  0  0  0  0  0  0
   -1.4043    6.2977   -1.0653 N   0  0  0  0  0  0  0  0  0  0  0  0
   -4.7183    0.1029    0.7613 C   0  0  0  0  0  0  0  0  0  0  0  0
   -3.0191   -1.8930    0.0883 C   0  0  0  0  0  0  0  0  0  0  0  0
   -3.4438    0.4151    0.1433 C   0  0  0  0  0  0  0  0  0  0  0  0
   -2.0742   -2.9621   -0.3050 C   0  0  0  0  0  0  0  0  0  0  0  0
   -4.2016   -2.2217    0.6552 C   0  0  0  0  0  0  0  0  0  0  0  0
   -1.8272    2.0466   -0.7175 C   0  0  0  0  0  0  0  0  0  0  0  0
   -6.3036   -1.1919    1.5759 C   0  0  0  0  0  0  0  0  0  0  0  0
   -0.6996   -2.7210   -0.2905 C   0  0  0  0  0  0  0  0  0  0  0  0
    0.1902   -3.7292   -0.6611 C   0  0  0  0  0  0  0  0  0  0  0  0
   -2.5572   -4.2133   -0.6907 C   0  0  0  0  0  0  0  0  0  0  0  0
   -6.6407    0.1427    1.6572 C   0  0  0  0  0  0  0  0  0  0  0  0
   -1.6790    3.5379   -0.8395 C   0  0  0  0  0  0  0  0  0  0  0  0
   -0.2936   -4.9794   -1.0467 C   0  0  0  0  0  0  0  0  0  0  0  0
   -1.6672   -5.2214   -1.0614 C   0  0  0  0  0  0  0  0  0  0  0  0
   -1.0938    4.2549    0.1898 C   0  0  0  0  0  0  0  0  0  0  0  0
   -2.1287    4.1802   -1.9800 C   0  0  0  0  0  0  0  0  0  0  0  0
    4.6680   -1.5574   -0.1621 C   0  0  0  0  0  0  0  0  0  0  0  0
    2.2492   -2.3002   -0.2911 C   0  0  0  0  0  0  0  0  0  0  0  0
    5.3595    0.6345    0.5254 C   0  0  0  0  0  0  0  0  0  0  0  0
    4.3403   -0.2835    0.2720 C   0  0  0  0  0  0  0  0  0  0  0  0
    5.9863   -1.9390   -0.3497 C   0  0  0  0  0  0  0  0  0  0  0  0
    6.6921    0.2659    0.3412 C   0  0  0  0  0  0  0  0  0  0  0  0
   -0.9803    5.6264    0.0288 C   0  0  0  0  0  0  0  0  0  0  0  0
   -1.9688    5.5551   -2.0440 C   0  0  0  0  0  0  0  0  0  0  0  0
    7.0054   -1.0210   -0.0964 C   0  0  0  0  0  0  0  0  0  0  0  0
    5.0248    2.0105    0.9941 C   0  0  0  0  0  0  0  0  0  0  0  0
   -4.5311   -3.2270    0.8862 H   0  0  0  0  0  0  0  0  0  0  0  0
   -3.7116    2.4699    0.1378 H   0  0  0  0  0  0  0  0  0  0  0  0
   -1.7495    1.5896   -1.7124 H   0  0  0  0  0  0  0  0  0  0  0  0
   -0.9921    1.6461   -0.1282 H   0  0  0  0  0  0  0  0  0  0  0  0
   -6.8201   -2.0955    1.8688 H   0  0  0  0  0  0  0  0  0  0  0  0
   -0.3751   -1.7414    0.0283 H   0  0  0  0  0  0  0  0  0  0  0  0
   -3.6192   -4.4367   -0.7425 H   0  0  0  0  0  0  0  0  0  0  0  0
   -7.5506    0.5654    2.0577 H   0  0  0  0  0  0  0  0  0  0  0  0
    0.3881   -5.7739   -1.3396 H   0  0  0  0  0  0  0  0  0  0  0  0
   -2.0437   -6.1931   -1.3677 H   0  0  0  0  0  0  0  0  0  0  0  0
    2.1486   -4.2705   -0.9297 H   0  0  0  0  0  0  0  0  0  0  0  0
   -0.7352    3.7749    1.0935 H   0  0  0  0  0  0  0  0  0  0  0  0
   -2.5918    3.6410   -2.7988 H   0  0  0  0  0  0  0  0  0  0  0  0
    3.9421   -3.4063   -0.7327 H   0  0  0  0  0  0  0  0  0  0  0  0
    3.3333    0.0697    0.4362 H   0  0  0  0  0  0  0  0  0  0  0  0
    6.2414   -2.9388   -0.6898 H   0  0  0  0  0  0  0  0  0  0  0  0
    7.4998    0.9667    0.5334 H   0  0  0  0  0  0  0  0  0  0  0  0
    8.0430   -1.3082   -0.2398 H   0  0  0  0  0  0  0  0  0  0  0  0
   -0.5309    6.2409    0.8020 H   0  0  0  0  0  0  0  0  0  0  0  0
   -2.3025    6.1132   -2.9125 H   0  0  0  0  0  0  0  0  0  0  0  0
  1 37  1  0  0  0  0
  2 37  1  0  0  0  0
  3 37  1  0  0  0  0
  4 29  2  0  0  0  0
  5 12  1  0  0  0  0
  5 16  1  0  0  0  0
  5 18  1  0  0  0  0
  6 14  1  0  0  0  0
  6 17  1  0  0  0  0
  6 39  1  0  0  0  0
  7 13  1  0  0  0  0
  7 14  2  0  0  0  0
  8 12  2  0  0  0  0
  8 22  1  0  0  0  0
  9 20  1  0  0  0  0
  9 29  1  0  0  0  0
  9 48  1  0  0  0  0
 10 28  1  0  0  0  0
 10 29  1  0  0  0  0
 10 51  1  0  0  0  0
 11 34  2  0  0  0  0
 11 35  1  0  0  0  0
 12 14  1  0  0  0  0
 13 15  1  0  0  0  0
 13 16  2  0  0  0  0
 15 19  2  0  0  0  0
 15 21  1  0  0  0  0
 16 38  1  0  0  0  0
 17 23  1  0  0  0  0
 17 40  1  0  0  0  0
 17 41  1  0  0  0  0
 18 22  2  0  0  0  0
 18 42  1  0  0  0  0
 19 20  1  0  0  0  0
 19 43  1  0  0  0  0
 20 24  2  0  0  0  0
 21 25  2  0  0  0  0
 21 44  1  0  0  0  0
 22 45  1  0  0  0  0
 23 26  2  0  0  0  0
 23 27  1  0  0  0  0
 24 25  1  0  0  0  0
 24 46  1  0  0  0  0
 25 47  1  0  0  0  0
 26 34  1  0  0  0  0
 26 49  1  0  0  0  0
 27 35  2  0  0  0  0
 27 50  1  0  0  0  0
 28 31  1  0  0  0  0
 28 32  2  0  0  0  0
 30 31  2  0  0  0  0
 30 33  1  0  0  0  0
 30 37  1  0  0  0  0
 31 52  1  0  0  0  0
 32 36  1  0  0  0  0
 32 53  1  0  0  0  0
 33 36  2  0  0  0  0
 33 54  1  0  0  0  0
 34 56  1  0  0  0  0
 35 57  1  0  0  0  0
 36 55  1  0  0  0  0
M  END
> <PUBCHEM_COMPOUND_CID>
11755812

> <PUBCHEM_CONFORMER_RMSD>
1.2

> <PUBCHEM_CONFORMER_DIVERSEORDER>
3
89
173
277
75
191
235
268
344
246
98
72
241
284
318
223
290
329
248
88
149
153
85
334
116
60
332
162
221
305
146
152
216
118
333
97
226
244
113
66
147
232
161
293
340
96
261
291
164
298
165
137
343
79
269
316
160
294
99
169
224
310
84
286
345
194
231
73
296
201
260
289
211
108
129
295
150
346
94
200
76
140
205
145
331
328
297
287
74
276
288
106
90
283
188
230
323
40
251
195
203
321
196
120
148
33
229
317
61
255
81
163
78
338
105
303
300
306
119
69
210
167
175
109
319
257
182
222
100
225
250
54
183
272
114
92
325
236
275
326
178
125
177
83
104
259
58
249
273
263
151
271
135
35
34
220
184
189
136
93
320
312
238
253
63
243
218
166
103
315
274
156
48
280
228
154
23
68
322
347
336
41
143
285
82
142
342
252
190
206
304
258
308
237
204
55
264
267
199
117
299
80
311
307
265
301
227
64
181
208
111
240
217
107
171
327
330
186
179
215
324
86
242
87
25
180
155
46
239
247
254
157
56
219
213
71
38
168
197
341
115
292
50
245
335
17
6
30
266
270
282
65
62
193
256
112
91
70
139
279
262
176
67
158
101
313
102
339
174
214
16
110
207
29
77
309
278
22
36
212
233
314
202
18
21
39
138
26
28
302
122
121
281
32
134
10
170
51
95
2
144
53
172
159
52
49
127
9
42
13
123
44
192
209
337
47
5
11
133
15
31
37
130
198
234
1
14
12
124
43
185
128
131
187
132
4
27
19
141
20
126
8
57
59
45
7
24

> <PUBCHEM_MMFF94_PARTIAL_CHARGES>
55
1 -0.34
10 -0.55
11 -0.62
12 0.1
13 0.14
14 0.58
15 0.03
16 -0.18
17 0.51
18 -0.3
19 -0.15
2 -0.34
20 0.12
21 -0.15
22 0.08
23 -0.14
24 -0.15
25 -0.15
26 -0.15
27 -0.15
28 0.12
29 0.69
3 -0.34
30 -0.14
31 -0.15
32 -0.15
33 -0.15
34 0.16
35 0.16
36 -0.15
37 1.16
38 0.15
39 0.4
4 -0.57
42 0.15
43 0.15
44 0.15
45 0.15
46 0.15
47 0.15
48 0.37
49 0.15
5 0.33
50 0.15
51 0.37
52 0.15
53 0.15
54 0.15
55 0.15
56 0.15
57 0.15
6 -0.82
7 -0.62
8 -0.57
9 -0.55

> <PUBCHEM_EFFECTIVE_ROTOR_COUNT>
9

> <PUBCHEM_PHARMACOPHORE_FEATURES>
12
1 10 donor
1 11 acceptor
1 4 acceptor
1 6 donor
1 9 donor
3 5 8 12 cation
3 6 7 14 cation
5 5 8 12 18 22 rings
6 11 23 26 27 34 35 rings
6 15 19 20 21 24 25 rings
6 28 30 31 32 33 36 rings
6 5 7 12 13 14 16 rings

> <PUBCHEM_HEAVY_ATOM_COUNT>
37

> <PUBCHEM_ATOM_DEF_STEREO_COUNT>
0

> <PUBCHEM_ATOM_UDEF_STEREO_COUNT>
0

> <PUBCHEM_BOND_DEF_STEREO_COUNT>
0

> <PUBCHEM_BOND_UDEF_STEREO_COUNT>
0

> <PUBCHEM_ISOTOPIC_ATOM_COUNT>
0

> <PUBCHEM_COMPONENT_COUNT>
1

> <PUBCHEM_CACTVS_TAUTO_COUNT>
6

> <PUBCHEM_CONFORMER_ID>
00B3612400000003

> <PUBCHEM_MMFF94_ENERGY>
106.797

> <PUBCHEM_FEATURE_SELFOVERLAP>
61.099

> <PUBCHEM_SHAPE_FINGERPRINT>
10439779 11 18051986006273242245
10675989 125 16609973839365564868
11136257 43 18115877471986316431
12218070 45 16828099972622420912
12925494 130 17906448831629974068
13383668 362 18047207516650975203
13561361 72 18410847785675991768
14068700 686 18194969530796630215
14394314 77 18265063607157251069
14705955 166 18188210892739353394
15320467 1 18411980226691379892
15419008 145 18335975390663782906
15968369 26 17400051116284908265
16067690 210 18187632661455980066
16992828 155 18341325660692934023
18393751 57 18341906190559856019
19246450 95 17833237885098747930
19611394 137 17971208143015169811
20691028 202 18202566189397632707
24771293 8 18270692966017502235
25019877 29 17704082819544057431
25223398 141 18262519187585903628
50677037 204 18197205065152583206
636783 129 18197520561583143793

> <PUBCHEM_SHAPE_MULTIPOLES>
698.89
16.04
9.52
1.4
18.16
9.17
0.01
0.11
8.43
-6.26
-5.61
-1.1
1.1
3.33

> <PUBCHEM_SHAPE_SELFOVERLAP>
1548.133

> <PUBCHEM_SHAPE_VOLUME>
373.6

> <PUBCHEM_COORDINATE_TYPE>
2
5
10

$$$$
