25164472
  -OEChem-10052115183D

 47 50  0     0  0  0  0  0  0999 V2000
    5.9231    1.0680    0.2529 O   0  0  0  0  0  0  0  0  0  0  0  0
   -3.2648   -0.8212   -0.9134 N   0  0  0  0  0  0  0  0  0  0  0  0
    3.9668   -2.6950    0.4558 N   0  0  0  0  0  0  0  0  0  0  0  0
    3.6080    0.6970    0.0269 N   0  0  0  0  0  0  0  0  0  0  0  0
    4.5233   -1.4745    0.3819 N   0  0  0  0  0  0  0  0  0  0  0  0
   -2.4784   -2.4578    0.2402 N   0  0  0  0  0  0  0  0  0  0  0  0
   -3.6054   -1.8749   -0.1536 N   0  0  0  0  0  0  0  0  0  0  0  0
    2.2541   -1.3715    0.1040 C   0  0  0  0  0  0  0  0  0  0  0  0
    2.6072   -2.7024    0.2967 C   0  0  0  0  0  0  0  0  0  0  0  0
   -0.0463   -2.0689   -0.0868 C   0  0  0  0  0  0  0  0  0  0  0  0
    0.9033   -1.0395   -0.0922 C   0  0  0  0  0  0  0  0  0  0  0  0
    3.4783   -0.6720    0.1682 C   0  0  0  0  0  0  0  0  0  0  0  0
   -1.4333   -1.7506   -0.2862 C   0  0  0  0  0  0  0  0  0  0  0  0
    1.6767   -3.7438    0.3059 C   0  0  0  0  0  0  0  0  0  0  0  0
    0.3359   -3.3974    0.1090 C   0  0  0  0  0  0  0  0  0  0  0  0
   -4.2769    0.0221   -1.4966 C   0  0  0  0  0  0  0  0  0  0  0  0
   -1.9140   -0.7002   -1.0271 C   0  0  0  0  0  0  0  0  0  0  0  0
    4.4822    2.9565   -0.1605 C   0  0  0  0  0  0  0  0  0  0  0  0
   -4.8807    0.9967   -0.5159 C   0  0  0  0  0  0  0  0  0  0  0  0
    4.7821    1.4807    0.0735 C   0  0  0  0  0  0  0  0  0  0  0  0
    5.7179    3.8531   -0.1210 C   0  0  0  0  0  0  0  0  0  0  0  0
   -5.8361    0.5603    0.4021 C   0  0  0  0  0  0  0  0  0  0  0  0
   -4.4833    2.3338   -0.5264 C   0  0  0  0  0  0  0  0  0  0  0  0
    5.3926    5.3085   -0.4266 C   0  0  0  0  0  0  0  0  0  0  0  0
   -6.3942    1.4609    1.3094 C   0  0  0  0  0  0  0  0  0  0  0  0
   -5.0413    3.2342    0.3810 C   0  0  0  0  0  0  0  0  0  0  0  0
   -5.9967    2.7978    1.2989 C   0  0  0  0  0  0  0  0  0  0  0  0
    0.6236    0.0006   -0.2320 H   0  0  0  0  0  0  0  0  0  0  0  0
    1.9758   -4.7750    0.4574 H   0  0  0  0  0  0  0  0  0  0  0  0
   -0.4041   -4.1957    0.1089 H   0  0  0  0  0  0  0  0  0  0  0  0
   -5.0556   -0.6274   -1.9153 H   0  0  0  0  0  0  0  0  0  0  0  0
   -3.8279    0.5520   -2.3455 H   0  0  0  0  0  0  0  0  0  0  0  0
    4.5746   -3.4883    0.6175 H   0  0  0  0  0  0  0  0  0  0  0  0
   -1.4454    0.0855   -1.6039 H   0  0  0  0  0  0  0  0  0  0  0  0
    2.7331    1.1909   -0.1336 H   0  0  0  0  0  0  0  0  0  0  0  0
    3.7651    3.2822    0.6026 H   0  0  0  0  0  0  0  0  0  0  0  0
    3.9922    3.0463   -1.1377 H   0  0  0  0  0  0  0  0  0  0  0  0
    6.1890    3.7874    0.8671 H   0  0  0  0  0  0  0  0  0  0  0  0
    6.4585    3.4943   -0.8459 H   0  0  0  0  0  0  0  0  0  0  0  0
   -6.1594   -0.4770    0.4183 H   0  0  0  0  0  0  0  0  0  0  0  0
   -3.7384    2.6864   -1.2346 H   0  0  0  0  0  0  0  0  0  0  0  0
    4.9581    5.4103   -1.4261 H   0  0  0  0  0  0  0  0  0  0  0  0
    6.3013    5.9170   -0.3863 H   0  0  0  0  0  0  0  0  0  0  0  0
    4.6803    5.7103    0.3010 H   0  0  0  0  0  0  0  0  0  0  0  0
   -7.1391    1.1214    2.0232 H   0  0  0  0  0  0  0  0  0  0  0  0
   -4.7316    4.2752    0.3734 H   0  0  0  0  0  0  0  0  0  0  0  0
   -6.4313    3.4991    2.0052 H   0  0  0  0  0  0  0  0  0  0  0  0
  1 20  2  0  0  0  0
  2  7  1  0  0  0  0
  2 16  1  0  0  0  0
  2 17  1  0  0  0  0
  3  5  1  0  0  0  0
  3  9  1  0  0  0  0
  3 33  1  0  0  0  0
  4 12  1  0  0  0  0
  4 20  1  0  0  0  0
  4 35  1  0  0  0  0
  5 12  2  0  0  0  0
  6  7  2  0  0  0  0
  6 13  1  0  0  0  0
  8  9  2  0  0  0  0
  8 11  1  0  0  0  0
  8 12  1  0  0  0  0
  9 14  1  0  0  0  0
 10 11  2  0  0  0  0
 10 13  1  0  0  0  0
 10 15  1  0  0  0  0
 11 28  1  0  0  0  0
 13 17  2  0  0  0  0
 14 15  2  0  0  0  0
 14 29  1  0  0  0  0
 15 30  1  0  0  0  0
 16 19  1  0  0  0  0
 16 31  1  0  0  0  0
 16 32  1  0  0  0  0
 17 34  1  0  0  0  0
 18 20  1  0  0  0  0
 18 21  1  0  0  0  0
 18 36  1  0  0  0  0
 18 37  1  0  0  0  0
 19 22  2  0  0  0  0
 19 23  1  0  0  0  0
 21 24  1  0  0  0  0
 21 38  1  0  0  0  0
 21 39  1  0  0  0  0
 22 25  1  0  0  0  0
 22 40  1  0  0  0  0
 23 26  2  0  0  0  0
 23 41  1  0  0  0  0
 24 42  1  0  0  0  0
 24 43  1  0  0  0  0
 24 44  1  0  0  0  0
 25 27  2  0  0  0  0
 25 45  1  0  0  0  0
 26 27  1  0  0  0  0
 26 46  1  0  0  0  0
 27 47  1  0  0  0  0
M  END
> <PUBCHEM_COMPOUND_CID>
25164472

> <PUBCHEM_CONFORMER_RMSD>
1

> <PUBCHEM_CONFORMER_DIVERSEORDER>
1
112
48
30
109
36
86
95
83
39
114
104
45
29
54
63
31
75
98
50
44
77
99
110
78
35
20
108
82
106
22
102
74
56
65
37
53
90
59
6
34
19
94
26
52
79
113
66
33
107
91
40
2
70
67
88
17
76
43
92
71
55
23
12
89
60
62
24
57
103
97
100
13
18
47
81
51
49
111
105
14
28
46
69
32
80
15
27
85
7
8
101
21
25
73
96
93
9
84
68
61
58
87
42
41
72
16
10
4
11
64
38
3
5

> <PUBCHEM_MMFF94_PARTIAL_CHARGES>
35
1 -0.57
10 0.05
11 -0.15
12 0.35
13 0.17
14 -0.15
15 -0.15
16 0.4
17 -0.3
18 0.06
19 -0.14
2 0.31
20 0.57
22 -0.15
23 -0.15
25 -0.15
26 -0.15
27 -0.15
28 0.15
29 0.15
3 0.3
30 0.15
33 0.27
34 0.15
35 0.37
4 -0.49
40 0.15
41 0.15
45 0.15
46 0.15
47 0.15
5 -0.71
6 -0.23
7 -0.42
9 -0.15

> <PUBCHEM_EFFECTIVE_ROTOR_COUNT>
7

> <PUBCHEM_PHARMACOPHORE_FEATURES>
8
1 1 acceptor
1 24 hydrophobe
1 3 donor
1 4 donor
5 2 6 7 13 17 rings
5 3 5 8 9 12 rings
6 19 22 23 25 26 27 rings
6 8 9 10 11 14 15 rings

> <PUBCHEM_HEAVY_ATOM_COUNT>
27

> <PUBCHEM_ATOM_DEF_STEREO_COUNT>
0

> <PUBCHEM_ATOM_UDEF_STEREO_COUNT>
0

> <PUBCHEM_BOND_DEF_STEREO_COUNT>
0

> <PUBCHEM_BOND_UDEF_STEREO_COUNT>
0

> <PUBCHEM_ISOTOPIC_ATOM_COUNT>
0

> <PUBCHEM_COMPONENT_COUNT>
1

> <PUBCHEM_CACTVS_TAUTO_COUNT>
8

> <PUBCHEM_CONFORMER_ID>
017FFAB800000001

> <PUBCHEM_MMFF94_ENERGY>
50.1596

> <PUBCHEM_FEATURE_SELFOVERLAP>
40.688

> <PUBCHEM_SHAPE_FINGERPRINT>
100830 2 17986968366288025137
10429389 16 11743560930174499339
11070050 100 16950844708928235410
11101153 10 18412256221822629605
11135609 201 18339926034167246091
11479125 193 18410581711982987577
1200032 147 18186806911502605888
12788726 201 17346039944407233505
12975358 362 16839970923622312889
13398642 44 18041857206237428357
13885169 86 18412267229143534865
14251764 75 18411422838261813836
14347329 18 18340198712987969000
14429114 114 18339919428149452360
14790565 3 18411418422971766268
14849402 71 18336547093280641338
15081414 286 18123466068691162430
15142526 21 18260548909540161747
16728433 281 17829904475250086724
16760501 71 18409452449495909673
1768 23 17488198002159934641
1768 85 18335701594450118141
19302320 297 18195813955579478641
19438510 23 18187925144518201232
20691028 202 18271523088269175993
20737093 172 16160140676100833320
21307412 95 9653928124612942514
21315764 268 18046625604068632309
22122407 14 18340216184977790899
23569914 152 9654195207902986635
245318 6 18114757030461271876
2748736 6 18339911727578876928
3103668 31 17257940291437178318
4280585 95 9294751760784810197
437795 171 18334285448949123533
437795 96 17753323180694471525
5104073 3 18113894966037326946
5223283 242 17699032612091929950
5364581 5 18335991913392304033
53794403 172 18411143515490876100
550186 72 17905888428781953007
57724786 102 18340485582105791487
5951187 136 18272101469923404532
6034566 193 18272378598324795107
6058803 2 18270095973315549391
633830 44 18341041952312344670
636775 72 17837205245184892240

> <PUBCHEM_SHAPE_MULTIPOLES>
519.89
17.28
6.18
0.95
5.82
4.83
0.05
22.35
-2.65
-8.77
-0.35
1.39
0.25
-2.37

> <PUBCHEM_SHAPE_SELFOVERLAP>
1133.856

> <PUBCHEM_SHAPE_VOLUME>
284.8

> <PUBCHEM_COORDINATE_TYPE>
2
5
10

$$$$
