49830960
  -OEChem-10052120443D

 50 54  0     0  0  0  0  0  0999 V2000
   -2.2193    2.0342   -2.0276 F   0  0  0  0  0  0  0  0  0  0  0  0
   -0.5125    5.3401    0.8913 F   0  0  0  0  0  0  0  0  0  0  0  0
    3.5505   -1.5309   -2.6684 O   0  0  0  0  0  0  0  0  0  0  0  0
   -2.3837   -1.9891   -0.0853 N   0  0  0  0  0  0  0  0  0  0  0  0
   -3.5722   -0.1553   -0.4113 N   0  0  0  0  0  0  0  0  0  0  0  0
    2.0624   -0.8422    0.5386 N   0  0  0  0  0  0  0  0  0  0  0  0
    0.8275   -0.6192    0.0239 N   0  0  0  0  0  0  0  0  0  0  0  0
    4.2383   -0.8187    0.8008 N   0  0  0  0  0  0  0  0  0  0  0  0
    3.6880   -1.5498    1.8343 N   0  0  0  0  0  0  0  0  0  0  0  0
   -2.3409   -3.4334   -0.1491 C   0  0  0  0  0  0  0  0  0  0  0  0
   -3.5892   -3.7476   -0.9972 C   0  0  0  0  0  0  0  0  0  0  0  0
   -4.5290   -2.5205   -0.8564 C   0  0  0  0  0  0  0  0  0  0  0  0
   -3.5763   -1.4619   -0.4734 C   0  0  0  0  0  0  0  0  0  0  0  0
   -1.5365   -1.0007    0.2429 C   0  0  0  0  0  0  0  0  0  0  0  0
    3.3600    0.4132   -1.1852 C   0  0  0  0  0  0  0  0  0  0  0  0
   -2.2944    0.1409    0.0378 C   0  0  0  0  0  0  0  0  0  0  0  0
   -0.1351   -1.1684    0.7092 C   0  0  0  0  0  0  0  0  0  0  0  0
    3.2529   -0.4032    0.0375 C   0  0  0  0  0  0  0  0  0  0  0  0
    2.8112   -0.3325   -2.4588 C   0  0  0  0  0  0  0  0  0  0  0  0
    2.6133    1.8000   -1.1526 C   0  0  0  0  0  0  0  0  0  0  0  0
    4.8530    0.7797   -1.4990 C   0  0  0  0  0  0  0  0  0  0  0  0
   -1.8361    1.4811    0.2537 C   0  0  0  0  0  0  0  0  0  0  0  0
    2.3824   -1.5582    1.6687 C   0  0  0  0  0  0  0  0  0  0  0  0
    0.0631   -1.9585    1.9672 C   0  0  0  0  0  0  0  0  0  0  0  0
    1.3196   -2.1260    2.3987 C   0  0  0  0  0  0  0  0  0  0  0  0
   -1.8143    2.3940   -0.8008 C   0  0  0  0  0  0  0  0  0  0  0  0
   -1.4108    1.8718    1.5235 C   0  0  0  0  0  0  0  0  0  0  0  0
   -1.3671    3.6976   -0.5855 C   0  0  0  0  0  0  0  0  0  0  0  0
   -0.9633    3.1753    1.7387 C   0  0  0  0  0  0  0  0  0  0  0  0
   -0.9415    4.0883    0.6842 C   0  0  0  0  0  0  0  0  0  0  0  0
   -2.4280   -3.8176    0.8710 H   0  0  0  0  0  0  0  0  0  0  0  0
   -1.4113   -3.7577   -0.6221 H   0  0  0  0  0  0  0  0  0  0  0  0
   -4.0740   -4.6827   -0.7011 H   0  0  0  0  0  0  0  0  0  0  0  0
   -3.2917   -3.8516   -2.0491 H   0  0  0  0  0  0  0  0  0  0  0  0
   -5.0496   -2.3052   -1.7929 H   0  0  0  0  0  0  0  0  0  0  0  0
   -5.2618   -2.6836   -0.0600 H   0  0  0  0  0  0  0  0  0  0  0  0
    2.9222    0.2918   -3.3529 H   0  0  0  0  0  0  0  0  0  0  0  0
    1.7535   -0.5931   -2.3601 H   0  0  0  0  0  0  0  0  0  0  0  0
    2.9440    2.3913   -0.2911 H   0  0  0  0  0  0  0  0  0  0  0  0
    2.8042    2.3819   -2.0613 H   0  0  0  0  0  0  0  0  0  0  0  0
    1.5304    1.6689   -1.0650 H   0  0  0  0  0  0  0  0  0  0  0  0
    5.2780    1.3935   -0.6958 H   0  0  0  0  0  0  0  0  0  0  0  0
    5.4761   -0.1178   -1.5876 H   0  0  0  0  0  0  0  0  0  0  0  0
    4.9418    1.3427   -2.4351 H   0  0  0  0  0  0  0  0  0  0  0  0
   -0.7896   -2.3675    2.4941 H   0  0  0  0  0  0  0  0  0  0  0  0
    1.5270   -2.6880    3.3022 H   0  0  0  0  0  0  0  0  0  0  0  0
   -1.4259    1.1787    2.3613 H   0  0  0  0  0  0  0  0  0  0  0  0
    3.1870   -1.9541   -3.4648 H   0  0  0  0  0  0  0  0  0  0  0  0
   -1.3496    4.4082   -1.4064 H   0  0  0  0  0  0  0  0  0  0  0  0
   -0.6331    3.4802    2.7273 H   0  0  0  0  0  0  0  0  0  0  0  0
  1 26  1  0  0  0  0
  2 30  1  0  0  0  0
  3 19  1  0  0  0  0
  3 48  1  0  0  0  0
  4 10  1  0  0  0  0
  4 13  1  0  0  0  0
  4 14  1  0  0  0  0
  5 13  2  0  0  0  0
  5 16  1  0  0  0  0
  6  7  1  0  0  0  0
  6 18  1  0  0  0  0
  6 23  1  0  0  0  0
  7 17  2  0  0  0  0
  8  9  1  0  0  0  0
  8 18  2  0  0  0  0
  9 23  2  0  0  0  0
 10 11  1  0  0  0  0
 10 31  1  0  0  0  0
 10 32  1  0  0  0  0
 11 12  1  0  0  0  0
 11 33  1  0  0  0  0
 11 34  1  0  0  0  0
 12 13  1  0  0  0  0
 12 35  1  0  0  0  0
 12 36  1  0  0  0  0
 14 16  2  0  0  0  0
 14 17  1  0  0  0  0
 15 18  1  0  0  0  0
 15 19  1  0  0  0  0
 15 20  1  0  0  0  0
 15 21  1  0  0  0  0
 16 22  1  0  0  0  0
 17 24  1  0  0  0  0
 19 37  1  0  0  0  0
 19 38  1  0  0  0  0
 20 39  1  0  0  0  0
 20 40  1  0  0  0  0
 20 41  1  0  0  0  0
 21 42  1  0  0  0  0
 21 43  1  0  0  0  0
 21 44  1  0  0  0  0
 22 26  2  0  0  0  0
 22 27  1  0  0  0  0
 23 25  1  0  0  0  0
 24 25  2  0  0  0  0
 24 45  1  0  0  0  0
 25 46  1  0  0  0  0
 26 28  1  0  0  0  0
 27 29  2  0  0  0  0
 27 47  1  0  0  0  0
 28 30  2  0  0  0  0
 28 49  1  0  0  0  0
 29 30  1  0  0  0  0
 29 50  1  0  0  0  0
M  END
> <PUBCHEM_COMPOUND_CID>
49830960

> <PUBCHEM_CONFORMER_RMSD>
0.8

> <PUBCHEM_CONFORMER_DIVERSEORDER>
1
33
8
53
48
11
38
59
31
58
13
42
51
70
3
35
55
64
6
32
50
5
49
12
60
43
46
69
44
66
20
54
39
71
4
25
45
36
17
34
28
21
73
63
18
10
15
29
24
19
16
14
52
61
7
9
41
56
22
72
67
2
27
30
68
40
47
37
57
65
26
23
62

> <PUBCHEM_MMFF94_PARTIAL_CHARGES>
33
1 -0.19
10 0.26
12 0.18
13 0.01
14 -0.24
15 0.18
16 0.17
17 0.52
18 0.01
19 0.28
2 -0.19
22 0.05
23 0.14
24 -0.14
25 -0.11
26 0.19
27 -0.15
28 -0.15
29 -0.15
3 -0.68
30 0.19
4 0.05
45 0.15
46 0.15
47 0.15
48 0.4
49 0.15
5 -0.57
50 0.15
6 0.51
7 -0.65
8 -0.34
9 -0.34

> <PUBCHEM_EFFECTIVE_ROTOR_COUNT>
4.6

> <PUBCHEM_PHARMACOPHORE_FEATURES>
12
1 3 acceptor
1 3 donor
1 7 acceptor
3 15 20 21 hydrophobe
3 4 5 13 cation
3 6 8 18 cation
3 6 9 23 cation
5 4 10 11 12 13 rings
5 4 5 13 14 16 rings
5 6 8 9 18 23 rings
6 22 26 27 28 29 30 rings
6 6 7 17 23 24 25 rings

> <PUBCHEM_HEAVY_ATOM_COUNT>
30

> <PUBCHEM_ATOM_DEF_STEREO_COUNT>
0

> <PUBCHEM_ATOM_UDEF_STEREO_COUNT>
0

> <PUBCHEM_BOND_DEF_STEREO_COUNT>
0

> <PUBCHEM_BOND_UDEF_STEREO_COUNT>
0

> <PUBCHEM_ISOTOPIC_ATOM_COUNT>
0

> <PUBCHEM_COMPONENT_COUNT>
1

> <PUBCHEM_CACTVS_TAUTO_COUNT>
1

> <PUBCHEM_CONFORMER_ID>
02F85C3000000001

> <PUBCHEM_MMFF94_ENERGY>
77.3207

> <PUBCHEM_FEATURE_SELFOVERLAP>
63.809

> <PUBCHEM_SHAPE_FINGERPRINT>
10165383 225 17195483718299449929
10940486 97 17977941281434936090
11578080 2 17537113221152706517
11640471 11 17971194716403147416
12156800 1 14859409795767600772
12160290 23 18263937539951859929
12173636 292 17909543961468191729
12539773 59 18189637010775660853
12788726 201 18408892827603994597
13009979 54 18116694262659763298
13149001 5 17612600324796289331
133893 2 17335302393091487407
13965767 371 16749848241004646120
14068700 675 18188753051172858890
14790565 3 18196652900669800425
14910302 57 17917439674520692006
14955137 171 18124909921565241715
15297060 5 17624118417645320297
15420108 30 17470993797348278898
15475509 8 18131083627958027391
15664445 248 18127129890564035943
17818456 19 18120639254482130282
1813 80 18058171807426386839
19311894 1 18122359986475106044
19319366 153 17895465943788731715
20567600 347 16683432851230768743
20600515 1 18130217246716942779
20642791 105 17900510447122505307
20642791 239 18261956374886695817
20775438 99 16900166358231465726
20905425 154 18195511800023838625
21033650 10 18264230036368819310
2132832 1 17896855751939253682
21756936 100 17536074058389980886
22907989 373 18339068281832255765
23557571 272 18131346393149620946
23559900 14 17628915931155399215
238918 7 15233249989766929248
3298306 158 17114948249392612308
352729 6 17904743506923502379
532947 4 17617654797023685001
550186 7 18130209490301392074
5895379 119 18266744576453561894
6523845 18 17409105603182449537
7164475 11 18409161082967274090
7399639 24 17774999141938722650
9981440 41 17403709183449998753

> <PUBCHEM_SHAPE_MULTIPOLES>
567.08
7.62
5.38
2.2
2.89
6.64
-0.06
-6.04
-4.08
-4.1
1.25
1.99
-0.68
-1.56

> <PUBCHEM_SHAPE_SELFOVERLAP>
1262.357

> <PUBCHEM_SHAPE_VOLUME>
306.8

> <PUBCHEM_COORDINATE_TYPE>
2
5
10

$$$$
