24952851
  -OEChem-10052115193D

 47 52  0     0  0  0  0  0  0999 V2000
   -5.5050   -1.3014   -1.0315 S   0  0  0  0  0  0  0  0  0  0  0  0
    0.7441    5.1619    1.0391 F   0  0  0  0  0  0  0  0  0  0  0  0
    2.9385   -1.3601   -0.5110 N   0  0  0  0  0  0  0  0  0  0  0  0
    3.0891   -2.7472    1.2191 N   0  0  0  0  0  0  0  0  0  0  0  0
    5.0708   -2.2311   -0.0397 N   0  0  0  0  0  0  0  0  0  0  0  0
   -3.0416   -1.3526   -0.3201 N   0  0  0  0  0  0  0  0  0  0  0  0
   -3.7068    0.7773   -0.4271 N   0  0  0  0  0  0  0  0  0  0  0  0
    4.0315    0.6905   -1.2248 C   0  0  0  0  0  0  0  0  0  0  0  0
    3.2199    1.8466   -0.7186 C   0  0  0  0  0  0  0  0  0  0  0  0
    3.8896    1.9299   -2.0589 C   0  0  0  0  0  0  0  0  0  0  0  0
    3.3322   -0.5627   -1.6520 C   0  0  0  0  0  0  0  0  0  0  0  0
    1.6673   -1.4539   -0.0053 C   0  0  0  0  0  0  0  0  0  0  0  0
    3.7513   -2.1499    0.2537 C   0  0  0  0  0  0  0  0  0  0  0  0
    1.7875   -2.3252    1.0737 C   0  0  0  0  0  0  0  0  0  0  0  0
    0.4594   -0.8691   -0.3874 C   0  0  0  0  0  0  0  0  0  0  0  0
   -0.6672   -1.1969    0.3739 C   0  0  0  0  0  0  0  0  0  0  0  0
    0.6453   -2.6435    1.8276 C   0  0  0  0  0  0  0  0  0  0  0  0
   -1.9458   -0.6233    0.0267 C   0  0  0  0  0  0  0  0  0  0  0  0
   -0.5782   -2.0681    1.4622 C   0  0  0  0  0  0  0  0  0  0  0  0
   -2.3803    0.6903   -0.0463 C   0  0  0  0  0  0  0  0  0  0  0  0
   -4.0482   -0.4723   -0.5765 C   0  0  0  0  0  0  0  0  0  0  0  0
   -1.5750    1.8420    0.2333 C   0  0  0  0  0  0  0  0  0  0  0  0
   -3.3623   -2.6812   -0.4663 C   0  0  0  0  0  0  0  0  0  0  0  0
   -4.6426   -2.8388   -0.8434 C   0  0  0  0  0  0  0  0  0  0  0  0
   -1.0033    2.0038    1.4954 C   0  0  0  0  0  0  0  0  0  0  0  0
   -1.3630    2.8016   -0.7565 C   0  0  0  0  0  0  0  0  0  0  0  0
   -0.2197    3.1252    1.7676 C   0  0  0  0  0  0  0  0  0  0  0  0
   -0.5795    3.9231   -0.4844 C   0  0  0  0  0  0  0  0  0  0  0  0
   -0.0079    4.0849    0.7777 C   0  0  0  0  0  0  0  0  0  0  0  0
    4.9977    0.5134   -0.7693 H   0  0  0  0  0  0  0  0  0  0  0  0
    3.6335    2.4364    0.0902 H   0  0  0  0  0  0  0  0  0  0  0  0
    2.1403    1.7688   -0.7057 H   0  0  0  0  0  0  0  0  0  0  0  0
    3.2596    1.8976   -2.9392 H   0  0  0  0  0  0  0  0  0  0  0  0
    4.7531    2.5774   -2.1510 H   0  0  0  0  0  0  0  0  0  0  0  0
    3.9877   -1.1720   -2.2843 H   0  0  0  0  0  0  0  0  0  0  0  0
    2.4429   -0.3481   -2.2542 H   0  0  0  0  0  0  0  0  0  0  0  0
    0.3984   -0.1971   -1.2369 H   0  0  0  0  0  0  0  0  0  0  0  0
    0.7046   -3.3177    2.6759 H   0  0  0  0  0  0  0  0  0  0  0  0
   -1.4585   -2.3112    2.0542 H   0  0  0  0  0  0  0  0  0  0  0  0
    5.6939   -2.8089    0.5157 H   0  0  0  0  0  0  0  0  0  0  0  0
    5.5098   -1.7433   -0.8130 H   0  0  0  0  0  0  0  0  0  0  0  0
   -2.6408   -3.4648   -0.2927 H   0  0  0  0  0  0  0  0  0  0  0  0
   -5.1275   -3.7877   -1.0237 H   0  0  0  0  0  0  0  0  0  0  0  0
   -1.1622    1.2728    2.2848 H   0  0  0  0  0  0  0  0  0  0  0  0
   -1.7993    2.6900   -1.7464 H   0  0  0  0  0  0  0  0  0  0  0  0
    0.2244    3.2523    2.7503 H   0  0  0  0  0  0  0  0  0  0  0  0
   -0.4134    4.6700   -1.2550 H   0  0  0  0  0  0  0  0  0  0  0  0
  1 21  1  0  0  0  0
  1 24  1  0  0  0  0
  2 29  1  0  0  0  0
  3 11  1  0  0  0  0
  3 12  1  0  0  0  0
  3 13  1  0  0  0  0
  4 13  2  0  0  0  0
  4 14  1  0  0  0  0
  5 13  1  0  0  0  0
  5 40  1  0  0  0  0
  5 41  1  0  0  0  0
  6 18  1  0  0  0  0
  6 21  1  0  0  0  0
  6 23  1  0  0  0  0
  7 20  1  0  0  0  0
  7 21  2  0  0  0  0
  8  9  1  0  0  0  0
  8 10  1  0  0  0  0
  8 11  1  0  0  0  0
  8 30  1  0  0  0  0
  9 10  1  0  0  0  0
  9 31  1  0  0  0  0
  9 32  1  0  0  0  0
 10 33  1  0  0  0  0
 10 34  1  0  0  0  0
 11 35  1  0  0  0  0
 11 36  1  0  0  0  0
 12 14  2  0  0  0  0
 12 15  1  0  0  0  0
 14 17  1  0  0  0  0
 15 16  2  0  0  0  0
 15 37  1  0  0  0  0
 16 18  1  0  0  0  0
 16 19  1  0  0  0  0
 17 19  2  0  0  0  0
 17 38  1  0  0  0  0
 18 20  2  0  0  0  0
 19 39  1  0  0  0  0
 20 22  1  0  0  0  0
 22 25  2  0  0  0  0
 22 26  1  0  0  0  0
 23 24  2  0  0  0  0
 23 42  1  0  0  0  0
 24 43  1  0  0  0  0
 25 27  1  0  0  0  0
 25 44  1  0  0  0  0
 26 28  2  0  0  0  0
 26 45  1  0  0  0  0
 27 29  2  0  0  0  0
 27 46  1  0  0  0  0
 28 29  1  0  0  0  0
 28 47  1  0  0  0  0
M  END
> <PUBCHEM_COMPOUND_CID>
24952851

> <PUBCHEM_CONFORMER_RMSD>
0.8

> <PUBCHEM_CONFORMER_DIVERSEORDER>
1
7
13
17
5
16
2
19
15
18
14
3
11
4
6
8
12
10
9

> <PUBCHEM_MMFF94_PARTIAL_CHARGES>
45
1 -0.16
10 -0.2
11 0.35
12 -0.15
13 0.27
14 0.23
15 -0.15
16 0.05
17 -0.15
18 -0.2
19 -0.15
2 -0.19
20 0.17
21 0.24
22 0.05
23 -0.18
24 -0.05
25 -0.15
26 -0.15
27 -0.15
28 -0.15
29 0.19
3 0.05
30 0.1
31 0.1
32 0.1
33 0.1
34 0.1
37 0.15
38 0.15
39 0.15
4 -0.57
40 0.4
41 0.4
42 0.15
43 0.15
44 0.15
45 0.15
46 0.15
47 0.15
5 -0.88
6 0.33
7 -0.57
8 -0.19
9 -0.2

> <PUBCHEM_EFFECTIVE_ROTOR_COUNT>
4.6

> <PUBCHEM_PHARMACOPHORE_FEATURES>
8
1 5 donor
3 6 7 21 cation
4 3 4 5 13 cation
5 1 6 21 23 24 rings
5 3 4 12 13 14 rings
5 6 7 18 20 21 rings
6 12 14 15 16 17 19 rings
6 22 25 26 27 28 29 rings

> <PUBCHEM_HEAVY_ATOM_COUNT>
29

> <PUBCHEM_ATOM_DEF_STEREO_COUNT>
0

> <PUBCHEM_ATOM_UDEF_STEREO_COUNT>
0

> <PUBCHEM_BOND_DEF_STEREO_COUNT>
0

> <PUBCHEM_BOND_UDEF_STEREO_COUNT>
0

> <PUBCHEM_ISOTOPIC_ATOM_COUNT>
0

> <PUBCHEM_COMPONENT_COUNT>
1

> <PUBCHEM_CACTVS_TAUTO_COUNT>
2

> <PUBCHEM_CONFORMER_ID>
017CC01300000001

> <PUBCHEM_MMFF94_ENERGY>
74.3161

> <PUBCHEM_FEATURE_SELFOVERLAP>
40.958

> <PUBCHEM_SHAPE_FINGERPRINT>
10369192 42 16698892882502375042
10675989 125 18054511584810343633
10940486 97 17691128136905751790
1100329 8 18266177219326228809
11578080 2 17679548286936996869
12403259 327 12324533081423219126
12788726 201 18266752293824010117
13009979 54 17973425625401687411
133893 2 18126575750226362099
13402501 40 18053099820375034088
13965767 371 16318924293925113944
14068700 675 18335411332308150614
14787075 74 18191874624238631303
14790565 3 17981050717804117449
14931854 50 18336557113317771156
14932702 115 16966362417401295316
14955137 171 18198085650293426571
15297060 5 17121409542579335984
15420108 30 17183902472319513602
15968369 26 17975391809863034721
18681886 176 18340759404021207338
19311894 1 17764608525165007350
19319366 153 18113898226534630851
20642791 105 17686881840373549001
20642791 239 18409173229430095313
20642791 35 18269836592034509453
20775438 99 17192054766508118510
21033650 10 18050308976654301606
2132832 1 18116417177344999418
23557571 272 17844801499609243714
23559900 14 18338504266516435370
238918 7 16900177357604611539
3298306 158 17549262987384768317
463206 1 18409453569997441105
532947 4 17908986856796370725
5895379 119 18124604072617289070
6669772 16 17692807511967102245
70251023 43 18341060618187361010
7164475 11 18268148660875695534
7471813 234 18337379466527305110
9981440 41 17898295150420628410

> <PUBCHEM_SHAPE_MULTIPOLES>
568.48
8.78
5.62
1.6
2.6
6.11
-0.18
-6.56
5.21
-1.71
-2.17
-0.88
0.25
-1.63

> <PUBCHEM_SHAPE_SELFOVERLAP>
1276.669

> <PUBCHEM_SHAPE_VOLUME>
307.7

> <PUBCHEM_COORDINATE_TYPE>
2
5
10

$$$$
