46435372
  -OEChem-10062121543D

 42 45  0     0  0  0  0  0  0999 V2000
    1.5860   -1.9959    0.0916 O   0  0  0  0  0  0  0  0  0  0  0  0
    6.8234    2.0737   -0.1235 O   0  0  0  0  0  0  0  0  0  0  0  0
   -2.2127   -0.1867   -0.0001 N   0  0  0  0  0  0  0  0  0  0  0  0
   -1.7890    1.1066   -0.0718 N   0  0  0  0  0  0  0  0  0  0  0  0
   -1.2983   -2.4162    0.0965 N   0  0  0  0  0  0  0  0  0  0  0  0
    2.3775    0.2089   -0.0449 N   0  0  0  0  0  0  0  0  0  0  0  0
   -3.5348   -0.6633    0.0281 C   0  0  0  0  0  0  0  0  0  0  0  0
   -1.1261   -1.0662    0.0339 C   0  0  0  0  0  0  0  0  0  0  0  0
    0.0087   -0.2890   -0.0087 C   0  0  0  0  0  0  0  0  0  0  0  0
   -4.6898    0.2523    0.0069 C   0  0  0  0  0  0  0  0  0  0  0  0
   -0.4598    1.0284   -0.0727 C   0  0  0  0  0  0  0  0  0  0  0  0
   -3.7493   -1.9882    0.0897 C   0  0  0  0  0  0  0  0  0  0  0  0
    1.3585   -0.7668    0.0090 C   0  0  0  0  0  0  0  0  0  0  0  0
   -2.5273   -2.8297    0.1209 C   0  0  0  0  0  0  0  0  0  0  0  0
   -5.6285    0.1670   -1.0213 C   0  0  0  0  0  0  0  0  0  0  0  0
   -4.8440    1.2038    1.0149 C   0  0  0  0  0  0  0  0  0  0  0  0
    3.7838    0.0401   -0.0202 C   0  0  0  0  0  0  0  0  0  0  0  0
   -6.7216    1.0333   -1.0414 C   0  0  0  0  0  0  0  0  0  0  0  0
   -5.9369    2.0702    0.9949 C   0  0  0  0  0  0  0  0  0  0  0  0
    4.6213    1.1537   -0.0847 C   0  0  0  0  0  0  0  0  0  0  0  0
    4.3309   -1.2399    0.0688 C   0  0  0  0  0  0  0  0  0  0  0  0
   -6.8758    1.9850   -0.0333 C   0  0  0  0  0  0  0  0  0  0  0  0
    6.0060    0.9873   -0.0603 C   0  0  0  0  0  0  0  0  0  0  0  0
    5.7156   -1.4062    0.0932 C   0  0  0  0  0  0  0  0  0  0  0  0
    6.5531   -0.2926    0.0285 C   0  0  0  0  0  0  0  0  0  0  0  0
    8.2292    1.8308   -0.0941 C   0  0  0  0  0  0  0  0  0  0  0  0
    0.0967    1.9533   -0.1217 H   0  0  0  0  0  0  0  0  0  0  0  0
   -4.7197   -2.4654    0.1261 H   0  0  0  0  0  0  0  0  0  0  0  0
   -2.7156   -3.9148    0.1711 H   0  0  0  0  0  0  0  0  0  0  0  0
   -5.5235   -0.5635   -1.8199 H   0  0  0  0  0  0  0  0  0  0  0  0
   -4.1275    1.2808    1.8291 H   0  0  0  0  0  0  0  0  0  0  0  0
    2.0868    1.1810   -0.1087 H   0  0  0  0  0  0  0  0  0  0  0  0
   -7.4520    0.9680   -1.8425 H   0  0  0  0  0  0  0  0  0  0  0  0
   -6.0581    2.8101    1.7807 H   0  0  0  0  0  0  0  0  0  0  0  0
    4.2022    2.1548   -0.1542 H   0  0  0  0  0  0  0  0  0  0  0  0
    3.7487   -2.1487    0.1226 H   0  0  0  0  0  0  0  0  0  0  0  0
   -7.7268    2.6595   -0.0488 H   0  0  0  0  0  0  0  0  0  0  0  0
    6.1420   -2.4030    0.1625 H   0  0  0  0  0  0  0  0  0  0  0  0
    7.6186   -0.4940    0.0520 H   0  0  0  0  0  0  0  0  0  0  0  0
    8.5384    1.3705    0.8505 H   0  0  0  0  0  0  0  0  0  0  0  0
    8.5559    1.2519   -0.9647 H   0  0  0  0  0  0  0  0  0  0  0  0
    8.7266    2.8044   -0.1530 H   0  0  0  0  0  0  0  0  0  0  0  0
  1 13  2  0  0  0  0
  2 23  1  0  0  0  0
  2 26  1  0  0  0  0
  3  4  1  0  0  0  0
  3  7  1  0  0  0  0
  3  8  1  0  0  0  0
  4 11  2  0  0  0  0
  5  8  1  0  0  0  0
  5 14  2  0  0  0  0
  6 13  1  0  0  0  0
  6 17  1  0  0  0  0
  6 32  1  0  0  0  0
  7 10  1  0  0  0  0
  7 12  2  0  0  0  0
  8  9  2  0  0  0  0
  9 11  1  0  0  0  0
  9 13  1  0  0  0  0
 10 15  2  0  0  0  0
 10 16  1  0  0  0  0
 11 27  1  0  0  0  0
 12 14  1  0  0  0  0
 12 28  1  0  0  0  0
 14 29  1  0  0  0  0
 15 18  1  0  0  0  0
 15 30  1  0  0  0  0
 16 19  2  0  0  0  0
 16 31  1  0  0  0  0
 17 20  2  0  0  0  0
 17 21  1  0  0  0  0
 18 22  2  0  0  0  0
 18 33  1  0  0  0  0
 19 22  1  0  0  0  0
 19 34  1  0  0  0  0
 20 23  1  0  0  0  0
 20 35  1  0  0  0  0
 21 24  2  0  0  0  0
 21 36  1  0  0  0  0
 22 37  1  0  0  0  0
 23 25  2  0  0  0  0
 24 25  1  0  0  0  0
 24 38  1  0  0  0  0
 25 39  1  0  0  0  0
 26 40  1  0  0  0  0
 26 41  1  0  0  0  0
 26 42  1  0  0  0  0
M  END
> <PUBCHEM_COMPOUND_CID>
46435372

> <PUBCHEM_CONFORMER_RMSD>
0.8

> <PUBCHEM_CONFORMER_DIVERSEORDER>
2
27
14
18
24
28
10
29
19
6
26
16
25
4
7
13
20
1
3
23
17
5
21
15
8
30
12
22
9
11

> <PUBCHEM_MMFF94_PARTIAL_CHARGES>
39
1 -0.57
10 0.03
11 0.14
12 -0.14
13 0.72
14 0.38
15 -0.15
16 -0.15
17 0.12
18 -0.15
19 -0.15
2 -0.36
20 -0.15
21 -0.15
22 -0.15
23 0.08
24 -0.15
25 -0.15
26 0.28
27 0.15
28 0.15
29 0.06
3 0.6
30 0.15
31 0.15
32 0.37
33 0.15
34 0.15
35 0.15
36 0.15
37 0.15
38 0.15
39 0.15
4 -0.71
5 -0.58
6 -0.55
7 -0.06
8 -0.03
9 -0.09

> <PUBCHEM_EFFECTIVE_ROTOR_COUNT>
5

> <PUBCHEM_PHARMACOPHORE_FEATURES>
9
1 1 acceptor
1 2 acceptor
1 4 acceptor
1 5 acceptor
1 6 donor
5 3 4 8 9 11 rings
6 10 15 16 18 19 22 rings
6 17 20 21 23 24 25 rings
6 3 5 7 8 12 14 rings

> <PUBCHEM_HEAVY_ATOM_COUNT>
26

> <PUBCHEM_ATOM_DEF_STEREO_COUNT>
0

> <PUBCHEM_ATOM_UDEF_STEREO_COUNT>
0

> <PUBCHEM_BOND_DEF_STEREO_COUNT>
0

> <PUBCHEM_BOND_UDEF_STEREO_COUNT>
0

> <PUBCHEM_ISOTOPIC_ATOM_COUNT>
0

> <PUBCHEM_COMPONENT_COUNT>
1

> <PUBCHEM_CACTVS_TAUTO_COUNT>
2

> <PUBCHEM_CONFORMER_ID>
02C48C2C00000002

> <PUBCHEM_MMFF94_ENERGY>
85.769

> <PUBCHEM_FEATURE_SELFOVERLAP>
45.802

> <PUBCHEM_SHAPE_FINGERPRINT>
10 15 17967816045830249345
10066227 112 18409445894943637108
10411042 1 17834677480895597955
106641 1 18113907066009303561
10835480 77 18412260670933961704
10906281 52 18202014196137410631
11089746 13 17988920059434666225
11315181 36 18343865533196212841
12166972 35 11815893470464587210
12236239 1 18186518812974109546
12616971 3 16515689982849679502
12788726 201 17702666536549230641
13533116 47 18059290951381191450
13668630 136 12967122818186344821
13782708 43 11025797608846953736
14790565 3 18195531389949761977
15021287 119 17095245851874290973
15183329 4 18272932704513279688
15276724 80 18336260150610226692
15400415 2 18409448115927207698
15461852 350 17703788158626474085
1577012 14 18334573564698380434
17093844 174 18334012830473239595
17980427 23 18334016133060653631
18608769 82 18411704327263097955
20281389 69 18186800257849080437
21033648 29 17987786527856229240
21130935 74 18334856130491978426
21150785 3 16773793710288000269
21236236 1 18411699915867363623
21298829 104 18409732867779316596
22288116 15 17632284718997467815
23081809 10 18412819201192105166
23559900 14 18270674376338846040
23576562 1 17273684554422144636
300161 21 18408884057782124462
335352 9 18410011026676738903
34934 24 18335698334644105163
397830 11 16226913166424979409
4073 2 18187369869840434954
4169191 19 18411419505420063261
4340502 62 16371012858284867891
5104073 3 18260266373701072594
6328613 192 18411982463868311297
636775 72 18343580763505664552
7226269 152 18272654519956381961

> <PUBCHEM_SHAPE_MULTIPOLES>
503.41
21.92
2.5
0.77
18.61
0.76
0.01
-14.76
1.26
-0.83
-0.23
-0.98
-0.18
-0.52

> <PUBCHEM_SHAPE_SELFOVERLAP>
1114.345

> <PUBCHEM_SHAPE_VOLUME>
268.6

> <PUBCHEM_COORDINATE_TYPE>
2
5
10

$$$$
