3453237
  -OEChem-10052115143D

 42 45  0     0  0  0  0  0  0999 V2000
   -5.7657   -0.2761   -0.0303 O   0  0  0  0  0  0  0  0  0  0  0  0
    6.7649   -0.9842    0.0021 O   0  0  0  0  0  0  0  0  0  0  0  0
    1.0039    1.3588    0.0177 O   0  0  0  0  0  0  0  0  0  0  0  0
   -2.3900   -1.1214   -0.0028 N   0  0  0  0  0  0  0  0  0  0  0  0
   -1.6941   -2.2698   -0.0014 N   0  0  0  0  0  0  0  0  0  0  0  0
   -0.4047   -1.9497    0.0104 N   0  0  0  0  0  0  0  0  0  0  0  0
    2.1181   -0.6710    0.0362 N   0  0  0  0  0  0  0  0  0  0  0  0
   -4.4121    0.0659   -0.0172 N   0  0  0  0  0  0  0  0  0  0  0  0
    3.3299   -0.0718    0.0303 N   0  0  0  0  0  0  0  0  0  0  0  0
   -5.9366   -1.6618   -0.0367 N   0  0  0  0  0  0  0  0  0  0  0  0
   -4.3409   -3.4569   -0.0277 N   0  0  0  0  0  0  0  0  0  0  0  0
   -1.5684   -0.0358    0.0081 C   0  0  0  0  0  0  0  0  0  0  0  0
   -2.0080    1.3383    0.0095 C   0  0  0  0  0  0  0  0  0  0  0  0
   -0.3106   -0.5857    0.0164 C   0  0  0  0  0  0  0  0  0  0  0  0
   -3.7958   -1.1035   -0.0153 C   0  0  0  0  0  0  0  0  0  0  0  0
   -2.2107    2.0077   -1.1973 C   0  0  0  0  0  0  0  0  0  0  0  0
   -2.2291    1.9975    1.2185 C   0  0  0  0  0  0  0  0  0  0  0  0
    0.9429    0.1038    0.0293 C   0  0  0  0  0  0  0  0  0  0  0  0
   -2.6347    3.3367   -1.1950 C   0  0  0  0  0  0  0  0  0  0  0  0
   -2.6532    3.3264    1.2209 C   0  0  0  0  0  0  0  0  0  0  0  0
   -4.6968   -2.1483   -0.0268 C   0  0  0  0  0  0  0  0  0  0  0  0
   -2.8559    3.9960    0.0141 C   0  0  0  0  0  0  0  0  0  0  0  0
    4.3870   -0.8292    0.0371 C   0  0  0  0  0  0  0  0  0  0  0  0
    5.7187   -0.1646   -0.0075 C   0  0  0  0  0  0  0  0  0  0  0  0
    4.3586   -2.3443    0.0882 C   0  0  0  0  0  0  0  0  0  0  0  0
    6.0153    1.1337   -0.0559 C   0  0  0  0  0  0  0  0  0  0  0  0
    7.4301    1.1612   -0.0808 C   0  0  0  0  0  0  0  0  0  0  0  0
    7.8382   -0.1518   -0.0440 C   0  0  0  0  0  0  0  0  0  0  0  0
   -2.0422    1.5081   -2.1483 H   0  0  0  0  0  0  0  0  0  0  0  0
   -2.0753    1.4901    2.1679 H   0  0  0  0  0  0  0  0  0  0  0  0
   -2.7926    3.8580   -2.1346 H   0  0  0  0  0  0  0  0  0  0  0  0
   -2.8255    3.8398    2.1623 H   0  0  0  0  0  0  0  0  0  0  0  0
   -3.1861    5.0307    0.0160 H   0  0  0  0  0  0  0  0  0  0  0  0
    2.0730   -1.6837    0.0356 H   0  0  0  0  0  0  0  0  0  0  0  0
    3.8000   -2.6671    0.9723 H   0  0  0  0  0  0  0  0  0  0  0  0
    3.8611   -2.7251   -0.8092 H   0  0  0  0  0  0  0  0  0  0  0  0
    5.3504   -2.7964    0.1405 H   0  0  0  0  0  0  0  0  0  0  0  0
    5.3442    1.9802   -0.0728 H   0  0  0  0  0  0  0  0  0  0  0  0
   -3.3748   -3.7692   -0.0198 H   0  0  0  0  0  0  0  0  0  0  0  0
   -5.0328   -4.1999   -0.0364 H   0  0  0  0  0  0  0  0  0  0  0  0
    8.0723    2.0292   -0.1206 H   0  0  0  0  0  0  0  0  0  0  0  0
    8.8045   -0.6347   -0.0442 H   0  0  0  0  0  0  0  0  0  0  0  0
  1  8  1  0  0  0  0
  1 10  1  0  0  0  0
  2 24  1  0  0  0  0
  2 28  1  0  0  0  0
  3 18  2  0  0  0  0
  4  5  1  0  0  0  0
  4 12  1  0  0  0  0
  4 15  1  0  0  0  0
  5  6  2  0  0  0  0
  6 14  1  0  0  0  0
  7  9  1  0  0  0  0
  7 18  1  0  0  0  0
  7 34  1  0  0  0  0
  8 15  2  0  0  0  0
  9 23  2  3  0  0  0
 10 21  2  0  0  0  0
 11 21  1  0  0  0  0
 11 39  1  0  0  0  0
 11 40  1  0  0  0  0
 12 13  1  0  0  0  0
 12 14  2  0  0  0  0
 13 16  2  0  0  0  0
 13 17  1  0  0  0  0
 14 18  1  0  0  0  0
 15 21  1  0  0  0  0
 16 19  1  0  0  0  0
 16 29  1  0  0  0  0
 17 20  2  0  0  0  0
 17 30  1  0  0  0  0
 19 22  2  0  0  0  0
 19 31  1  0  0  0  0
 20 22  1  0  0  0  0
 20 32  1  0  0  0  0
 22 33  1  0  0  0  0
 23 24  1  0  0  0  0
 23 25  1  0  0  0  0
 24 26  2  0  0  0  0
 25 35  1  0  0  0  0
 25 36  1  0  0  0  0
 25 37  1  0  0  0  0
 26 27  1  0  0  0  0
 26 38  1  0  0  0  0
 27 28  2  0  0  0  0
 27 41  1  0  0  0  0
 28 42  1  0  0  0  0
M  END
> <PUBCHEM_COMPOUND_CID>
3453237

> <PUBCHEM_CONFORMER_RMSD>
0.8

> <PUBCHEM_CONFORMER_DIVERSEORDER>
1
13
6
14
16
2
11
7
3
8
19
4
17
15
12
10
5
18
9

> <PUBCHEM_MMFF94_PARTIAL_CHARGES>
39
1 0.24
10 -0.41
11 -0.88
12 -0.2
13 0.05
14 0.14
15 0.21
16 -0.15
17 -0.15
18 0.72
19 -0.15
2 -0.28
20 -0.15
21 0.37
22 -0.15
23 0.47
24 0.05
25 0.06
26 -0.15
27 -0.15
28 -0.01
29 0.15
3 -0.57
30 0.15
31 0.15
32 0.15
33 0.15
34 0.37
38 0.15
39 0.4
4 0.65
40 0.4
41 0.15
42 0.15
5 -0.42
6 -0.23
7 -0.37
8 -0.41
9 -0.51

> <PUBCHEM_EFFECTIVE_ROTOR_COUNT>
6

> <PUBCHEM_PHARMACOPHORE_FEATURES>
11
1 11 donor
1 2 acceptor
1 3 acceptor
1 7 donor
1 9 acceptor
3 10 11 21 cation
3 4 8 15 cation
5 1 8 10 15 21 rings
5 2 24 26 27 28 rings
5 4 5 6 12 14 rings
6 13 16 17 19 20 22 rings

> <PUBCHEM_HEAVY_ATOM_COUNT>
28

> <PUBCHEM_ATOM_DEF_STEREO_COUNT>
0

> <PUBCHEM_ATOM_UDEF_STEREO_COUNT>
0

> <PUBCHEM_BOND_DEF_STEREO_COUNT>
0

> <PUBCHEM_BOND_UDEF_STEREO_COUNT>
1

> <PUBCHEM_ISOTOPIC_ATOM_COUNT>
0

> <PUBCHEM_COMPONENT_COUNT>
1

> <PUBCHEM_CACTVS_TAUTO_COUNT>
4

> <PUBCHEM_CONFORMER_ID>
0034B13500000001

> <PUBCHEM_MMFF94_ENERGY>
63.2742

> <PUBCHEM_FEATURE_SELFOVERLAP>
55.893

> <PUBCHEM_SHAPE_FINGERPRINT>
10050765 1 18266459793914865422
100830 39 18410292472274805076
10411042 1 18194683903009154243
10595046 47 18408040706926126010
11101153 10 18336267954782210996
11524674 6 16487257707235188958
12107183 9 17831575371771499818
12390115 104 18269283374102746304
12788726 201 18334287673968087907
13073987 5 18337389345236714514
13383668 251 16986285409392549066
13631057 29 18410852178841907979
14068700 675 18335138755939071429
14118638 360 18334856091968679762
14347332 77 18410855499141979580
14713325 29 18341897338151177817
14790565 3 17547575872839238456
15131766 46 15264781191375188441
15338160 23 17988092101610095033
16087824 20 18337390441092055325
17844677 252 18411425012385528236
18608769 82 18341328985208292362
19427546 20 18408322164105996957
21236236 1 18411699850698828253
21267235 1 18336549434359746467
21315763 129 18410292515472248556
21315763 28 18409448082010100250
21315764 268 18340483456941310312
23559900 14 18268141127344575632
249057 25 17895201013194466908
283562 15 18408321064968928667
335352 9 18411132563957267783
34797466 226 17703517679546957436
350125 39 18411982455341810065
4073 2 17968381268860945026
4409770 3 18336537241110500133
445580 37 18408895027460901812
497634 4 18334010567004596580
5080951 261 16414609649931033998
5104073 3 18261955125288544722
550186 72 18410856551340693988
5969126 39 18342449370513991461
6327066 14 18045777888629828981
7226269 152 18334855030858641155
7237137 82 18409729547357860900

> <PUBCHEM_SHAPE_MULTIPOLES>
518.77
17.68
3.91
0.81
35.71
2.03
0.01
-3.66
-0.34
-6.91
0.01
-0.56
0.62
-0.15

> <PUBCHEM_SHAPE_SELFOVERLAP>
1146.16

> <PUBCHEM_SHAPE_VOLUME>
278.4

> <PUBCHEM_COORDINATE_TYPE>
2
5
10

$$$$
