49830676
  -OEChem-10062121543D

 31 34  0     0  0  0  0  0  0999 V2000
    6.7664    0.2848    0.5087 Br  0  0  0  0  0  0  0  0  0  0  0  0
   -3.5306   -3.3736    0.3400 F   0  0  0  0  0  0  0  0  0  0  0  0
   -2.7728    2.0112   -0.1447 N   0  0  0  0  0  0  0  0  0  0  0  0
    1.0749   -0.6774   -0.5318 N   0  0  0  0  0  0  0  0  0  0  0  0
    3.3055   -1.6060   -0.7152 N   0  0  0  0  0  0  0  0  0  0  0  0
    4.0453    0.9027    0.4987 N   0  0  0  0  0  0  0  0  0  0  0  0
   -0.9033    0.8169   -0.0671 C   0  0  0  0  0  0  0  0  0  0  0  0
   -2.0065   -0.0768    0.0276 C   0  0  0  0  0  0  0  0  0  0  0  0
   -3.1673    0.6979   -0.0233 C   0  0  0  0  0  0  0  0  0  0  0  0
    0.5304    0.4920   -0.0603 C   0  0  0  0  0  0  0  0  0  0  0  0
   -1.4063    2.0933   -0.1721 C   0  0  0  0  0  0  0  0  0  0  0  0
    1.5543    1.2889    0.4090 C   0  0  0  0  0  0  0  0  0  0  0  0
   -2.1292   -1.4749    0.1521 C   0  0  0  0  0  0  0  0  0  0  0  0
   -4.4498    0.1422    0.0445 C   0  0  0  0  0  0  0  0  0  0  0  0
    2.4329   -0.6411   -0.3711 C   0  0  0  0  0  0  0  0  0  0  0  0
    2.7593    0.5752    0.2139 C   0  0  0  0  0  0  0  0  0  0  0  0
   -3.6598    3.1512   -0.2335 C   0  0  0  0  0  0  0  0  0  0  0  0
   -3.4058   -2.0448    0.2210 C   0  0  0  0  0  0  0  0  0  0  0  0
   -4.5469   -1.2467    0.1680 C   0  0  0  0  0  0  0  0  0  0  0  0
    4.5768   -1.2595   -0.4234 C   0  0  0  0  0  0  0  0  0  0  0  0
    4.9325   -0.0555    0.1591 C   0  0  0  0  0  0  0  0  0  0  0  0
   -0.9094    3.0504   -0.2662 H   0  0  0  0  0  0  0  0  0  0  0  0
    0.5630   -1.4407   -0.9516 H   0  0  0  0  0  0  0  0  0  0  0  0
    1.4519    2.2733    0.8461 H   0  0  0  0  0  0  0  0  0  0  0  0
   -1.2583   -2.1204    0.2058 H   0  0  0  0  0  0  0  0  0  0  0  0
   -5.3421    0.7578    0.0037 H   0  0  0  0  0  0  0  0  0  0  0  0
   -4.2910    3.0288   -1.1174 H   0  0  0  0  0  0  0  0  0  0  0  0
   -4.2665    3.1875    0.6749 H   0  0  0  0  0  0  0  0  0  0  0  0
   -3.0722    4.0685   -0.3228 H   0  0  0  0  0  0  0  0  0  0  0  0
   -5.5283   -1.7106    0.2233 H   0  0  0  0  0  0  0  0  0  0  0  0
    5.3169   -2.0097   -0.6843 H   0  0  0  0  0  0  0  0  0  0  0  0
  1 21  1  0  0  0  0
  2 18  1  0  0  0  0
  3  9  1  0  0  0  0
  3 11  1  0  0  0  0
  3 17  1  0  0  0  0
  4 10  1  0  0  0  0
  4 15  1  0  0  0  0
  4 23  1  0  0  0  0
  5 15  2  0  0  0  0
  5 20  1  0  0  0  0
  6 16  2  0  0  0  0
  6 21  1  0  0  0  0
  7  8  1  0  0  0  0
  7 10  1  0  0  0  0
  7 11  2  0  0  0  0
  8  9  2  0  0  0  0
  8 13  1  0  0  0  0
  9 14  1  0  0  0  0
 10 12  2  0  0  0  0
 11 22  1  0  0  0  0
 12 16  1  0  0  0  0
 12 24  1  0  0  0  0
 13 18  2  0  0  0  0
 13 25  1  0  0  0  0
 14 19  2  0  0  0  0
 14 26  1  0  0  0  0
 15 16  1  0  0  0  0
 17 27  1  0  0  0  0
 17 28  1  0  0  0  0
 17 29  1  0  0  0  0
 18 19  1  0  0  0  0
 19 30  1  0  0  0  0
 20 21  2  0  0  0  0
 20 31  1  0  0  0  0
M  END
> <PUBCHEM_COMPOUND_CID>
49830676

> <PUBCHEM_CONFORMER_RMSD>
0.6

> <PUBCHEM_CONFORMER_DIVERSEORDER>
1
3
5
2
6
4

> <PUBCHEM_MMFF94_PARTIAL_CHARGES>
26
1 -0.11
10 -0.15
11 -0.3
12 -0.15
13 -0.15
14 -0.15
15 0.11
16 0.26
17 0.26
18 0.19
19 -0.15
2 -0.19
20 0.16
21 0.42
22 0.15
23 0.27
24 0.15
25 0.15
26 0.15
3 0.05
30 0.15
31 0.15
4 0.03
5 -0.57
6 -0.57
9 -0.15

> <PUBCHEM_EFFECTIVE_ROTOR_COUNT>
1

> <PUBCHEM_PHARMACOPHORE_FEATURES>
9
1 1 hydrophobe
1 3 cation
1 4 donor
1 6 acceptor
3 4 5 15 cation
5 3 7 8 9 11 rings
5 4 10 12 15 16 rings
6 5 6 15 16 20 21 rings
6 8 9 13 14 18 19 rings

> <PUBCHEM_HEAVY_ATOM_COUNT>
21

> <PUBCHEM_ATOM_DEF_STEREO_COUNT>
0

> <PUBCHEM_ATOM_UDEF_STEREO_COUNT>
0

> <PUBCHEM_BOND_DEF_STEREO_COUNT>
0

> <PUBCHEM_BOND_UDEF_STEREO_COUNT>
0

> <PUBCHEM_ISOTOPIC_ATOM_COUNT>
0

> <PUBCHEM_COMPONENT_COUNT>
1

> <PUBCHEM_CACTVS_TAUTO_COUNT>
3

> <PUBCHEM_CONFORMER_ID>
02F85B1400000001

> <PUBCHEM_MMFF94_ENERGY>
38.0003

> <PUBCHEM_FEATURE_SELFOVERLAP>
45.896

> <PUBCHEM_SHAPE_FINGERPRINT>
10 15 18200017561153720832
10319926 262 18267565963226598186
10411042 1 18121218946893479739
105312 117 17605543350543339309
10595046 47 18260831536005521876
10616163 171 18410577279486877943
10835480 77 18270954657800354048
11315181 36 18113054948154628876
12107183 9 17757543058907260954
12236239 1 17312821576312293104
12403259 415 18059848489834017336
12507560 40 18272087171797953404
12616971 3 16950574259480726124
13140716 1 18266187321632108545
13167823 11 18260545598230808226
13288520 33 18409448106735301744
13583140 156 17988634203612568444
13631057 29 18410854407961797554
13675066 3 18131626786227083032
13911882 115 18059866069087771510
14341114 176 18413113844453915368
14508225 48 18336815503336135765
15042514 8 18335990861156951707
15196674 1 18340487764402598478
15352361 1 18338799034706843503
15788980 27 16443062781785251294
17804303 29 18412549812295336013
17844677 252 18410862070610929256
1813 80 17531249482322962229
18927931 339 18409453613094729255
19141452 34 18271250512511882635
200 152 17561358478994897021
20510252 161 18342740668197374681
20645477 70 17346319224787102246
21033648 29 17560503046090128760
21065198 57 18411699846736098868
21065201 7 18336261258795554680
21267235 1 18335989765513068675
22122407 14 16056609793450703035
221490 88 18340490066426058328
23402539 116 18260260875957972318
23557571 272 18343306941975415492
23559900 14 18411973689266118680
26918003 58 18272369784561137434
335352 9 18409728474517935141
34797466 226 18059306439328705924
350125 39 18340770454982089640
3545911 37 18341895164934928528
4073 2 18335424556570341210
4214541 1 18410856525412277288
4325135 7 18261396676429181220
5104073 3 18270960146773190666
559249 180 18117273666585051826
573450 72 18187074019227830704
67856867 119 18115592689843219764
77779 3 18411420583778341476
9709674 26 18342743970420498895

> <PUBCHEM_SHAPE_MULTIPOLES>
410.91
12.76
2.66
0.7
15.13
0.09
0
1.67
-1.29
-4.33
0.02
0.28
0.03
1

> <PUBCHEM_SHAPE_SELFOVERLAP>
917.369

> <PUBCHEM_SHAPE_VOLUME>
226.2

> <PUBCHEM_COORDINATE_TYPE>
2
5
10

$$$$
