2044508
  -OEChem-10052115183D

 36 39  0     0  0  0  0  0  0999 V2000
    2.1972    2.3271    1.4332 S   0  0  0  0  0  0  0  0  0  0  0  0
   -6.9310   -1.6459   -0.0164 S   0  0  0  0  0  0  0  0  0  0  0  0
    5.7324   -0.0695   -0.0515 O   0  0  0  0  0  0  0  0  0  0  0  0
   -1.0913    1.4606   -0.0140 O   0  0  0  0  0  0  0  0  0  0  0  0
    2.3691   -0.9615    0.0021 N   0  0  0  0  0  0  0  0  0  0  0  0
    1.6900   -2.1198    0.0244 N   0  0  0  0  0  0  0  0  0  0  0  0
    0.3963   -1.8184    0.0349 N   0  0  0  0  0  0  0  0  0  0  0  0
    4.3743    0.2536   -0.0391 N   0  0  0  0  0  0  0  0  0  0  0  0
   -2.1299   -0.5934    0.0466 N   0  0  0  0  0  0  0  0  0  0  0  0
    5.9229   -1.4527   -0.0346 N   0  0  0  0  0  0  0  0  0  0  0  0
    4.3527   -3.2695    0.0091 N   0  0  0  0  0  0  0  0  0  0  0  0
   -3.3587   -0.0230    0.0282 N   0  0  0  0  0  0  0  0  0  0  0  0
    1.5308    0.1083   -0.0022 C   0  0  0  0  0  0  0  0  0  0  0  0
    1.9343    1.4684   -0.0247 C   0  0  0  0  0  0  0  0  0  0  0  0
    0.2822   -0.4560    0.0187 C   0  0  0  0  0  0  0  0  0  0  0  0
    3.7745   -0.9241   -0.0157 C   0  0  0  0  0  0  0  0  0  0  0  0
    2.1597    2.2528   -1.1346 C   0  0  0  0  0  0  0  0  0  0  0  0
   -0.9820    0.2142    0.0235 C   0  0  0  0  0  0  0  0  0  0  0  0
    4.6901   -1.9562   -0.0129 C   0  0  0  0  0  0  0  0  0  0  0  0
    2.5538    3.5762   -0.7831 C   0  0  0  0  0  0  0  0  0  0  0  0
    2.6143    3.7529    0.5816 C   0  0  0  0  0  0  0  0  0  0  0  0
   -5.7425   -0.4440   -0.0042 C   0  0  0  0  0  0  0  0  0  0  0  0
   -4.3331   -0.8735    0.0168 C   0  0  0  0  0  0  0  0  0  0  0  0
   -6.2121    0.8206   -0.0149 C   0  0  0  0  0  0  0  0  0  0  0  0
   -7.6367    0.8241   -0.0342 C   0  0  0  0  0  0  0  0  0  0  0  0
   -8.1574   -0.4511   -0.0370 C   0  0  0  0  0  0  0  0  0  0  0  0
    2.0496    1.9026   -2.1536 H   0  0  0  0  0  0  0  0  0  0  0  0
    2.7813    4.3588   -1.4951 H   0  0  0  0  0  0  0  0  0  0  0  0
    2.8836    4.6509    1.1193 H   0  0  0  0  0  0  0  0  0  0  0  0
   -2.0717   -1.6073    0.0640 H   0  0  0  0  0  0  0  0  0  0  0  0
    5.0549   -4.0028    0.0104 H   0  0  0  0  0  0  0  0  0  0  0  0
    3.3911   -3.5952    0.0250 H   0  0  0  0  0  0  0  0  0  0  0  0
   -4.1430   -1.9640    0.0220 H   0  0  0  0  0  0  0  0  0  0  0  0
   -5.6020    1.7147   -0.0096 H   0  0  0  0  0  0  0  0  0  0  0  0
   -8.2486    1.7167   -0.0454 H   0  0  0  0  0  0  0  0  0  0  0  0
   -9.1994   -0.7383   -0.0502 H   0  0  0  0  0  0  0  0  0  0  0  0
  1 14  1  0  0  0  0
  1 21  1  0  0  0  0
  2 22  1  0  0  0  0
  2 26  1  0  0  0  0
  3  8  1  0  0  0  0
  3 10  1  0  0  0  0
  4 18  2  0  0  0  0
  5  6  1  0  0  0  0
  5 13  1  0  0  0  0
  5 16  1  0  0  0  0
  6  7  2  0  0  0  0
  7 15  1  0  0  0  0
  8 16  2  0  0  0  0
  9 12  1  0  0  0  0
  9 18  1  0  0  0  0
  9 30  1  0  0  0  0
 10 19  2  0  0  0  0
 11 19  1  0  0  0  0
 11 31  1  0  0  0  0
 11 32  1  0  0  0  0
 12 23  2  3  0  0  0
 13 14  1  0  0  0  0
 13 15  2  0  0  0  0
 14 17  2  0  0  0  0
 15 18  1  0  0  0  0
 16 19  1  0  0  0  0
 17 20  1  0  0  0  0
 17 27  1  0  0  0  0
 20 21  2  0  0  0  0
 20 28  1  0  0  0  0
 21 29  1  0  0  0  0
 22 23  1  0  0  0  0
 22 24  2  0  0  0  0
 23 33  1  0  0  0  0
 24 25  1  0  0  0  0
 24 34  1  0  0  0  0
 25 26  2  0  0  0  0
 25 35  1  0  0  0  0
 26 36  1  0  0  0  0
M  END
> <PUBCHEM_COMPOUND_CID>
2044508

> <PUBCHEM_CONFORMER_RMSD>
0.8

> <PUBCHEM_CONFORMER_DIVERSEORDER>
1
45
34
41
5
33
13
19
29
14
37
8
20
36
30
12
27
7
42
2
35
18
32
24
38
43
25
28
17
21
11
6
23
31
40
22
44
16
26
9
15
10
46
3
39
4

> <PUBCHEM_MMFF94_PARTIAL_CHARGES>
36
1 -0.08
10 -0.41
11 -0.88
12 -0.51
13 -0.15
14 0.04
15 0.14
16 0.21
17 -0.15
18 0.72
19 0.37
2 -0.08
20 -0.15
21 -0.11
22 -0.05
23 0.47
24 -0.15
25 -0.15
26 -0.11
27 0.15
28 0.15
29 0.15
3 0.24
30 0.37
31 0.4
32 0.4
33 0.06
34 0.15
35 0.15
36 0.15
4 -0.57
5 0.65
6 -0.42
7 -0.23
8 -0.41
9 -0.37

> <PUBCHEM_EFFECTIVE_ROTOR_COUNT>
6

> <PUBCHEM_PHARMACOPHORE_FEATURES>
10
1 11 donor
1 12 acceptor
1 4 acceptor
1 9 donor
3 10 11 19 cation
3 5 8 16 cation
5 1 14 17 20 21 rings
5 2 22 24 25 26 rings
5 3 8 10 16 19 rings
5 5 6 7 13 15 rings

> <PUBCHEM_HEAVY_ATOM_COUNT>
26

> <PUBCHEM_ATOM_DEF_STEREO_COUNT>
0

> <PUBCHEM_ATOM_UDEF_STEREO_COUNT>
0

> <PUBCHEM_BOND_DEF_STEREO_COUNT>
0

> <PUBCHEM_BOND_UDEF_STEREO_COUNT>
1

> <PUBCHEM_ISOTOPIC_ATOM_COUNT>
0

> <PUBCHEM_COMPONENT_COUNT>
1

> <PUBCHEM_CACTVS_TAUTO_COUNT>
4

> <PUBCHEM_CONFORMER_ID>
001F325C00000001

> <PUBCHEM_MMFF94_ENERGY>
41.8767

> <PUBCHEM_FEATURE_SELFOVERLAP>
50.819

> <PUBCHEM_SHAPE_FINGERPRINT>
10050765 1 18194401327629285295
10162869 55 18271513287369655671
10411042 1 18194401096597759142
11475781 23 14404637442119697081
11719270 70 18131068208540528079
12166972 35 18272651229631670761
12236239 1 18131632283954130903
12616971 3 17989199378786012189
12623949 98 17345483570339016254
13533116 47 18412263969316007265
13878862 14 18265594611724186701
14170010 4 18412260653506166400
14849402 71 18410859901172637177
15419008 47 17676200256903810653
15849732 13 17918274242722010046
15927050 60 17981886655740787222
17844677 252 18410580583271224745
18681886 176 18343015592794967099
20028762 73 18272934899263258135
20612939 158 18410015463868786593
21049683 271 18334581243994794420
21267235 1 18341334388657173150
21315763 129 18410575068322259229
21315763 28 18411699899056324279
23081809 10 18059294366454633093
23559900 14 18408600379518735923
24771293 8 18128797811807971368
249057 25 17989215841506732961
249057 3 18342738528892250015
255183 451 18127981797844559238
3004659 81 18408881841752885057
3178227 256 18409456877444097275
335352 9 18409731772303894614
350125 39 18410293609866262149
4073 2 18041564762309726435
46194498 28 17821447975846405068
5104073 3 18409172147504201059
67856867 119 18342175600793083313
9999458 23 18260546757660961998

> <PUBCHEM_SHAPE_MULTIPOLES>
491.18
18.89
3.48
0.79
41.6
1.93
-0.07
-5.97
0.31
-6.55
-0.01
-0.42
0.51
0.05

> <PUBCHEM_SHAPE_SELFOVERLAP>
1057.711

> <PUBCHEM_SHAPE_VOLUME>
272.3

> <PUBCHEM_COORDINATE_TYPE>
2
5
10

$$$$
