5330279
  -OEChem-10062121593D

 63 67  0     0  0  0  0  0  0999 V2000
   -3.9980    2.3958    0.0686 O   0  0  0  0  0  0  0  0  0  0  0  0
   -6.7760    0.8701    1.1341 O   0  0  0  0  0  0  0  0  0  0  0  0
   -2.4123    0.7144    0.0201 N   0  0  0  0  0  0  0  0  0  0  0  0
   -0.8079   -1.0610    0.0031 N   0  0  0  0  0  0  0  0  0  0  0  0
    5.5890    0.0890    0.0300 N   0  0  0  0  0  0  0  0  0  0  0  0
    8.0179    1.5693   -0.2113 N   0  0  0  0  0  0  0  0  0  0  0  0
   -1.4889   -3.3558   -0.0090 N   0  0  0  0  0  0  0  0  0  0  0  0
    0.7828   -2.7840    0.0013 N   0  0  0  0  0  0  0  0  0  0  0  0
   -1.3046    1.6262    0.0325 C   0  0  0  0  0  0  0  0  0  0  0  0
   -1.3155    2.5540    1.2394 C   0  0  0  0  0  0  0  0  0  0  0  0
   -1.3146    2.5883   -1.1522 C   0  0  0  0  0  0  0  0  0  0  0  0
   -0.3511    3.6549    0.8279 C   0  0  0  0  0  0  0  0  0  0  0  0
   -0.5814    3.8410   -0.6699 C   0  0  0  0  0  0  0  0  0  0  0  0
   -2.1107   -0.6754    0.0001 C   0  0  0  0  0  0  0  0  0  0  0  0
   -3.7143    1.1965    0.0385 C   0  0  0  0  0  0  0  0  0  0  0  0
   -3.1594   -1.5870   -0.0153 C   0  0  0  0  0  0  0  0  0  0  0  0
   -4.8268    0.1861    0.0208 C   0  0  0  0  0  0  0  0  0  0  0  0
   -4.5703   -1.1382   -0.0259 C   0  0  0  0  0  0  0  0  0  0  0  0
   -2.7679   -2.9243   -0.0143 C   0  0  0  0  0  0  0  0  0  0  0  0
   -5.6134   -2.2291   -0.1034 C   0  0  0  0  0  0  0  0  0  0  0  0
    6.7604   -0.5184   -0.6161 C   0  0  0  0  0  0  0  0  0  0  0  0
    5.5600    1.5556    0.0449 C   0  0  0  0  0  0  0  0  0  0  0  0
   -6.2160    0.6884    0.0580 C   0  0  0  0  0  0  0  0  0  0  0  0
   -0.5706   -2.3826   -0.0023 C   0  0  0  0  0  0  0  0  0  0  0  0
    8.0490    0.1125   -0.0899 C   0  0  0  0  0  0  0  0  0  0  0  0
    6.8920    2.1131    0.5462 C   0  0  0  0  0  0  0  0  0  0  0  0
    4.3875   -0.6287    0.0237 C   0  0  0  0  0  0  0  0  0  0  0  0
    1.9907   -2.0614    0.0091 C   0  0  0  0  0  0  0  0  0  0  0  0
   -6.8909    0.9683   -1.2542 C   0  0  0  0  0  0  0  0  0  0  0  0
    4.3232   -1.8863    0.6235 C   0  0  0  0  0  0  0  0  0  0  0  0
    3.2546   -0.0867   -0.5834 C   0  0  0  0  0  0  0  0  0  0  0  0
    3.1260   -2.6021    0.6162 C   0  0  0  0  0  0  0  0  0  0  0  0
    2.0574   -0.8024   -0.5906 C   0  0  0  0  0  0  0  0  0  0  0  0
   -0.3358    1.1169    0.0281 H   0  0  0  0  0  0  0  0  0  0  0  0
   -2.2871    2.9982    1.4682 H   0  0  0  0  0  0  0  0  0  0  0  0
   -0.9795    2.0412    2.1471 H   0  0  0  0  0  0  0  0  0  0  0  0
   -0.8037    2.1423   -2.0136 H   0  0  0  0  0  0  0  0  0  0  0  0
   -2.3105    2.8653   -1.5090 H   0  0  0  0  0  0  0  0  0  0  0  0
    0.6820    3.3316    1.0045 H   0  0  0  0  0  0  0  0  0  0  0  0
   -0.5101    4.5799    1.3901 H   0  0  0  0  0  0  0  0  0  0  0  0
    0.3680    3.9812   -1.1971 H   0  0  0  0  0  0  0  0  0  0  0  0
   -1.1950    4.7293   -0.8575 H   0  0  0  0  0  0  0  0  0  0  0  0
   -3.4879   -3.7368   -0.0197 H   0  0  0  0  0  0  0  0  0  0  0  0
    6.8104   -1.5982   -0.4351 H   0  0  0  0  0  0  0  0  0  0  0  0
    6.6860   -0.3757   -1.7020 H   0  0  0  0  0  0  0  0  0  0  0  0
    5.3609    1.9348   -0.9657 H   0  0  0  0  0  0  0  0  0  0  0  0
    4.7662    1.9215    0.7080 H   0  0  0  0  0  0  0  0  0  0  0  0
   -5.5555   -2.8851    0.7720 H   0  0  0  0  0  0  0  0  0  0  0  0
   -5.4846   -2.8272   -1.0121 H   0  0  0  0  0  0  0  0  0  0  0  0
   -6.6334   -1.8345   -0.1310 H   0  0  0  0  0  0  0  0  0  0  0  0
    8.8992   -0.2757   -0.6612 H   0  0  0  0  0  0  0  0  0  0  0  0
    8.2090   -0.1719    0.9578 H   0  0  0  0  0  0  0  0  0  0  0  0
    7.0177    1.8895    1.6131 H   0  0  0  0  0  0  0  0  0  0  0  0
    6.8862    3.2040    0.4462 H   0  0  0  0  0  0  0  0  0  0  0  0
    8.8876    1.9558    0.1549 H   0  0  0  0  0  0  0  0  0  0  0  0
    0.8907   -3.7850    0.1348 H   0  0  0  0  0  0  0  0  0  0  0  0
   -6.2335    0.7271   -2.0944 H   0  0  0  0  0  0  0  0  0  0  0  0
   -7.1479    2.0293   -1.3072 H   0  0  0  0  0  0  0  0  0  0  0  0
   -7.7939    0.3574   -1.3330 H   0  0  0  0  0  0  0  0  0  0  0  0
    5.1911   -2.3196    1.1138 H   0  0  0  0  0  0  0  0  0  0  0  0
    3.2754    0.8787   -1.0812 H   0  0  0  0  0  0  0  0  0  0  0  0
    3.0882   -3.5795    1.0904 H   0  0  0  0  0  0  0  0  0  0  0  0
    1.2169   -0.3671   -1.1204 H   0  0  0  0  0  0  0  0  0  0  0  0
  1 15  2  0  0  0  0
  2 23  2  0  0  0  0
  3  9  1  0  0  0  0
  3 14  1  0  0  0  0
  3 15  1  0  0  0  0
  4 14  2  0  0  0  0
  4 24  1  0  0  0  0
  5 21  1  0  0  0  0
  5 22  1  0  0  0  0
  5 27  1  0  0  0  0
  6 25  1  0  0  0  0
  6 26  1  0  0  0  0
  6 55  1  0  0  0  0
  7 19  1  0  0  0  0
  7 24  2  0  0  0  0
  8 24  1  0  0  0  0
  8 28  1  0  0  0  0
  8 56  1  0  0  0  0
  9 10  1  0  0  0  0
  9 11  1  0  0  0  0
  9 34  1  0  0  0  0
 10 12  1  0  0  0  0
 10 35  1  0  0  0  0
 10 36  1  0  0  0  0
 11 13  1  0  0  0  0
 11 37  1  0  0  0  0
 11 38  1  0  0  0  0
 12 13  1  0  0  0  0
 12 39  1  0  0  0  0
 12 40  1  0  0  0  0
 13 41  1  0  0  0  0
 13 42  1  0  0  0  0
 14 16  1  0  0  0  0
 15 17  1  0  0  0  0
 16 18  1  0  0  0  0
 16 19  2  0  0  0  0
 17 18  2  0  0  0  0
 17 23  1  0  0  0  0
 18 20  1  0  0  0  0
 19 43  1  0  0  0  0
 20 48  1  0  0  0  0
 20 49  1  0  0  0  0
 20 50  1  0  0  0  0
 21 25  1  0  0  0  0
 21 44  1  0  0  0  0
 21 45  1  0  0  0  0
 22 26  1  0  0  0  0
 22 46  1  0  0  0  0
 22 47  1  0  0  0  0
 23 29  1  0  0  0  0
 25 51  1  0  0  0  0
 25 52  1  0  0  0  0
 26 53  1  0  0  0  0
 26 54  1  0  0  0  0
 27 30  2  0  0  0  0
 27 31  1  0  0  0  0
 28 32  2  0  0  0  0
 28 33  1  0  0  0  0
 29 57  1  0  0  0  0
 29 58  1  0  0  0  0
 29 59  1  0  0  0  0
 30 32  1  0  0  0  0
 30 60  1  0  0  0  0
 31 33  2  0  0  0  0
 31 61  1  0  0  0  0
 32 62  1  0  0  0  0
 33 63  1  0  0  0  0
M  END
> <PUBCHEM_COMPOUND_CID>
5330279

> <PUBCHEM_CONFORMER_RMSD>
1

> <PUBCHEM_CONFORMER_DIVERSEORDER>
1
8
16
4
12
7
10
2
14
5
18
13
9
11
17
15
19
6
3

> <PUBCHEM_MMFF94_PARTIAL_CHARGES>
36
1 -0.57
14 0.43
15 0.62
16 0.03
17 0.03
18 -0.17
19 0.16
2 -0.57
20 0.14
21 0.37
22 0.37
23 0.49
24 0.72
25 0.27
26 0.27
27 0.1
28 0.1
29 0.06
3 -0.48
30 -0.15
31 -0.15
32 -0.15
33 -0.15
4 -0.62
43 0.15
5 -0.84
55 0.36
56 0.4
6 -0.9
60 0.15
61 0.15
62 0.15
63 0.15
7 -0.62
8 -0.6
9 0.3

> <PUBCHEM_EFFECTIVE_ROTOR_COUNT>
7.2

> <PUBCHEM_PHARMACOPHORE_FEATURES>
12
1 1 acceptor
1 2 acceptor
1 5 cation
1 6 cation
1 6 donor
1 8 donor
4 4 7 8 24 cation
5 9 10 11 12 13 rings
6 27 28 30 31 32 33 rings
6 3 14 15 16 17 18 rings
6 4 7 14 16 19 24 rings
6 5 6 21 22 25 26 rings

> <PUBCHEM_HEAVY_ATOM_COUNT>
33

> <PUBCHEM_ATOM_DEF_STEREO_COUNT>
0

> <PUBCHEM_ATOM_UDEF_STEREO_COUNT>
0

> <PUBCHEM_BOND_DEF_STEREO_COUNT>
0

> <PUBCHEM_BOND_UDEF_STEREO_COUNT>
0

> <PUBCHEM_ISOTOPIC_ATOM_COUNT>
0

> <PUBCHEM_COMPONENT_COUNT>
1

> <PUBCHEM_CACTVS_TAUTO_COUNT>
33

> <PUBCHEM_CONFORMER_ID>
0051556700000001

> <PUBCHEM_MMFF94_ENERGY>
116.6873

> <PUBCHEM_FEATURE_SELFOVERLAP>
60.928

> <PUBCHEM_SHAPE_FINGERPRINT>
10 15 18113057125223032786
10006869 2 18338787919252347358
100830 39 18410011023531894516
10290309 65 18262512581377978783
10411042 1 17834395997223594151
10454371 7 18272096006777796308
10670039 82 18337964398581945726
1100329 8 18411141364076036707
11049842 53 17758957417392838913
12838862 33 18337093623104448813
13402501 40 18343300396893545384
14117953 113 18335422361388691164
14394314 77 18410578370841185265
14765038 42 18129679507857766777
14790565 3 17476645278884633673
14840074 17 18060129925855069277
15001296 14 18189051061958690888
15274700 259 17751614617297724933
15276724 80 18339640031983859773
15320467 1 18410574007265247200
15419008 145 18261377912265561480
1577012 14 18335415764081780658
15927050 60 17838054071896371885
15961568 22 18410858754885029966
16992787 43 18338513046231376885
17899979 19 18333732416390991405
18336668 15 18114184176555475637
18608769 82 18412544340259185194
19611394 137 17971203752835796235
20511986 3 18113888356061253511
20642791 178 18189068606915536413
21033648 29 18059281180778603194
21304303 64 18408888425985319745
21814621 53 15937529244199530251
23559900 14 18270674398004034833
24771293 8 18272375244345713953
3178227 256 18337406968072800627
335352 9 18411976963133348741
350125 39 18410572881941020010
3918712 181 18336546131846653876
4073 2 18041565845047946242
4197921 191 18333453137049351860
44249763 50 17559660923879833634
46194498 28 17773323335889590430
5047190 69 18341887546317132104
57527585 21 17272556236337983597
59567204 34 18411419539921830028
6009941 240 17458064872203646147
6036956 94 18334584563524953509
9961470 85 18123746728167723928

> <PUBCHEM_SHAPE_MULTIPOLES>
637.5
19.41
4.32
0.88
22.77
1.16
0
4.59
-0.86
-1.36
0.32
-0.37
0.4
0

> <PUBCHEM_SHAPE_SELFOVERLAP>
1383.138

> <PUBCHEM_SHAPE_VOLUME>
344

> <PUBCHEM_COORDINATE_TYPE>
2
5
10

$$$$
