54764923
  -OEChem-10052115173D

 71 73  0     1  0  0  0  0  0999 V2000
    2.5746    2.9967   -0.8194 O   0  0  0  0  0  0  0  0  0  0  0  0
    6.4656   -3.6612   -0.9573 O   0  0  0  0  0  0  0  0  0  0  0  0
   -1.2939    1.3717   -0.2557 C   0  0  1  0  0  0  0  0  0  0  0  0
   -0.0744    0.5776    0.2644 C   0  0  2  0  0  0  0  0  0  0  0  0
   -2.4141    0.6459    0.5283 C   0  0  2  0  0  0  0  0  0  0  0  0
    1.2446    1.0186   -0.3750 C   0  0  1  0  0  0  0  0  0  0  0  0
   -0.5104   -0.8786    0.1342 C   0  0  0  0  0  0  0  0  0  0  0  0
   -1.0946    2.8478    0.1240 C   0  0  0  0  0  0  0  0  0  0  0  0
   -2.0213   -0.8469    0.4313 C   0  0  0  0  0  0  0  0  0  0  0  0
    1.4477    2.5255   -0.0832 C   0  0  2  0  0  0  0  0  0  0  0  0
    0.2273    3.3941   -0.4329 C   0  0  0  0  0  0  0  0  0  0  0  0
   -1.5149    1.2531   -1.7845 C   0  0  0  0  0  0  0  0  0  0  0  0
   -3.8434    0.9126    0.0786 C   0  0  2  0  0  0  0  0  0  0  0  0
    2.4274    0.1981    0.1503 C   0  0  0  0  0  0  0  0  0  0  0  0
   -4.3468    2.2492    0.6289 C   0  0  0  0  0  0  0  0  0  0  0  0
    3.6296    0.3165   -0.7798 C   0  0  0  0  0  0  0  0  0  0  0  0
   -4.7543   -0.2044    0.5273 C   0  0  0  0  0  0  0  0  0  0  0  0
    4.8011   -0.4781   -0.2621 C   0  0  0  0  0  0  0  0  0  0  0  0
   -5.4549   -0.9803   -0.3133 C   0  0  0  0  0  0  0  0  0  0  0  0
   -6.3576   -2.0949    0.1344 C   0  0  0  0  0  0  0  0  0  0  0  0
    5.5843    0.0002    0.7886 C   0  0  0  0  0  0  0  0  0  0  0  0
    5.0976   -1.7084   -0.8489 C   0  0  0  0  0  0  0  0  0  0  0  0
   -7.8244   -1.8878   -0.2881 C   0  0  0  0  0  0  0  0  0  0  0  0
    6.6640   -0.7516    1.2521 C   0  0  0  0  0  0  0  0  0  0  0  0
    6.1771   -2.4604   -0.3851 C   0  0  0  0  0  0  0  0  0  0  0  0
    5.2859    1.3136    1.4337 C   0  0  0  0  0  0  0  0  0  0  0  0
    6.9603   -1.9820    0.6654 C   0  0  0  0  0  0  0  0  0  0  0  0
   -8.4144   -0.5998    0.2924 C   0  0  0  0  0  0  0  0  0  0  0  0
   -8.6677   -3.0869    0.1513 C   0  0  0  0  0  0  0  0  0  0  0  0
    0.0264    0.7681    1.3465 H   0  0  0  0  0  0  0  0  0  0  0  0
   -2.3262    0.9174    1.5922 H   0  0  0  0  0  0  0  0  0  0  0  0
    1.1972    0.8636   -1.4595 H   0  0  0  0  0  0  0  0  0  0  0  0
    0.0125   -1.5308    0.8410 H   0  0  0  0  0  0  0  0  0  0  0  0
   -0.3255   -1.2641   -0.8747 H   0  0  0  0  0  0  0  0  0  0  0  0
   -1.0955    2.9642    1.2150 H   0  0  0  0  0  0  0  0  0  0  0  0
   -1.9018    3.4739   -0.2640 H   0  0  0  0  0  0  0  0  0  0  0  0
   -2.5377   -1.3749   -0.3781 H   0  0  0  0  0  0  0  0  0  0  0  0
   -2.2414   -1.3715    1.3681 H   0  0  0  0  0  0  0  0  0  0  0  0
    1.6755    2.6594    0.9822 H   0  0  0  0  0  0  0  0  0  0  0  0
    0.3890    4.4113   -0.0540 H   0  0  0  0  0  0  0  0  0  0  0  0
    0.1605    3.5082   -1.5221 H   0  0  0  0  0  0  0  0  0  0  0  0
   -1.7803    0.2373   -2.0938 H   0  0  0  0  0  0  0  0  0  0  0  0
   -0.6299    1.5361   -2.3605 H   0  0  0  0  0  0  0  0  0  0  0  0
   -2.3173    1.9205   -2.1185 H   0  0  0  0  0  0  0  0  0  0  0  0
   -3.9101    0.9642   -1.0127 H   0  0  0  0  0  0  0  0  0  0  0  0
    2.1548   -0.8631    0.2014 H   0  0  0  0  0  0  0  0  0  0  0  0
    2.6587    0.4934    1.1777 H   0  0  0  0  0  0  0  0  0  0  0  0
   -4.1517    2.3512    1.7022 H   0  0  0  0  0  0  0  0  0  0  0  0
   -5.4298    2.3450    0.4837 H   0  0  0  0  0  0  0  0  0  0  0  0
   -3.8950    3.0968    0.1122 H   0  0  0  0  0  0  0  0  0  0  0  0
    3.9766    1.3318   -0.9593 H   0  0  0  0  0  0  0  0  0  0  0  0
    3.3499   -0.0585   -1.7738 H   0  0  0  0  0  0  0  0  0  0  0  0
   -4.8410   -0.3694    1.5993 H   0  0  0  0  0  0  0  0  0  0  0  0
    2.7015    3.9339   -0.5933 H   0  0  0  0  0  0  0  0  0  0  0  0
   -5.3720   -0.8212   -1.3855 H   0  0  0  0  0  0  0  0  0  0  0  0
   -6.3019   -2.2201    1.2235 H   0  0  0  0  0  0  0  0  0  0  0  0
   -5.9819   -3.0281   -0.3039 H   0  0  0  0  0  0  0  0  0  0  0  0
    4.4916   -2.0914   -1.6664 H   0  0  0  0  0  0  0  0  0  0  0  0
   -7.8734   -1.8222   -1.3829 H   0  0  0  0  0  0  0  0  0  0  0  0
    7.2825   -0.3941    2.0712 H   0  0  0  0  0  0  0  0  0  0  0  0
    6.1529    1.6711    2.0024 H   0  0  0  0  0  0  0  0  0  0  0  0
    4.4578    1.2230    2.1415 H   0  0  0  0  0  0  0  0  0  0  0  0
    5.0698    2.0993    0.7052 H   0  0  0  0  0  0  0  0  0  0  0  0
    7.8036   -2.5586    1.0362 H   0  0  0  0  0  0  0  0  0  0  0  0
   -8.3446   -0.5890    1.3856 H   0  0  0  0  0  0  0  0  0  0  0  0
   -7.8987    0.2864   -0.0909 H   0  0  0  0  0  0  0  0  0  0  0  0
   -9.4713   -0.5022    0.0215 H   0  0  0  0  0  0  0  0  0  0  0  0
   -8.6671   -3.1964    1.2412 H   0  0  0  0  0  0  0  0  0  0  0  0
   -8.2802   -4.0144   -0.2832 H   0  0  0  0  0  0  0  0  0  0  0  0
   -9.7063   -2.9735   -0.1773 H   0  0  0  0  0  0  0  0  0  0  0  0
    7.2420   -4.0434   -0.5130 H   0  0  0  0  0  0  0  0  0  0  0  0
  1 10  1  0  0  0  0
  1 54  1  0  0  0  0
  2 25  1  0  0  0  0
  2 71  1  0  0  0  0
  3  4  1  0  0  0  0
  3  5  1  0  0  0  0
  3  8  1  0  0  0  0
  3 12  1  0  0  0  0
  4  6  1  0  0  0  0
  4  7  1  0  0  0  0
  4 30  1  0  0  0  0
  5  9  1  0  0  0  0
  5 13  1  0  0  0  0
  5 31  1  0  0  0  0
  6 10  1  0  0  0  0
  6 14  1  0  0  0  0
  6 32  1  0  0  0  0
  7  9  1  0  0  0  0
  7 33  1  0  0  0  0
  7 34  1  0  0  0  0
  8 11  1  0  0  0  0
  8 35  1  0  0  0  0
  8 36  1  0  0  0  0
  9 37  1  0  0  0  0
  9 38  1  0  0  0  0
 10 11  1  0  0  0  0
 10 39  1  0  0  0  0
 11 40  1  0  0  0  0
 11 41  1  0  0  0  0
 12 42  1  0  0  0  0
 12 43  1  0  0  0  0
 12 44  1  0  0  0  0
 13 15  1  0  0  0  0
 13 17  1  0  0  0  0
 13 45  1  0  0  0  0
 14 16  1  0  0  0  0
 14 46  1  0  0  0  0
 14 47  1  0  0  0  0
 15 48  1  0  0  0  0
 15 49  1  0  0  0  0
 15 50  1  0  0  0  0
 16 18  1  0  0  0  0
 16 51  1  0  0  0  0
 16 52  1  0  0  0  0
 17 19  2  0  0  0  0
 17 53  1  0  0  0  0
 18 21  2  0  0  0  0
 18 22  1  0  0  0  0
 19 20  1  0  0  0  0
 19 55  1  0  0  0  0
 20 23  1  0  0  0  0
 20 56  1  0  0  0  0
 20 57  1  0  0  0  0
 21 24  1  0  0  0  0
 21 26  1  0  0  0  0
 22 25  2  0  0  0  0
 22 58  1  0  0  0  0
 23 28  1  0  0  0  0
 23 29  1  0  0  0  0
 23 59  1  0  0  0  0
 24 27  2  0  0  0  0
 24 60  1  0  0  0  0
 25 27  1  0  0  0  0
 26 61  1  0  0  0  0
 26 62  1  0  0  0  0
 26 63  1  0  0  0  0
 27 64  1  0  0  0  0
 28 65  1  0  0  0  0
 28 66  1  0  0  0  0
 28 67  1  0  0  0  0
 29 68  1  0  0  0  0
 29 69  1  0  0  0  0
 29 70  1  0  0  0  0
M  END
> <PUBCHEM_COMPOUND_CID>
54764923

> <PUBCHEM_CONFORMER_RMSD>
1

> <PUBCHEM_CONFORMER_DIVERSEORDER>
1
74
72
88
87
32
75
69
33
47
55
31
71
53
86
22
37
58
64
38
52
66
44
49
12
40
35
84
42
65
43
13
78
27
23
57
46
45
63
73
89
56
34
82
3
39
20
36
61
83
30
7
62
54
80
24
81
18
6
77
68
76
60
17
15
26
25
70
4
50
59
67
29
48
41
85
19
79
9
16
14
11
21
51
10
5
28
2
8

> <PUBCHEM_MMFF94_PARTIAL_CHARGES>
22
1 -0.68
10 0.28
13 0.14
16 0.14
17 -0.29
18 -0.14
19 -0.29
2 -0.53
20 0.14
21 -0.14
22 -0.15
24 -0.15
25 0.08
26 0.14
27 -0.15
53 0.15
54 0.4
55 0.15
58 0.15
60 0.15
64 0.15
71 0.45

> <PUBCHEM_EFFECTIVE_ROTOR_COUNT>
8.4

> <PUBCHEM_PHARMACOPHORE_FEATURES>
8
1 1 acceptor
1 1 donor
1 15 hydrophobe
1 2 donor
3 23 28 29 hydrophobe
5 3 4 5 7 9 rings
6 18 21 22 24 25 27 rings
6 3 4 6 8 10 11 rings

> <PUBCHEM_HEAVY_ATOM_COUNT>
29

> <PUBCHEM_ATOM_DEF_STEREO_COUNT>
6

> <PUBCHEM_ATOM_UDEF_STEREO_COUNT>
0

> <PUBCHEM_BOND_DEF_STEREO_COUNT>
1

> <PUBCHEM_BOND_UDEF_STEREO_COUNT>
0

> <PUBCHEM_ISOTOPIC_ATOM_COUNT>
0

> <PUBCHEM_COMPONENT_COUNT>
1

> <PUBCHEM_CACTVS_TAUTO_COUNT>
9

> <PUBCHEM_CONFORMER_ID>
0343A57B00000001

> <PUBCHEM_MMFF94_ENERGY>
87.3574

> <PUBCHEM_FEATURE_SELFOVERLAP>
40.658

> <PUBCHEM_SHAPE_FINGERPRINT>
10 15 11743843573582657039
10411042 1 18409449180530458005
11211813 74 9222965763757754803
11828532 37 18041568043448651386
12120059 9 18265309773112758479
12166972 35 18343022207081682328
13248334 5 18122064475076870941
13533116 47 18341332313565457505
13540713 5 18266762266860631373
13685833 64 18410855473086916875
13782708 43 18113058250794354577
13811026 1 18411975836949778567
13862211 1 18407761434497303513
14216079 64 18410011039730835291
14565420 104 11455901247364659853
15183329 4 14779261990671567343
15510800 12 18186811304906243747
16994733 274 10952052239128631239
1768 124 18272651255517843550
17980427 23 12823284719772804993
18335252 98 18341330067755997442
18603816 31 17417518225557931527
19301679 30 18343586213728777260
20028762 73 18342178890580354831
2026 5 18408601453440927499
20691028 202 9799400131554748434
21130935 74 18272090440347544346
21197605 99 18343865507369108166
21267235 1 18408606976704455907
21424621 283 10231761089266416599
21682296 61 18409453578908700451
21792934 111 18273209825263752769
22224240 67 12031792466093655981
23522609 53 18047226048491364844
23559900 14 18191021403911900193
23569943 247 18049726213536995450
3004659 81 17895484644260285292
3103668 31 17968933086058980757
3383291 50 18333732437871343587
3504750 166 18131632266921695173
4112364 45 13973675182755465904
4340502 62 15052021173016003252
474113 269 18341890806175892391
5104073 3 17917714578165629096
5718773 13 18410012152412026079
5758199 1 10087644801926904499
6081469 158 18113612427026448087
9689198 14 9655580729724190999
9831232 110 18198630943372790654

> <PUBCHEM_SHAPE_MULTIPOLES>
585.07
23.31
3.74
1.05
19.68
0.19
0.08
-27
-3.22
-0.59
0.66
-1.03
0.11
0.66

> <PUBCHEM_SHAPE_SELFOVERLAP>
1209.331

> <PUBCHEM_SHAPE_VOLUME>
337.1

> <PUBCHEM_COORDINATE_TYPE>
2
5
10

$$$$
