5494425
  -OEChem-10052120443D

 39 42  0     0  0  0  0  0  0999 V2000
   -4.3142    3.0826   -0.0028 F   0  0  0  0  0  0  0  0  0  0  0  0
   -3.8889   -1.6507    0.0014 O   0  0  0  0  0  0  0  0  0  0  0  0
    1.9339    1.1846   -0.0021 N   0  0  0  0  0  0  0  0  0  0  0  0
    2.2025   -1.0141   -0.0011 N   0  0  0  0  0  0  0  0  0  0  0  0
   -2.3653   -3.3392    0.0007 N   0  0  0  0  0  0  0  0  0  0  0  0
    4.2736    0.3732   -0.0009 C   0  0  0  0  0  0  0  0  0  0  0  0
    2.8173    0.1447   -0.0019 C   0  0  0  0  0  0  0  0  0  0  0  0
    0.6598    0.6651   -0.0015 C   0  0  0  0  0  0  0  0  0  0  0  0
    0.8565   -0.7109   -0.0009 C   0  0  0  0  0  0  0  0  0  0  0  0
   -0.6203    1.2593   -0.0016 C   0  0  0  0  0  0  0  0  0  0  0  0
   -0.2671   -1.5557   -0.0004 C   0  0  0  0  0  0  0  0  0  0  0  0
   -1.7682    0.4178   -0.0013 C   0  0  0  0  0  0  0  0  0  0  0  0
    5.0894   -0.9691    0.0014 C   0  0  0  0  0  0  0  0  0  0  0  0
    4.7494    1.1927    1.2519 C   0  0  0  0  0  0  0  0  0  0  0  0
    4.8419    1.1749   -1.2319 C   0  0  0  0  0  0  0  0  0  0  0  0
   -1.5724   -1.0018   -0.0006 C   0  0  0  0  0  0  0  0  0  0  0  0
   -0.7167    2.6682   -0.0023 C   0  0  0  0  0  0  0  0  0  0  0  0
   -0.0314   -2.9952    0.0003 C   0  0  0  0  0  0  0  0  0  0  0  0
   -3.0136    1.1004   -0.0018 C   0  0  0  0  0  0  0  0  0  0  0  0
   -2.7116   -1.9934   -0.0001 C   0  0  0  0  0  0  0  0  0  0  0  0
   -1.9626    3.2809   -0.0028 C   0  0  0  0  0  0  0  0  0  0  0  0
   -1.0842   -3.8132    0.0008 C   0  0  0  0  0  0  0  0  0  0  0  0
   -3.1081    2.4989   -0.0026 C   0  0  0  0  0  0  0  0  0  0  0  0
    2.1724    2.1671   -0.0041 H   0  0  0  0  0  0  0  0  0  0  0  0
    6.1695   -0.7858    0.0219 H   0  0  0  0  0  0  0  0  0  0  0  0
    4.8355   -1.5744    0.8795 H   0  0  0  0  0  0  0  0  0  0  0  0
    4.8621   -1.5643   -0.8906 H   0  0  0  0  0  0  0  0  0  0  0  0
    4.4500    0.6863    2.1770 H   0  0  0  0  0  0  0  0  0  0  0  0
    5.8390    1.3077    1.2679 H   0  0  0  0  0  0  0  0  0  0  0  0
    4.3043    2.1941    1.2636 H   0  0  0  0  0  0  0  0  0  0  0  0
    4.5992    0.6579   -2.1675 H   0  0  0  0  0  0  0  0  0  0  0  0
    4.3953    2.1742   -1.2849 H   0  0  0  0  0  0  0  0  0  0  0  0
    5.9299    1.2913   -1.1761 H   0  0  0  0  0  0  0  0  0  0  0  0
    0.1696    3.2977   -0.0025 H   0  0  0  0  0  0  0  0  0  0  0  0
    0.9787   -3.3873    0.0004 H   0  0  0  0  0  0  0  0  0  0  0  0
   -3.9581    0.5684   -0.0016 H   0  0  0  0  0  0  0  0  0  0  0  0
   -2.0398    4.3637   -0.0033 H   0  0  0  0  0  0  0  0  0  0  0  0
   -0.9795   -4.8911    0.0014 H   0  0  0  0  0  0  0  0  0  0  0  0
   -3.1136   -4.0263    0.0014 H   0  0  0  0  0  0  0  0  0  0  0  0
  1 23  1  0  0  0  0
  2 20  2  0  0  0  0
  3  7  1  0  0  0  0
  3  8  1  0  0  0  0
  3 24  1  0  0  0  0
  4  7  2  0  0  0  0
  4  9  1  0  0  0  0
  5 20  1  0  0  0  0
  5 22  1  0  0  0  0
  5 39  1  0  0  0  0
  6  7  1  0  0  0  0
  6 13  1  0  0  0  0
  6 14  1  0  0  0  0
  6 15  1  0  0  0  0
  8  9  2  0  0  0  0
  8 10  1  0  0  0  0
  9 11  1  0  0  0  0
 10 12  2  0  0  0  0
 10 17  1  0  0  0  0
 11 16  2  0  0  0  0
 11 18  1  0  0  0  0
 12 16  1  0  0  0  0
 12 19  1  0  0  0  0
 13 25  1  0  0  0  0
 13 26  1  0  0  0  0
 13 27  1  0  0  0  0
 14 28  1  0  0  0  0
 14 29  1  0  0  0  0
 14 30  1  0  0  0  0
 15 31  1  0  0  0  0
 15 32  1  0  0  0  0
 15 33  1  0  0  0  0
 16 20  1  0  0  0  0
 17 21  2  0  0  0  0
 17 34  1  0  0  0  0
 18 22  2  0  0  0  0
 18 35  1  0  0  0  0
 19 23  2  0  0  0  0
 19 36  1  0  0  0  0
 21 23  1  0  0  0  0
 21 37  1  0  0  0  0
 22 38  1  0  0  0  0
M  END
> <PUBCHEM_COMPOUND_CID>
5494425

> <PUBCHEM_CONFORMER_RMSD>
0.6

> <PUBCHEM_CONFORMER_DIVERSEORDER>
1

> <PUBCHEM_MMFF94_PARTIAL_CHARGES>
25
1 -0.19
11 0.03
16 0.09
17 -0.15
18 -0.18
19 -0.15
2 -0.57
20 0.54
21 -0.15
22 -0.04
23 0.19
24 0.27
3 0.03
34 0.15
35 0.15
36 0.15
37 0.15
38 0.15
39 0.37
4 -0.57
5 -0.54
6 0.18
7 0.01
8 -0.15
9 0.23

> <PUBCHEM_EFFECTIVE_ROTOR_COUNT>
1

> <PUBCHEM_PHARMACOPHORE_FEATURES>
9
1 2 acceptor
1 3 donor
1 5 donor
3 3 4 7 cation
4 6 13 14 15 hydrophobe
5 3 4 7 8 9 rings
6 10 12 17 19 21 23 rings
6 5 11 16 18 20 22 rings
6 8 9 10 11 12 16 rings

> <PUBCHEM_HEAVY_ATOM_COUNT>
23

> <PUBCHEM_ATOM_DEF_STEREO_COUNT>
0

> <PUBCHEM_ATOM_UDEF_STEREO_COUNT>
0

> <PUBCHEM_BOND_DEF_STEREO_COUNT>
0

> <PUBCHEM_BOND_UDEF_STEREO_COUNT>
0

> <PUBCHEM_ISOTOPIC_ATOM_COUNT>
0

> <PUBCHEM_COMPONENT_COUNT>
1

> <PUBCHEM_CACTVS_TAUTO_COUNT>
5

> <PUBCHEM_CONFORMER_ID>
0053D69900000001

> <PUBCHEM_MMFF94_ENERGY>
65.9491

> <PUBCHEM_FEATURE_SELFOVERLAP>
45.814

> <PUBCHEM_SHAPE_FINGERPRINT>
10319926 262 18198037314968666552
10411042 1 17906172106860991758
10493431 412 18340774728453554329
10616163 171 18410577310126603542
10967382 1 17762336912440396591
1100329 8 18266180715787849209
11833330 49 18264483073528254184
12107183 9 18118394048239595842
12173636 292 18339073800791533940
12390115 104 18271261433896356785
12553582 1 18122065570044832002
12788726 201 18189617322914854762
13052359 8 18408882927867972625
13140716 1 17904482157578309971
138480 1 16825588086604426179
14081887 123 18268978951278940144
14178342 30 18336530712681017426
14790565 3 18267594506883940793
15042514 8 18337113457390106755
15230672 131 18192155885575584430
15927050 60 18197215841874531519
16087824 20 18410575086055970861
16752209 62 18410566314514245730
16945 1 18266179624428507399
18785283 64 17544205878474136321
19591789 44 18122629353189883518
20510252 161 18343021103179667256
20775438 99 16473136907450062887
21236236 1 18413107255673311997
22182313 1 18268449965811311919
2334 1 18410856564357016355
23366157 5 17467643597944468635
23402539 116 18271237343604213167
23419403 2 17274245283845286913
23557571 272 18272102629490909412
23558518 356 18261395610981788496
23559900 14 17987233336042084512
238 59 17033284811153003677
2748010 2 18339093579311175527
283562 15 18412258463294488963
3091708 16 9271776382821392875
335352 9 18266741458043996479
350125 39 18410017671392442369
352729 6 18267300928524943723
5104073 3 18411415107985053880
559249 180 18336262341660706202
7164475 11 18336829818287520444
7364860 26 17618784656800476251
84936 182 17768241310940146568
9709674 26 18343587335126730982
9981440 41 18264767649761522945

> <PUBCHEM_SHAPE_MULTIPOLES>
445.24
8.47
4.35
0.74
10.13
1.34
0
-2.96
0.03
-5.53
0
0.7
-0.16
0.01

> <PUBCHEM_SHAPE_SELFOVERLAP>
1001.578

> <PUBCHEM_SHAPE_VOLUME>
239.1

> <PUBCHEM_COORDINATE_TYPE>
2
5
10

$$$$
