135863110
  -OEChem-10062122023D

 43 46  0     0  0  0  0  0  0999 V2000
   -0.9074    3.9159   -0.7383 I   0  0  0  0  0  0  0  0  0  0  0  0
   -4.1898   -3.2757    0.0649 O   0  0  0  0  0  0  0  0  0  0  0  0
    3.8376    1.1669   -1.7071 O   0  0  0  0  0  0  0  0  0  0  0  0
    7.6496    0.2137    0.7494 O   0  0  0  0  0  0  0  0  0  0  0  0
   -6.7742    0.4280    1.0047 O   0  0  0  0  0  0  0  0  0  0  0  0
   -5.4305   -1.3720    0.5200 N   0  0  0  0  0  0  0  0  0  0  0  0
   -0.7733   -1.2988   -0.3760 N   0  0  0  0  0  0  0  0  0  0  0  0
   -3.3256    0.3467   -0.0897 C   0  0  0  0  0  0  0  0  0  0  0  0
   -3.1750   -1.1212   -0.1850 C   0  0  0  0  0  0  0  0  0  0  0  0
   -4.5601    0.8875    0.3186 C   0  0  0  0  0  0  0  0  0  0  0  0
    1.6638   -1.5234   -0.5377 C   0  0  0  0  0  0  0  0  0  0  0  0
    4.1462   -0.4106    0.0808 C   0  0  0  0  0  0  0  0  0  0  0  0
   -4.2280   -1.9006    0.1223 C   0  0  0  0  0  0  0  0  0  0  0  0
    0.3262   -2.1225   -0.8700 C   0  0  0  0  0  0  0  0  0  0  0  0
   -5.6892   -0.0195    0.6466 C   0  0  0  0  0  0  0  0  0  0  0  0
   -2.2861    1.2395   -0.3900 C   0  0  0  0  0  0  0  0  0  0  0  0
   -4.7470    2.2721    0.4227 C   0  0  0  0  0  0  0  0  0  0  0  0
    2.1479   -0.4441   -1.2768 C   0  0  0  0  0  0  0  0  0  0  0  0
   -1.9344   -1.7980   -0.5993 C   0  0  0  0  0  0  0  0  0  0  0  0
    3.3891    0.1124   -0.9676 C   0  0  0  0  0  0  0  0  0  0  0  0
    2.4209   -2.0465    0.5108 C   0  0  0  0  0  0  0  0  0  0  0  0
    3.6622   -1.4902    0.8198 C   0  0  0  0  0  0  0  0  0  0  0  0
    5.4277    0.1490    0.4166 C   0  0  0  0  0  0  0  0  0  0  0  0
   -2.4721    2.6215   -0.2864 C   0  0  0  0  0  0  0  0  0  0  0  0
   -3.6994    3.1366    0.1188 C   0  0  0  0  0  0  0  0  0  0  0  0
    5.7790    1.4573    0.8265 C   0  0  0  0  0  0  0  0  0  0  0  0
    6.6004   -0.5693    0.3851 C   0  0  0  0  0  0  0  0  0  0  0  0
    7.1412    1.4453    1.0163 C   0  0  0  0  0  0  0  0  0  0  0  0
    0.2642   -3.1343   -0.4470 H   0  0  0  0  0  0  0  0  0  0  0  0
    0.2571   -2.2363   -1.9604 H   0  0  0  0  0  0  0  0  0  0  0  0
   -1.3217    0.8941   -0.7424 H   0  0  0  0  0  0  0  0  0  0  0  0
   -5.6982    2.6923    0.7376 H   0  0  0  0  0  0  0  0  0  0  0  0
    1.5539   -0.0380   -2.0923 H   0  0  0  0  0  0  0  0  0  0  0  0
   -2.0511   -2.7853   -1.0820 H   0  0  0  0  0  0  0  0  0  0  0  0
   -6.1812   -2.0208    0.7361 H   0  0  0  0  0  0  0  0  0  0  0  0
    2.0546   -2.8849    1.0972 H   0  0  0  0  0  0  0  0  0  0  0  0
    4.2331   -1.9104    1.6447 H   0  0  0  0  0  0  0  0  0  0  0  0
   -3.8615    4.2080    0.2049 H   0  0  0  0  0  0  0  0  0  0  0  0
    5.1258    2.3068    0.9688 H   0  0  0  0  0  0  0  0  0  0  0  0
    6.8510   -1.5915    0.1378 H   0  0  0  0  0  0  0  0  0  0  0  0
   -5.0691   -3.5924    0.3323 H   0  0  0  0  0  0  0  0  0  0  0  0
    7.8598    2.1909    1.3237 H   0  0  0  0  0  0  0  0  0  0  0  0
    3.1755    1.3863   -2.3849 H   0  0  0  0  0  0  0  0  0  0  0  0
  1 24  1  0  0  0  0
  2 13  1  0  0  0  0
  2 41  1  0  0  0  0
  3 20  1  0  0  0  0
  3 43  1  0  0  0  0
  4 27  1  0  0  0  0
  4 28  1  0  0  0  0
  5 15  2  0  0  0  0
  6 13  1  0  0  0  0
  6 15  1  0  0  0  0
  6 35  1  0  0  0  0
  7 14  1  0  0  0  0
  7 19  2  0  0  0  0
  8  9  1  0  0  0  0
  8 10  2  0  0  0  0
  8 16  1  0  0  0  0
  9 13  2  0  0  0  0
  9 19  1  0  0  0  0
 10 15  1  0  0  0  0
 10 17  1  0  0  0  0
 11 14  1  0  0  0  0
 11 18  2  0  0  0  0
 11 21  1  0  0  0  0
 12 20  2  0  0  0  0
 12 22  1  0  0  0  0
 12 23  1  0  0  0  0
 14 29  1  0  0  0  0
 14 30  1  0  0  0  0
 16 24  2  0  0  0  0
 16 31  1  0  0  0  0
 17 25  2  0  0  0  0
 17 32  1  0  0  0  0
 18 20  1  0  0  0  0
 18 33  1  0  0  0  0
 19 34  1  0  0  0  0
 21 22  2  0  0  0  0
 21 36  1  0  0  0  0
 22 37  1  0  0  0  0
 23 26  1  0  0  0  0
 23 27  2  0  0  0  0
 24 25  1  0  0  0  0
 25 38  1  0  0  0  0
 26 28  2  0  0  0  0
 26 39  1  0  0  0  0
 27 40  1  0  0  0  0
 28 42  1  0  0  0  0
M  END
> <PUBCHEM_COMPOUND_CID>
135863110

> <PUBCHEM_CONFORMER_RMSD>
0.8

> <PUBCHEM_CONFORMER_DIVERSEORDER>
1
78
34
79
18
87
74
33
49
11
92
44
85
6
84
69
43
8
72
50
83
39
5
46
7
13
64
77
91
41
61
58
17
40
89
54
27
65
32
75
52
70
30
24
62
23
22
37
31
90
15
76
82
2
67
45
42
88
25
73
47
53
86
48
57
3
26
16
60
80
36
10
55
51
9
68
21
14
56
35
4
63
29
71
12
19
59
38
20
66
81
28

> <PUBCHEM_MMFF94_PARTIAL_CHARGES>
41
1 -0.08
10 0.09
11 -0.14
12 0.05
13 0.19
14 0.39
15 0.54
16 -0.15
17 -0.15
18 -0.15
19 0.38
2 -0.53
20 0.08
21 -0.15
22 -0.15
23 -0.05
24 0.08
25 -0.15
26 -0.15
27 -0.01
28 -0.01
3 -0.53
31 0.15
32 0.15
33 0.15
34 0.06
35 0.37
36 0.15
37 0.15
38 0.15
39 0.15
4 -0.28
40 0.15
41 0.45
42 0.15
43 0.45
5 -0.57
6 -0.54
7 -0.7
8 0.03
9 -0.01

> <PUBCHEM_EFFECTIVE_ROTOR_COUNT>
4

> <PUBCHEM_PHARMACOPHORE_FEATURES>
11
1 1 hydrophobe
1 2 donor
1 3 donor
1 4 acceptor
1 5 acceptor
1 6 donor
1 7 acceptor
5 4 23 26 27 28 rings
6 11 12 18 20 21 22 rings
6 6 8 9 10 13 15 rings
6 8 10 16 17 24 25 rings

> <PUBCHEM_HEAVY_ATOM_COUNT>
28

> <PUBCHEM_ATOM_DEF_STEREO_COUNT>
0

> <PUBCHEM_ATOM_UDEF_STEREO_COUNT>
0

> <PUBCHEM_BOND_DEF_STEREO_COUNT>
0

> <PUBCHEM_BOND_UDEF_STEREO_COUNT>
0

> <PUBCHEM_ISOTOPIC_ATOM_COUNT>
0

> <PUBCHEM_COMPONENT_COUNT>
1

> <PUBCHEM_CACTVS_TAUTO_COUNT>
-1

> <PUBCHEM_CONFORMER_ID>
08191B4600000001

> <PUBCHEM_MMFF94_ENERGY>
74.0802

> <PUBCHEM_FEATURE_SELFOVERLAP>
55.893

> <PUBCHEM_SHAPE_FINGERPRINT>
10 15 18409450284457904850
100830 39 18410852128046176808
10087517 78 18410851079272088909
10290309 65 18267586814882019167
10369192 42 17275105054450675118
10554248 39 15769782351729425396
10939801 23 18337392768473836324
11135609 187 18120367654727749989
12107183 9 17757825633063952514
12596602 18 17604141545767729176
12633257 1 16587749746030603786
12838862 33 18409441463529021685
13402501 40 18272367568537828544
13726171 33 18271528576477797145
13911987 19 16845569803690287335
14394314 77 18339644443559572073
14395042 24 18335431192811622353
14849402 71 17969508285380195892
14933364 13 18342739620335974578
15419008 145 18262503811924692248
15439362 3 9724593750506857555
15510800 12 12830034545042591176
15961568 22 18411138026174538372
16110190 28 18412265059921371165
17686467 74 17842825887794420555
18336668 15 18113620105784700461
19377110 9 18040433287234237274
19611394 137 18116162232291749067
20511986 3 17968929795669983985
21302155 148 18412547578522146917
21756936 100 18272641381477674966
22956985 138 17179410387795655331
23559900 14 17839467687405011887
24771293 8 18201444645700392545
25019877 29 17560806571413444727
2838139 119 18059845186993324444
392239 28 18409736191804123369
4144715 1 18336837385545908842
469060 322 18338250330938163713
474144 1 17823721804299730797
5104073 3 18262800648944509098
7808743 9 18343576352536697594
9981440 41 18334583421258604331

> <PUBCHEM_SHAPE_MULTIPOLES>
554.72
18.36
3.79
1.07
18.42
2.34
-0.18
2.57
7.44
-4.29
-0.49
0.74
0.16
0.34

> <PUBCHEM_SHAPE_SELFOVERLAP>
1209.887

> <PUBCHEM_SHAPE_VOLUME>
307.4

> <PUBCHEM_COORDINATE_TYPE>
2
5
10

$$$$
