44340903
  -OEChem-10062122013D

 72 78  0     1  0  0  0  0  0999 V2000
   -4.0884   -1.0232    0.4971 O   0  0  0  0  0  0  0  0  0  0  0  0
   -2.6288    1.0716   -2.1604 O   0  0  0  0  0  0  0  0  0  0  0  0
   -5.0198    1.9461   -1.0782 O   0  0  0  0  0  0  0  0  0  0  0  0
   -7.2261    0.2229   -0.9531 O   0  0  0  0  0  0  0  0  0  0  0  0
   -5.7961   -1.6998    2.5379 O   0  0  0  0  0  0  0  0  0  0  0  0
    3.3743   -2.6496    0.4621 O   0  0  0  0  0  0  0  0  0  0  0  0
    4.1712    1.9152    0.7143 O   0  0  0  0  0  0  0  0  0  0  0  0
   -0.2618   -6.0926   -0.0373 O   0  0  0  0  0  0  0  0  0  0  0  0
   -0.7726    6.8058    0.3844 O   0  0  0  0  0  0  0  0  0  0  0  0
    7.1559   -2.8360    0.0713 O   0  0  0  0  0  0  0  0  0  0  0  0
    6.9724    0.6066   -2.3706 O   0  0  0  0  0  0  0  0  0  0  0  0
   -1.7726   -0.7795   -0.0025 N   0  0  0  0  0  0  0  0  0  0  0  0
   -1.2941    1.9570    0.1481 N   0  0  0  0  0  0  0  0  0  0  0  0
    4.1519   -0.4361    0.6249 N   0  0  0  0  0  0  0  0  0  0  0  0
    5.4968   -0.6786    0.7557 N   0  0  0  0  0  0  0  0  0  0  0  0
   -3.1423   -0.1402   -0.1208 C   0  0  1  0  0  0  0  0  0  0  0  0
   -3.5263    0.1251   -1.5883 C   0  0  1  0  0  0  0  0  0  0  0  0
   -0.5150   -0.3048    0.1454 C   0  0  0  0  0  0  0  0  0  0  0  0
   -4.9608    0.6520   -1.6852 C   0  0  1  0  0  0  0  0  0  0  0  0
   -5.9045   -0.3019   -0.9498 C   0  0  1  0  0  0  0  0  0  0  0  0
    0.6323   -1.1627    0.2332 C   0  0  0  0  0  0  0  0  0  0  0  0
   -5.4286   -0.5219    0.4924 C   0  0  1  0  0  0  0  0  0  0  0  0
   -1.5350   -2.1454   -0.0275 C   0  0  0  0  0  0  0  0  0  0  0  0
   -0.2743    1.0721    0.2212 C   0  0  0  0  0  0  0  0  0  0  0  0
   -0.1312   -2.4131    0.1085 C   0  0  0  0  0  0  0  0  0  0  0  0
    1.9518   -0.7455    0.3854 C   0  0  0  0  0  0  0  0  0  0  0  0
    1.0936    1.4767    0.3783 C   0  0  0  0  0  0  0  0  0  0  0  0
    2.1911    0.6241    0.4605 C   0  0  0  0  0  0  0  0  0  0  0  0
    0.8008    2.9174    0.4015 C   0  0  0  0  0  0  0  0  0  0  0  0
   -6.2980   -1.5401    1.2236 C   0  0  0  0  0  0  0  0  0  0  0  0
   -0.6081    3.1567    0.2641 C   0  0  0  0  0  0  0  0  0  0  0  0
    3.2250   -1.4442    0.4917 C   0  0  0  0  0  0  0  0  0  0  0  0
   -2.4747   -3.1790   -0.1619 C   0  0  0  0  0  0  0  0  0  0  0  0
    3.6232    0.8352    0.6167 C   0  0  0  0  0  0  0  0  0  0  0  0
    0.2705   -3.7709    0.1012 C   0  0  0  0  0  0  0  0  0  0  0  0
   -2.0257   -4.5001   -0.1632 C   0  0  0  0  0  0  0  0  0  0  0  0
   -0.6746   -4.7936   -0.0338 C   0  0  0  0  0  0  0  0  0  0  0  0
    1.6384    4.0516    0.5307 C   0  0  0  0  0  0  0  0  0  0  0  0
   -1.1397    4.4553    0.2574 C   0  0  0  0  0  0  0  0  0  0  0  0
    6.1258   -0.7459   -0.5568 C   0  0  0  0  0  0  0  0  0  0  0  0
    1.0979    5.3420    0.5230 C   0  0  0  0  0  0  0  0  0  0  0  0
   -0.2701    5.5387    0.3882 C   0  0  0  0  0  0  0  0  0  0  0  0
    7.4279   -1.5393   -0.4457 C   0  0  0  0  0  0  0  0  0  0  0  0
    6.3684    0.6720   -1.0836 C   0  0  0  0  0  0  0  0  0  0  0  0
   -3.1543    0.6955    0.5696 H   0  0  0  0  0  0  0  0  0  0  0  0
   -3.4485   -0.8058   -2.1637 H   0  0  0  0  0  0  0  0  0  0  0  0
   -5.2654    0.7885   -2.7280 H   0  0  0  0  0  0  0  0  0  0  0  0
   -5.9184   -1.2628   -1.4797 H   0  0  0  0  0  0  0  0  0  0  0  0
   -5.4574    0.4067    1.0762 H   0  0  0  0  0  0  0  0  0  0  0  0
   -6.2542   -2.5163    0.7292 H   0  0  0  0  0  0  0  0  0  0  0  0
   -7.3396   -1.2106    1.2831 H   0  0  0  0  0  0  0  0  0  0  0  0
   -2.2474    1.9019   -0.1450 H   0  0  0  0  0  0  0  0  0  0  0  0
   -3.5326   -3.0108   -0.3193 H   0  0  0  0  0  0  0  0  0  0  0  0
    1.3209   -4.0251    0.2011 H   0  0  0  0  0  0  0  0  0  0  0  0
   -2.9051    1.2176   -3.0811 H   0  0  0  0  0  0  0  0  0  0  0  0
   -4.6913    1.9015   -0.1675 H   0  0  0  0  0  0  0  0  0  0  0  0
   -7.4873    0.3530   -1.8806 H   0  0  0  0  0  0  0  0  0  0  0  0
   -2.7480   -5.3048   -0.2788 H   0  0  0  0  0  0  0  0  0  0  0  0
    2.7123    3.9385    0.6379 H   0  0  0  0  0  0  0  0  0  0  0  0
   -2.2104    4.6068    0.1517 H   0  0  0  0  0  0  0  0  0  0  0  0
    5.5984   -1.5716    1.2380 H   0  0  0  0  0  0  0  0  0  0  0  0
    5.4905   -1.2977   -1.2643 H   0  0  0  0  0  0  0  0  0  0  0  0
   -6.3597   -2.3556    2.9827 H   0  0  0  0  0  0  0  0  0  0  0  0
    1.7642    6.1954    0.6242 H   0  0  0  0  0  0  0  0  0  0  0  0
    8.1408   -1.0436    0.2230 H   0  0  0  0  0  0  0  0  0  0  0  0
    7.8989   -1.6590   -1.4268 H   0  0  0  0  0  0  0  0  0  0  0  0
    5.4375    1.2219   -1.2254 H   0  0  0  0  0  0  0  0  0  0  0  0
    7.0267    1.2424   -0.4192 H   0  0  0  0  0  0  0  0  0  0  0  0
    0.7053   -6.1179    0.0620 H   0  0  0  0  0  0  0  0  0  0  0  0
   -1.7390    6.7621    0.2825 H   0  0  0  0  0  0  0  0  0  0  0  0
    8.0057   -3.3056    0.1249 H   0  0  0  0  0  0  0  0  0  0  0  0
    7.1178    1.5219   -2.6652 H   0  0  0  0  0  0  0  0  0  0  0  0
  1 16  1  0  0  0  0
  1 22  1  0  0  0  0
  2 17  1  0  0  0  0
  2 55  1  0  0  0  0
  3 19  1  0  0  0  0
  3 56  1  0  0  0  0
  4 20  1  0  0  0  0
  4 57  1  0  0  0  0
  5 30  1  0  0  0  0
  5 63  1  0  0  0  0
  6 32  2  0  0  0  0
  7 34  2  0  0  0  0
  8 37  1  0  0  0  0
  8 69  1  0  0  0  0
  9 42  1  0  0  0  0
  9 70  1  0  0  0  0
 10 43  1  0  0  0  0
 10 71  1  0  0  0  0
 11 44  1  0  0  0  0
 11 72  1  0  0  0  0
 12 16  1  0  0  0  0
 12 18  1  0  0  0  0
 12 23  1  0  0  0  0
 13 24  1  0  0  0  0
 13 31  1  0  0  0  0
 13 52  1  0  0  0  0
 14 15  1  0  0  0  0
 14 32  1  0  0  0  0
 14 34  1  0  0  0  0
 15 40  1  0  0  0  0
 15 61  1  0  0  0  0
 16 17  1  0  0  0  0
 16 45  1  0  0  0  0
 17 19  1  0  0  0  0
 17 46  1  0  0  0  0
 18 21  1  0  0  0  0
 18 24  2  0  0  0  0
 19 20  1  0  0  0  0
 19 47  1  0  0  0  0
 20 22  1  0  0  0  0
 20 48  1  0  0  0  0
 21 25  1  0  0  0  0
 21 26  2  0  0  0  0
 22 30  1  0  0  0  0
 22 49  1  0  0  0  0
 23 25  2  0  0  0  0
 23 33  1  0  0  0  0
 24 27  1  0  0  0  0
 25 35  1  0  0  0  0
 26 28  1  0  0  0  0
 26 32  1  0  0  0  0
 27 28  2  0  0  0  0
 27 29  1  0  0  0  0
 28 34  1  0  0  0  0
 29 31  2  0  0  0  0
 29 38  1  0  0  0  0
 30 50  1  0  0  0  0
 30 51  1  0  0  0  0
 31 39  1  0  0  0  0
 33 36  2  0  0  0  0
 33 53  1  0  0  0  0
 35 37  2  0  0  0  0
 35 54  1  0  0  0  0
 36 37  1  0  0  0  0
 36 58  1  0  0  0  0
 38 41  2  0  0  0  0
 38 59  1  0  0  0  0
 39 42  2  0  0  0  0
 39 60  1  0  0  0  0
 40 43  1  0  0  0  0
 40 44  1  0  0  0  0
 40 62  1  0  0  0  0
 41 42  1  0  0  0  0
 41 64  1  0  0  0  0
 43 65  1  0  0  0  0
 43 66  1  0  0  0  0
 44 67  1  0  0  0  0
 44 68  1  0  0  0  0
M  END
> <PUBCHEM_COMPOUND_CID>
44340903

> <PUBCHEM_CONFORMER_RMSD>
1

> <PUBCHEM_CONFORMER_DIVERSEORDER>
2
17
20
25
22
18
14
27
9
8
4
21
16
13
19
24
12
26
15
23
11
5
10
7
1
6
3

> <PUBCHEM_MMFF94_PARTIAL_CHARGES>
58
1 -0.56
10 -0.68
11 -0.68
12 -0.04
13 -0.05
14 -0.11
15 -0.64
16 0.54
17 0.28
18 -0.05
19 0.28
2 -0.68
20 0.28
21 -0.01
22 0.28
23 -0.15
24 -0.05
26 0.09
27 -0.01
28 0.09
3 -0.68
30 0.28
31 -0.15
32 0.54
33 -0.15
34 0.54
35 -0.15
36 -0.15
37 0.08
38 -0.15
39 -0.15
4 -0.68
40 0.27
41 -0.15
42 0.08
43 0.28
44 0.28
5 -0.68
52 0.27
53 0.15
54 0.15
55 0.4
56 0.4
57 0.4
58 0.15
59 0.15
6 -0.57
60 0.15
61 0.36
63 0.4
64 0.15
69 0.45
7 -0.57
70 0.45
71 0.4
72 0.4
8 -0.53
9 -0.53

> <PUBCHEM_EFFECTIVE_ROTOR_COUNT>
7.4

> <PUBCHEM_PHARMACOPHORE_FEATURES>
28
1 1 acceptor
1 10 acceptor
1 10 donor
1 11 acceptor
1 11 donor
1 12 cation
1 13 cation
1 13 donor
1 15 donor
1 2 acceptor
1 2 donor
1 3 acceptor
1 3 donor
1 4 acceptor
1 4 donor
1 5 acceptor
1 5 donor
1 6 acceptor
1 7 acceptor
1 8 donor
1 9 donor
5 12 18 21 23 25 rings
5 13 24 27 29 31 rings
5 14 26 28 32 34 rings
6 1 16 17 19 20 22 rings
6 18 21 24 26 27 28 rings
6 23 25 33 35 36 37 rings
6 29 31 38 39 41 42 rings

> <PUBCHEM_HEAVY_ATOM_COUNT>
44

> <PUBCHEM_ATOM_DEF_STEREO_COUNT>
0

> <PUBCHEM_ATOM_UDEF_STEREO_COUNT>
5

> <PUBCHEM_BOND_DEF_STEREO_COUNT>
0

> <PUBCHEM_BOND_UDEF_STEREO_COUNT>
0

> <PUBCHEM_ISOTOPIC_ATOM_COUNT>
0

> <PUBCHEM_COMPONENT_COUNT>
1

> <PUBCHEM_CACTVS_TAUTO_COUNT>
108

> <PUBCHEM_CONFORMER_ID>
02A496A700000002

> <PUBCHEM_MMFF94_ENERGY>
164.4474

> <PUBCHEM_FEATURE_SELFOVERLAP>
142.619

> <PUBCHEM_SHAPE_FINGERPRINT>
102385 1 17763176247475891995
10864689 126 18337942420659460789
1100329 8 18267300009586584891
12058002 1 17487089814023045051
12788726 201 18263075540268741338
13140716 1 17979908642311459952
13911987 19 18335975390041245127
140371 6 18342462568737787304
14725015 67 18270389491653844402
14790565 3 18411134697712241641
14937079 2 18339359781500486161
14955137 171 18336836393386617563
15198563 99 18268431244001987580
15320467 1 18195518195884451737
15324884 4 17607218113090298173
15439362 3 18195795500353524657
15950262 2 15720229457850265396
16087824 20 18339360752484965281
16628084 112 18196086651812088022
19311894 1 18340762732045647346
19319366 153 17894624855895526274
19611394 137 18115602563767454787
20775438 99 17622683885841452774
21133410 127 17466489528223949685
21792961 116 18187926140755590282
21796203 349 18047786877199193683
22311459 1 18411696561766930938
23559900 14 18270110357254955624
23576562 1 18267577095655163957
24771750 20 17902525014402415428
283562 15 18269552728444325568
3178227 256 18408895053062128043
3383291 50 18411974746392887994
5171179 24 17977667837729914986
5265222 85 18261397801230909230

> <PUBCHEM_SHAPE_MULTIPOLES>
821.01
14.77
7.86
1.26
8.8
6.39
-0.35
-7.51
-3.56
-0.17
1.45
-0.9
0.09
1.24

> <PUBCHEM_SHAPE_SELFOVERLAP>
1851.324

> <PUBCHEM_SHAPE_VOLUME>
429.3

> <PUBCHEM_COORDINATE_TYPE>
2
5
10

$$$$
