44229839
  -OEChem-10052120443D

 60 64  0     0  0  0  0  0  0999 V2000
   -2.6391    0.9014   -3.7296 Cl  0  0  0  0  0  0  0  0  0  0  0  0
   -7.6501    0.4561    2.2502 S   0  0  0  0  0  0  0  0  0  0  0  0
    4.8766    3.0084   -1.4488 O   0  0  0  0  0  0  0  0  0  0  0  0
   -4.3516    0.0118   -1.4235 O   0  0  0  0  0  0  0  0  0  0  0  0
    3.9304   -1.3490   -0.4647 N   0  0  0  0  0  0  0  0  0  0  0  0
    3.7223    1.6172   -0.0086 N   0  0  0  0  0  0  0  0  0  0  0  0
    6.2836    4.2256    0.4724 N   0  0  0  0  0  0  0  0  0  0  0  0
    0.9533   -1.6379   -1.1078 N   0  0  0  0  0  0  0  0  0  0  0  0
    3.0411   -3.9268    1.7655 N   0  0  0  0  0  0  0  0  0  0  0  0
    1.0090   -3.3389    0.5620 N   0  0  0  0  0  0  0  0  0  0  0  0
   -7.6657   -0.9151    1.3218 N   0  0  0  0  0  0  0  0  0  0  0  0
    3.6785   -0.3224   -1.5414 C   0  0  0  0  0  0  0  0  0  0  0  0
    2.9622    0.9218   -1.0222 C   0  0  0  0  0  0  0  0  0  0  0  0
    5.3203    3.2184    0.9367 C   0  0  0  0  0  0  0  0  0  0  0  0
    3.0071   -2.2043    0.0802 C   0  0  0  0  0  0  0  0  0  0  0  0
    3.6680   -2.9735    1.0335 C   0  0  0  0  0  0  0  0  0  0  0  0
    5.1553   -1.5564    0.1184 C   0  0  0  0  0  0  0  0  0  0  0  0
    4.6337    2.6210   -0.3057 C   0  0  0  0  0  0  0  0  0  0  0  0
    1.6566   -2.3944   -0.1544 C   0  0  0  0  0  0  0  0  0  0  0  0
    5.0224   -2.5603    1.0530 C   0  0  0  0  0  0  0  0  0  0  0  0
    6.0932    2.1440    1.7079 C   0  0  0  0  0  0  0  0  0  0  0  0
    4.3018    3.9177    1.8419 C   0  0  0  0  0  0  0  0  0  0  0  0
   -0.3907   -1.2157   -1.1947 C   0  0  0  0  0  0  0  0  0  0  0  0
    1.7311   -4.0379    1.4661 C   0  0  0  0  0  0  0  0  0  0  0  0
   -0.8143   -0.4555   -2.2850 C   0  0  0  0  0  0  0  0  0  0  0  0
   -1.2958   -1.5590   -0.1903 C   0  0  0  0  0  0  0  0  0  0  0  0
   -3.0476   -0.3822   -1.3665 C   0  0  0  0  0  0  0  0  0  0  0  0
   -2.1427   -0.0389   -2.3709 C   0  0  0  0  0  0  0  0  0  0  0  0
   -2.6241   -1.1422   -0.2762 C   0  0  0  0  0  0  0  0  0  0  0  0
   -4.8285    0.8025   -0.3927 C   0  0  0  0  0  0  0  0  0  0  0  0
   -5.9060    0.3789    0.4160 C   0  0  0  0  0  0  0  0  0  0  0  0
   -6.3399    1.2231    1.4404 C   0  0  0  0  0  0  0  0  0  0  0  0
   -4.2260    2.0420   -0.1548 C   0  0  0  0  0  0  0  0  0  0  0  0
   -5.7424    2.4687    1.6881 C   0  0  0  0  0  0  0  0  0  0  0  0
   -4.6786    2.8625    0.8728 C   0  0  0  0  0  0  0  0  0  0  0  0
   -6.7034   -0.8109    0.4110 C   0  0  0  0  0  0  0  0  0  0  0  0
    3.1950   -0.8286   -2.3778 H   0  0  0  0  0  0  0  0  0  0  0  0
    4.6783   -0.0456   -1.9017 H   0  0  0  0  0  0  0  0  0  0  0  0
    2.7747    1.6060   -1.8567 H   0  0  0  0  0  0  0  0  0  0  0  0
    2.0000    0.6823   -0.5650 H   0  0  0  0  0  0  0  0  0  0  0  0
    6.0196   -0.9753   -0.1736 H   0  0  0  0  0  0  0  0  0  0  0  0
    3.5695    1.3452    0.9572 H   0  0  0  0  0  0  0  0  0  0  0  0
    5.8154   -2.9475    1.6775 H   0  0  0  0  0  0  0  0  0  0  0  0
    6.6861    2.5830    2.5190 H   0  0  0  0  0  0  0  0  0  0  0  0
    5.4215    1.4074    2.1624 H   0  0  0  0  0  0  0  0  0  0  0  0
    6.7767    1.5948    1.0493 H   0  0  0  0  0  0  0  0  0  0  0  0
    4.7943    4.4374    2.6722 H   0  0  0  0  0  0  0  0  0  0  0  0
    3.5944    3.2042    2.2788 H   0  0  0  0  0  0  0  0  0  0  0  0
    3.7125    4.6549    1.2836 H   0  0  0  0  0  0  0  0  0  0  0  0
    5.8043    4.9461   -0.0661 H   0  0  0  0  0  0  0  0  0  0  0  0
    6.9642    3.7963   -0.1532 H   0  0  0  0  0  0  0  0  0  0  0  0
    1.5117   -1.2542   -1.8531 H   0  0  0  0  0  0  0  0  0  0  0  0
    1.1823   -4.7882    2.0249 H   0  0  0  0  0  0  0  0  0  0  0  0
   -0.1070   -0.1878   -3.0673 H   0  0  0  0  0  0  0  0  0  0  0  0
   -1.0169   -2.1269    0.6888 H   0  0  0  0  0  0  0  0  0  0  0  0
   -3.3152   -1.4250    0.5134 H   0  0  0  0  0  0  0  0  0  0  0  0
   -3.4026    2.3876   -0.7745 H   0  0  0  0  0  0  0  0  0  0  0  0
   -6.0923    3.1131    2.4885 H   0  0  0  0  0  0  0  0  0  0  0  0
   -4.2013    3.8239    1.0438 H   0  0  0  0  0  0  0  0  0  0  0  0
   -6.5885   -1.6390   -0.2759 H   0  0  0  0  0  0  0  0  0  0  0  0
  1 28  1  0  0  0  0
  2 11  1  0  0  0  0
  2 32  1  0  0  0  0
  3 18  2  0  0  0  0
  4 27  1  0  0  0  0
  4 30  1  0  0  0  0
  5 12  1  0  0  0  0
  5 15  1  0  0  0  0
  5 17  1  0  0  0  0
  6 13  1  0  0  0  0
  6 18  1  0  0  0  0
  6 42  1  0  0  0  0
  7 14  1  0  0  0  0
  7 50  1  0  0  0  0
  7 51  1  0  0  0  0
  8 19  1  0  0  0  0
  8 23  1  0  0  0  0
  8 52  1  0  0  0  0
  9 16  1  0  0  0  0
  9 24  2  0  0  0  0
 10 19  2  0  0  0  0
 10 24  1  0  0  0  0
 11 36  2  0  0  0  0
 12 13  1  0  0  0  0
 12 37  1  0  0  0  0
 12 38  1  0  0  0  0
 13 39  1  0  0  0  0
 13 40  1  0  0  0  0
 14 18  1  0  0  0  0
 14 21  1  0  0  0  0
 14 22  1  0  0  0  0
 15 16  2  0  0  0  0
 15 19  1  0  0  0  0
 16 20  1  0  0  0  0
 17 20  2  0  0  0  0
 17 41  1  0  0  0  0
 20 43  1  0  0  0  0
 21 44  1  0  0  0  0
 21 45  1  0  0  0  0
 21 46  1  0  0  0  0
 22 47  1  0  0  0  0
 22 48  1  0  0  0  0
 22 49  1  0  0  0  0
 23 25  2  0  0  0  0
 23 26  1  0  0  0  0
 24 53  1  0  0  0  0
 25 28  1  0  0  0  0
 25 54  1  0  0  0  0
 26 29  2  0  0  0  0
 26 55  1  0  0  0  0
 27 28  2  0  0  0  0
 27 29  1  0  0  0  0
 29 56  1  0  0  0  0
 30 31  2  0  0  0  0
 30 33  1  0  0  0  0
 31 32  1  0  0  0  0
 31 36  1  0  0  0  0
 32 34  2  0  0  0  0
 33 35  2  0  0  0  0
 33 57  1  0  0  0  0
 34 35  1  0  0  0  0
 34 58  1  0  0  0  0
 35 59  1  0  0  0  0
 36 60  1  0  0  0  0
M  END
> <PUBCHEM_COMPOUND_CID>
44229839

> <PUBCHEM_CONFORMER_RMSD>
1.2

> <PUBCHEM_CONFORMER_DIVERSEORDER>
1
181
170
117
92
24
146
171
176
38
187
144
203
143
152
44
215
116
10
194
168
19
111
86
119
198
63
102
192
73
26
188
139
64
126
207
70
163
191
213
40
165
43
121
94
205
212
93
164
135
142
193
81
41
154
68
124
185
28
21
101
169
91
84
36
123
151
115
50
78
103
159
210
211
82
140
46
175
160
161
20
209
69
108
133
56
89
214
12
110
145
35
98
129
74
113
150
166
85
201
183
216
177
202
25
55
7
147
80
23
157
137
8
105
16
173
42
5
67
34
109
104
158
96
204
153
190
99
33
65
162
141
186
39
15
120
9
128
71
217
149
182
122
155
77
62
60
106
172
75
178
156
66
196
83
184
130
57
72
4
127
148
54
95
53
195
138
18
76
199
31
189
200
22
179
112
118
3
107
88
90
136
206
37
97
87
30
125
174
114
134
49
208
27
59
131
167
48
2
51
61
29
17
45
79
100
47
11
132
14
6
58
52
180
197
13
32

> <PUBCHEM_MMFF94_PARTIAL_CHARGES>
47
1 -0.18
10 -0.62
11 -0.51
12 0.26
13 0.3
14 0.33
15 -0.15
16 0.26
17 -0.3
18 0.57
19 0.41
2 0.18
20 -0.15
23 0.1
24 0.47
25 -0.15
26 -0.15
27 0.08
28 0.18
29 -0.15
3 -0.57
30 0.08
32 0.04
33 -0.15
34 -0.15
35 -0.15
36 0.14
4 -0.17
41 0.15
42 0.37
43 0.15
5 0.05
50 0.36
51 0.36
52 0.4
53 0.15
54 0.15
55 0.15
56 0.15
57 0.15
58 0.15
59 0.15
6 -0.73
60 0.15
7 -0.99
8 -0.6
9 -0.57

> <PUBCHEM_EFFECTIVE_ROTOR_COUNT>
9

> <PUBCHEM_PHARMACOPHORE_FEATURES>
16
1 11 acceptor
1 3 acceptor
1 4 acceptor
1 5 cation
1 6 donor
1 7 cation
1 7 donor
1 8 donor
3 14 21 22 hydrophobe
3 8 10 19 cation
3 9 10 24 cation
5 2 11 31 32 36 rings
5 5 15 16 17 20 rings
6 23 25 26 27 28 29 rings
6 30 31 32 33 34 35 rings
6 9 10 15 16 19 24 rings

> <PUBCHEM_HEAVY_ATOM_COUNT>
36

> <PUBCHEM_ATOM_DEF_STEREO_COUNT>
0

> <PUBCHEM_ATOM_UDEF_STEREO_COUNT>
0

> <PUBCHEM_BOND_DEF_STEREO_COUNT>
0

> <PUBCHEM_BOND_UDEF_STEREO_COUNT>
0

> <PUBCHEM_ISOTOPIC_ATOM_COUNT>
0

> <PUBCHEM_COMPONENT_COUNT>
1

> <PUBCHEM_CACTVS_TAUTO_COUNT>
6

> <PUBCHEM_CONFORMER_ID>
02A2E4CF00000001

> <PUBCHEM_MMFF94_ENERGY>
94.2776

> <PUBCHEM_FEATURE_SELFOVERLAP>
81.486

> <PUBCHEM_SHAPE_FINGERPRINT>
11135609 201 18269550696845523857
11331351 85 17628346079347678430
11399510 152 18115035100093353937
1200032 147 17917437570381907380
12147406 95 10015592731195827426
12988421 55 18191005993289712948
13726171 33 17489029391151990665
13782708 43 16734393677142583939
14565420 104 18408889572171914594
14739800 52 18342459235927470669
14849402 71 18334579027901880574
14950920 106 18191025612900436309
15347590 135 18192152826914889123
15392192 104 17677631910989145009
15513586 35 18272652355615111841
16992779 147 18412545440066569784
19309040 13 17988081226910585516
19377110 9 18337677408804338879
19438510 23 18129659837223886152
21458453 9 17677065610877116563
21987483 16 18187369874431074563
22122407 14 18270692973810787233
249057 25 17845633899026287679
3534868 343 13036699844903880149
392239 28 18263939739550096009
5104073 3 18334572468701472538
5223283 242 17844545322881697718
563151 74 18408044030439529091
5951187 136 18131642183927322524
9849439 229 18191311683450391236

> <PUBCHEM_SHAPE_MULTIPOLES>
699.98
19.98
5.21
2.5
19.4
1.49
1.58
13.11
-12.01
-11.68
-3.35
2.11
0.39
-1.08

> <PUBCHEM_SHAPE_SELFOVERLAP>
1512.493

> <PUBCHEM_SHAPE_VOLUME>
389.5

> <PUBCHEM_COORDINATE_TYPE>
2
5
10

$$$$
