49830504
  -OEChem-10052115183D

 51 53  0     1  0  0  0  0  0999 V2000
   -3.9637    1.9265   -1.6304 F   0  0  0  0  0  0  0  0  0  0  0  0
    4.9893    1.9909   -0.7120 O   0  0  0  0  0  0  0  0  0  0  0  0
    0.0799   -3.4934    0.8654 O   0  0  0  0  0  0  0  0  0  0  0  0
    1.2251   -1.5156    0.4732 N   0  0  0  0  0  0  0  0  0  0  0  0
   -7.3310    1.7964   -0.2985 N   0  0  0  0  0  0  0  0  0  0  0  0
    2.5562   -2.0689    0.5782 C   0  0  1  0  0  0  0  0  0  0  0  0
    3.5315   -1.3416   -0.3220 C   0  0  0  0  0  0  0  0  0  0  0  0
    3.0052   -2.0841    2.0379 C   0  0  0  0  0  0  0  0  0  0  0  0
    3.8147    0.0060   -0.0995 C   0  0  0  0  0  0  0  0  0  0  0  0
    4.1468   -2.0191   -1.3747 C   0  0  0  0  0  0  0  0  0  0  0  0
    4.7134    0.6760   -0.9297 C   0  0  0  0  0  0  0  0  0  0  0  0
    0.0577   -2.2731    0.6256 C   0  0  0  0  0  0  0  0  0  0  0  0
   -1.2077   -1.5748    0.4662 C   0  0  0  0  0  0  0  0  0  0  0  0
    5.0453   -1.3490   -2.2047 C   0  0  0  0  0  0  0  0  0  0  0  0
    5.3285   -0.0013   -1.9824 C   0  0  0  0  0  0  0  0  0  0  0  0
   -3.6356   -0.2353    0.1610 C   0  0  0  0  0  0  0  0  0  0  0  0
   -2.3404   -2.2716    0.0451 C   0  0  0  0  0  0  0  0  0  0  0  0
   -1.2888   -0.2084    0.7346 C   0  0  0  0  0  0  0  0  0  0  0  0
    4.9094    2.4567    0.6344 C   0  0  0  0  0  0  0  0  0  0  0  0
   -3.5543   -1.6018   -0.1075 C   0  0  0  0  0  0  0  0  0  0  0  0
   -2.5028    0.4613    0.5819 C   0  0  0  0  0  0  0  0  0  0  0  0
    5.8805    3.6136    0.8129 C   0  0  0  0  0  0  0  0  0  0  0  0
   -4.8946    0.4595    0.0023 C   0  0  0  0  0  0  0  0  0  0  0  0
    5.8613    4.1534    2.2316 C   0  0  0  0  0  0  0  0  0  0  0  0
   -5.0043    1.5176   -0.8931 C   0  0  0  0  0  0  0  0  0  0  0  0
   -6.0017    0.0690    0.7475 C   0  0  0  0  0  0  0  0  0  0  0  0
   -6.2333    2.1474   -1.0054 C   0  0  0  0  0  0  0  0  0  0  0  0
   -7.1861    0.7636    0.5618 C   0  0  0  0  0  0  0  0  0  0  0  0
    2.4968   -3.1159    0.2538 H   0  0  0  0  0  0  0  0  0  0  0  0
    1.1540   -0.5306    0.2413 H   0  0  0  0  0  0  0  0  0  0  0  0
    4.0155   -2.4966    2.1348 H   0  0  0  0  0  0  0  0  0  0  0  0
    2.3315   -2.6983    2.6458 H   0  0  0  0  0  0  0  0  0  0  0  0
    3.0080   -1.0803    2.4777 H   0  0  0  0  0  0  0  0  0  0  0  0
    3.2996    0.5222    0.7054 H   0  0  0  0  0  0  0  0  0  0  0  0
    3.9365   -3.0687   -1.5615 H   0  0  0  0  0  0  0  0  0  0  0  0
    5.5244   -1.8763   -3.0245 H   0  0  0  0  0  0  0  0  0  0  0  0
    6.0294    0.5154   -2.6324 H   0  0  0  0  0  0  0  0  0  0  0  0
   -2.2968   -3.3352   -0.1747 H   0  0  0  0  0  0  0  0  0  0  0  0
   -0.4419    0.3662    1.0976 H   0  0  0  0  0  0  0  0  0  0  0  0
    3.8849    2.7902    0.8369 H   0  0  0  0  0  0  0  0  0  0  0  0
    5.1867    1.6711    1.3495 H   0  0  0  0  0  0  0  0  0  0  0  0
   -4.4236   -2.1623   -0.4435 H   0  0  0  0  0  0  0  0  0  0  0  0
   -2.5479    1.5240    0.8090 H   0  0  0  0  0  0  0  0  0  0  0  0
    6.8946    3.2867    0.5534 H   0  0  0  0  0  0  0  0  0  0  0  0
    5.6323    4.4144    0.1060 H   0  0  0  0  0  0  0  0  0  0  0  0
    6.5651    4.9857    2.3303 H   0  0  0  0  0  0  0  0  0  0  0  0
    6.1485    3.3794    2.9505 H   0  0  0  0  0  0  0  0  0  0  0  0
    4.8644    4.5182    2.4991 H   0  0  0  0  0  0  0  0  0  0  0  0
   -5.9594   -0.7475    1.4614 H   0  0  0  0  0  0  0  0  0  0  0  0
   -6.3709    2.9780   -1.6896 H   0  0  0  0  0  0  0  0  0  0  0  0
   -8.0784    0.4993    1.1199 H   0  0  0  0  0  0  0  0  0  0  0  0
  1 25  1  0  0  0  0
  2 11  1  0  0  0  0
  2 19  1  0  0  0  0
  3 12  2  0  0  0  0
  4  6  1  0  0  0  0
  4 12  1  0  0  0  0
  4 30  1  0  0  0  0
  5 27  2  0  0  0  0
  5 28  1  0  0  0  0
  6  7  1  0  0  0  0
  6  8  1  0  0  0  0
  6 29  1  0  0  0  0
  7  9  2  0  0  0  0
  7 10  1  0  0  0  0
  8 31  1  0  0  0  0
  8 32  1  0  0  0  0
  8 33  1  0  0  0  0
  9 11  1  0  0  0  0
  9 34  1  0  0  0  0
 10 14  2  0  0  0  0
 10 35  1  0  0  0  0
 11 15  2  0  0  0  0
 12 13  1  0  0  0  0
 13 17  2  0  0  0  0
 13 18  1  0  0  0  0
 14 15  1  0  0  0  0
 14 36  1  0  0  0  0
 15 37  1  0  0  0  0
 16 20  2  0  0  0  0
 16 21  1  0  0  0  0
 16 23  1  0  0  0  0
 17 20  1  0  0  0  0
 17 38  1  0  0  0  0
 18 21  2  0  0  0  0
 18 39  1  0  0  0  0
 19 22  1  0  0  0  0
 19 40  1  0  0  0  0
 19 41  1  0  0  0  0
 20 42  1  0  0  0  0
 21 43  1  0  0  0  0
 22 24  1  0  0  0  0
 22 44  1  0  0  0  0
 22 45  1  0  0  0  0
 23 25  2  0  0  0  0
 23 26  1  0  0  0  0
 24 46  1  0  0  0  0
 24 47  1  0  0  0  0
 24 48  1  0  0  0  0
 25 27  1  0  0  0  0
 26 28  2  0  0  0  0
 26 49  1  0  0  0  0
 27 50  1  0  0  0  0
 28 51  1  0  0  0  0
M  END
> <PUBCHEM_COMPOUND_CID>
49830504

> <PUBCHEM_CONFORMER_RMSD>
1

> <PUBCHEM_CONFORMER_DIVERSEORDER>
1
91
38
69
102
33
19
42
17
50
81
83
8
114
54
100
43
93
57
86
49
111
27
99
84
55
62
20
113
92
35
51
107
22
23
5
112
39
95
87
6
31
21
53
36
58
101
16
77
37
41
65
76
67
89
106
104
60
30
28
68
108
72
45
82
44
116
11
94
40
96
71
7
47
25
9
78
34
98
97
73
56
29
66
103
52
26
32
14
2
80
64
109
90
3
4
75
46
74
115
79
61
48
110
70
59
85
24
13
12
105
10
18
15
88
63

> <PUBCHEM_MMFF94_PARTIAL_CHARGES>
35
1 -0.19
10 -0.15
11 0.08
12 0.54
13 0.09
14 -0.15
15 -0.15
17 -0.15
18 -0.15
19 0.28
2 -0.36
20 -0.15
21 -0.15
25 0.19
26 -0.15
27 0.16
28 0.16
3 -0.57
30 0.37
34 0.15
35 0.15
36 0.15
37 0.15
38 0.15
39 0.15
4 -0.73
42 0.15
43 0.15
49 0.15
5 -0.62
50 0.15
51 0.15
6 0.44
7 -0.14
9 -0.15

> <PUBCHEM_EFFECTIVE_ROTOR_COUNT>
8

> <PUBCHEM_PHARMACOPHORE_FEATURES>
8
1 2 acceptor
1 24 hydrophobe
1 3 acceptor
1 4 donor
1 5 acceptor
6 13 16 17 18 20 21 rings
6 5 23 25 26 27 28 rings
6 7 9 10 11 14 15 rings

> <PUBCHEM_HEAVY_ATOM_COUNT>
28

> <PUBCHEM_ATOM_DEF_STEREO_COUNT>
0

> <PUBCHEM_ATOM_UDEF_STEREO_COUNT>
1

> <PUBCHEM_BOND_DEF_STEREO_COUNT>
0

> <PUBCHEM_BOND_UDEF_STEREO_COUNT>
0

> <PUBCHEM_ISOTOPIC_ATOM_COUNT>
0

> <PUBCHEM_COMPONENT_COUNT>
1

> <PUBCHEM_CACTVS_TAUTO_COUNT>
2

> <PUBCHEM_CONFORMER_ID>
02F85A6800000001

> <PUBCHEM_MMFF94_ENERGY>
82.195

> <PUBCHEM_FEATURE_SELFOVERLAP>
40.597

> <PUBCHEM_SHAPE_FINGERPRINT>
10042902 136 10375330949877199634
10638233 991 18271814475898205689
10670039 82 18126856992589049019
10677351 27 11599437087481091701
11135609 127 18059850697373113744
11720765 8 18200036115333889486
11991303 11 17989483018543279191
1200032 147 15864938537667935438
12047536 79 13551460471749224406
12623949 98 7781526919196179912
12661589 4 9367342682655634416
131258 43 8862388699651653338
13782708 43 10953729006602319521
13878862 14 17677314018526277127
14211702 104 10087639304031032207
14251740 57 9439407934667203624
14461889 52 16950861266285630771
14528608 73 18334861580425285167
14556957 393 16701754781819342872
14739800 52 18334284384323539986
14790565 3 18266743468267824537
14904525 67 18272374114511671721
14931854 50 18268730358825295636
15183329 4 18130516231937734711
15510800 12 9439135217176782500
17857418 61 11527654268339561663
1813 80 13110973007001876258
19053607 189 18122345937790860220
1979834 28 11241978052976659256
20715895 44 18410009979401297704
21033648 29 18187369869475852948
21049683 118 17749104508833027346
21968339 14 17561081454221750232
22864921 267 11242241935994419109
23559900 14 18272092652361605766
25122255 55 11239997862984784549
2838139 119 18335975389914715759
3388396 114 17203061780710263592
3472631 163 18410297999312315471
34797466 226 18201443554050712223
3504750 166 11602814706240448875
44249763 50 18339076107009454775
44317340 157 18272657852376243262
5109719 28 18189909784070138761
53794403 172 18042137616183614516
56633871 153 7925911461176271697
57307002 19 18124579037037455224
5951187 136 18410854391641349320
59682541 52 17274825705456623062
60123966 16 17988653999675680748
6176135 31 18187081814626082988
6695519 79 18190488067341657395
6697151 62 16666521868701909579
6898599 12 18129941307858547087
7970288 3 12031518635826611900
9849439 229 18262226811481075098

> <PUBCHEM_SHAPE_MULTIPOLES>
547.25
19.96
4.16
1.7
14.75
2.7
0.2
18.69
3.37
-6.84
-1.83
-2.72
0.2
4.11

> <PUBCHEM_SHAPE_SELFOVERLAP>
1175.205

> <PUBCHEM_SHAPE_VOLUME>
302.5

> <PUBCHEM_COORDINATE_TYPE>
2
5
10

$$$$
