49830760
  -OEChem-10052115183D

 39 42  0     0  0  0  0  0  0999 V2000
    6.8926    2.0102   -2.1804 Cl  0  0  0  0  0  0  0  0  0  0  0  0
   -0.5456   -3.0960   -0.4471 S   0  0  0  0  0  0  0  0  0  0  0  0
    2.1181   -2.6011    0.6543 O   0  0  0  0  0  0  0  0  0  0  0  0
   -3.9733   -1.6362   -1.0433 N   0  0  0  0  0  0  0  0  0  0  0  0
   -3.1066   -2.6943   -1.1720 N   0  0  0  0  0  0  0  0  0  0  0  0
    1.8453   -0.4432    1.4578 N   0  0  0  0  0  0  0  0  0  0  0  0
   -2.1564   -0.9229   -0.1241 C   0  0  0  0  0  0  0  0  0  0  0  0
   -3.4204   -0.5278   -0.4022 C   0  0  0  0  0  0  0  0  0  0  0  0
   -2.0382   -2.2126   -0.6062 C   0  0  0  0  0  0  0  0  0  0  0  0
   -0.9196   -0.5592    0.4522 C   0  0  0  0  0  0  0  0  0  0  0  0
    0.0163   -1.6065    0.3520 C   0  0  0  0  0  0  0  0  0  0  0  0
   -4.1484    0.6933   -0.1579 C   0  0  0  0  0  0  0  0  0  0  0  0
    3.1894   -0.2815    1.9640 C   0  0  0  0  0  0  0  0  0  0  0  0
    1.3689   -1.6074    0.8205 C   0  0  0  0  0  0  0  0  0  0  0  0
    4.1144    0.2909    0.9291 C   0  0  0  0  0  0  0  0  0  0  0  0
   -3.4709    1.9117   -0.1116 C   0  0  0  0  0  0  0  0  0  0  0  0
   -5.5296    0.6557    0.0320 C   0  0  0  0  0  0  0  0  0  0  0  0
   -4.1747    3.0926    0.1246 C   0  0  0  0  0  0  0  0  0  0  0  0
   -6.2335    1.8365    0.2683 C   0  0  0  0  0  0  0  0  0  0  0  0
    4.8182   -0.5596    0.0763 C   0  0  0  0  0  0  0  0  0  0  0  0
    4.2700    1.6728    0.8201 C   0  0  0  0  0  0  0  0  0  0  0  0
   -5.5560    3.0550    0.3146 C   0  0  0  0  0  0  0  0  0  0  0  0
    5.6776   -0.0282   -0.8853 C   0  0  0  0  0  0  0  0  0  0  0  0
    5.1293    2.2041   -0.1415 C   0  0  0  0  0  0  0  0  0  0  0  0
    5.8331    1.3537   -0.9942 C   0  0  0  0  0  0  0  0  0  0  0  0
   -0.7203    0.3992    0.9124 H   0  0  0  0  0  0  0  0  0  0  0  0
   -4.9085   -1.7388   -1.4177 H   0  0  0  0  0  0  0  0  0  0  0  0
    3.5635   -1.2497    2.3166 H   0  0  0  0  0  0  0  0  0  0  0  0
    3.1359    0.3766    2.8387 H   0  0  0  0  0  0  0  0  0  0  0  0
    1.2299    0.3557    1.5645 H   0  0  0  0  0  0  0  0  0  0  0  0
   -2.3971    1.9730   -0.2673 H   0  0  0  0  0  0  0  0  0  0  0  0
   -6.0842   -0.2791    0.0120 H   0  0  0  0  0  0  0  0  0  0  0  0
    4.7099   -1.6380    0.1518 H   0  0  0  0  0  0  0  0  0  0  0  0
    3.7257    2.3457    1.4774 H   0  0  0  0  0  0  0  0  0  0  0  0
   -3.6479    4.0418    0.1582 H   0  0  0  0  0  0  0  0  0  0  0  0
   -7.3088    1.8074    0.4185 H   0  0  0  0  0  0  0  0  0  0  0  0
   -6.1041    3.9744    0.4985 H   0  0  0  0  0  0  0  0  0  0  0  0
    6.2202   -0.7029   -1.5426 H   0  0  0  0  0  0  0  0  0  0  0  0
    5.2403    3.2829   -0.2152 H   0  0  0  0  0  0  0  0  0  0  0  0
  1 25  1  0  0  0  0
  2  9  1  0  0  0  0
  2 11  1  0  0  0  0
  3 14  2  0  0  0  0
  4  5  1  0  0  0  0
  4  8  1  0  0  0  0
  4 27  1  0  0  0  0
  5  9  2  0  0  0  0
  6 13  1  0  0  0  0
  6 14  1  0  0  0  0
  6 30  1  0  0  0  0
  7  8  2  0  0  0  0
  7  9  1  0  0  0  0
  7 10  1  0  0  0  0
  8 12  1  0  0  0  0
 10 11  2  0  0  0  0
 10 26  1  0  0  0  0
 11 14  1  0  0  0  0
 12 16  2  0  0  0  0
 12 17  1  0  0  0  0
 13 15  1  0  0  0  0
 13 28  1  0  0  0  0
 13 29  1  0  0  0  0
 15 20  2  0  0  0  0
 15 21  1  0  0  0  0
 16 18  1  0  0  0  0
 16 31  1  0  0  0  0
 17 19  2  0  0  0  0
 17 32  1  0  0  0  0
 18 22  2  0  0  0  0
 18 35  1  0  0  0  0
 19 22  1  0  0  0  0
 19 36  1  0  0  0  0
 20 23  1  0  0  0  0
 20 33  1  0  0  0  0
 21 24  2  0  0  0  0
 21 34  1  0  0  0  0
 22 37  1  0  0  0  0
 23 25  2  0  0  0  0
 23 38  1  0  0  0  0
 24 25  1  0  0  0  0
 24 39  1  0  0  0  0
M  END
> <PUBCHEM_COMPOUND_CID>
49830760

> <PUBCHEM_CONFORMER_RMSD>
0.8

> <PUBCHEM_CONFORMER_DIVERSEORDER>
1
19
14
20
4
21
24
13
7
10
3
8
17
23
15
9
11
5
18
16
12
22
6
2

> <PUBCHEM_MMFF94_PARTIAL_CHARGES>
37
1 -0.18
10 -0.15
11 -0.05
12 0.05
13 0.44
14 0.71
15 -0.14
16 -0.15
17 -0.15
18 -0.15
19 -0.15
2 -0.11
20 -0.15
21 -0.15
22 -0.15
23 -0.15
24 -0.15
25 0.18
26 0.15
27 0.27
3 -0.57
30 0.37
31 0.15
32 0.15
33 0.15
34 0.15
35 0.15
36 0.15
37 0.15
38 0.15
39 0.15
4 0.3
5 -0.73
6 -0.73
7 -0.01
8 -0.2
9 0.39

> <PUBCHEM_EFFECTIVE_ROTOR_COUNT>
5

> <PUBCHEM_PHARMACOPHORE_FEATURES>
8
1 3 acceptor
1 4 donor
1 5 acceptor
1 6 donor
5 2 7 9 10 11 rings
5 4 5 7 8 9 rings
6 12 16 17 18 19 22 rings
6 15 20 21 23 24 25 rings

> <PUBCHEM_HEAVY_ATOM_COUNT>
25

> <PUBCHEM_ATOM_DEF_STEREO_COUNT>
0

> <PUBCHEM_ATOM_UDEF_STEREO_COUNT>
0

> <PUBCHEM_BOND_DEF_STEREO_COUNT>
0

> <PUBCHEM_BOND_UDEF_STEREO_COUNT>
0

> <PUBCHEM_ISOTOPIC_ATOM_COUNT>
0

> <PUBCHEM_COMPONENT_COUNT>
1

> <PUBCHEM_CACTVS_TAUTO_COUNT>
7

> <PUBCHEM_CONFORMER_ID>
02F85B6800000001

> <PUBCHEM_MMFF94_ENERGY>
84.636

> <PUBCHEM_FEATURE_SELFOVERLAP>
40.864

> <PUBCHEM_SHAPE_FINGERPRINT>
10615611 76 17895199942961561612
10670039 82 18410568513711399252
11273773 42 18041005097963919708
12107183 9 18193544593903145346
12390115 104 18202284693615660435
12422481 6 17313381163143006613
12596602 18 17385722466020582969
13383665 225 18341341046030335007
13757389 114 18269840981117215847
13885169 86 18187092770886850388
13944108 23 17479741511796009025
14114211 68 18201444610675769307
14251751 18 10303807670596702041
14251764 75 18270686346877144681
14257110 125 18410572851807631689
14347329 18 18413102866353847202
1454969 45 18412536610309556317
14790565 3 18340768122640553929
14840074 17 17967253087397968965
14848178 5 10231753383689022632
14849402 71 17972878064284458626
15001296 14 18262230135501542280
15064981 194 17825962686395992430
15163728 17 18413110537097287999
15183329 4 17561091289116375296
15188451 53 9871753464340074848
15198563 99 17984129633819033927
15575132 122 18187922833794614813
15685185 35 17315374758778072396
15721738 15 17703519809566003910
16120349 67 18339656572098017528
16991971 28 17840854498697594815
1768 23 17895486894417551324
19611394 137 18115039605756257739
20567600 70 8862641517566872928
21315763 87 14490476357190829481
21315764 119 18202009798439072710
21774942 28 18337955705864161076
22061861 79 16128657470282451740
23559900 14 17916862405510659646
23572383 38 10737551818026040361
245318 6 17968673699328628085
24771750 20 18130514011456351343
249057 25 18116689937690856370
255183 451 17266643411445528159
3298306 158 17561080311133105006
3472631 163 18412263921670135431
3552219 110 18042402603593174231
3610482 184 18335709376872648238
38570 142 18113627763763804978
4058900 60 18339085869871493867
4258327 124 18333446535410402629
439807 62 11023524927525326253
444735 79 8357963430756977790
445580 204 18335139834693475364
508180 173 18341902939353606672
5104073 3 11530774652385280127
54583773 228 18335133199607281277
56616090 163 18202281373194659023
57724786 102 18187641350095886170
5911458 16 18186811283289060196
59682541 52 16271927056301246732
6034566 193 18411428297565855849
6201320 77 13253080624717079181
7288768 16 17894351077373083323
7808743 9 18412537704761397307

> <PUBCHEM_SHAPE_MULTIPOLES>
499.4
17.44
3.76
1.35
9.29
0.02
0.04
-16.76
4.85
-3.34
0.64
2.28
-0.06
-2.7

> <PUBCHEM_SHAPE_SELFOVERLAP>
1084.615

> <PUBCHEM_SHAPE_VOLUME>
275.9

> <PUBCHEM_COORDINATE_TYPE>
2
5
10

$$$$
