49830877
  -OEChem-10062121543D

 44 47  0     0  0  0  0  0  0999 V2000
    2.7044   -2.4954    0.0453 S   0  0  0  0  0  0  0  0  0  0  0  0
    1.5427   -2.6234   -0.8233 O   0  0  0  0  0  0  0  0  0  0  0  0
    3.8745   -3.3312   -0.1844 O   0  0  0  0  0  0  0  0  0  0  0  0
   -2.4345    0.8809    0.8665 N   0  0  0  0  0  0  0  0  0  0  0  0
   -0.2237    1.5733    0.1975 N   0  0  0  0  0  0  0  0  0  0  0  0
    1.7715    2.5323   -0.5575 N   0  0  0  0  0  0  0  0  0  0  0  0
   -0.1858    3.7917   -0.8052 N   0  0  0  0  0  0  0  0  0  0  0  0
    2.2035   -2.6870    1.6676 N   0  0  0  0  0  0  0  0  0  0  0  0
   -2.1027   -0.4224    1.3978 C   0  0  0  0  0  0  0  0  0  0  0  0
   -1.5475    1.7718    0.3232 C   0  0  0  0  0  0  0  0  0  0  0  0
   -2.2583    2.9000   -0.0675 C   0  0  0  0  0  0  0  0  0  0  0  0
   -3.6972    1.4146    0.8334 C   0  0  0  0  0  0  0  0  0  0  0  0
   -2.4440   -1.5544    0.4610 C   0  0  0  0  0  0  0  0  0  0  0  0
   -3.6184    2.6657    0.2594 C   0  0  0  0  0  0  0  0  0  0  0  0
    0.3733    2.6372   -0.3774 C   0  0  0  0  0  0  0  0  0  0  0  0
   -1.5227    3.9312   -0.6502 C   0  0  0  0  0  0  0  0  0  0  0  0
    2.6958    1.5175   -0.2520 C   0  0  0  0  0  0  0  0  0  0  0  0
   -3.2962   -2.5753    0.8817 C   0  0  0  0  0  0  0  0  0  0  0  0
   -1.9071   -1.5802   -0.8261 C   0  0  0  0  0  0  0  0  0  0  0  0
    3.2094   -0.8240    0.0480 C   0  0  0  0  0  0  0  0  0  0  0  0
    2.2924    0.1823   -0.2553 C   0  0  0  0  0  0  0  0  0  0  0  0
    4.0162    1.8466    0.0545 C   0  0  0  0  0  0  0  0  0  0  0  0
    4.5298   -0.4952    0.3545 C   0  0  0  0  0  0  0  0  0  0  0  0
   -3.6115   -3.6221    0.0153 C   0  0  0  0  0  0  0  0  0  0  0  0
   -2.2224   -2.6267   -1.6925 C   0  0  0  0  0  0  0  0  0  0  0  0
    4.9332    0.8401    0.3576 C   0  0  0  0  0  0  0  0  0  0  0  0
   -3.0746   -3.6479   -1.2718 C   0  0  0  0  0  0  0  0  0  0  0  0
   -1.0329   -0.4523    1.6352 H   0  0  0  0  0  0  0  0  0  0  0  0
   -2.6378   -0.5209    2.3504 H   0  0  0  0  0  0  0  0  0  0  0  0
   -4.5465    0.8659    1.2182 H   0  0  0  0  0  0  0  0  0  0  0  0
   -4.4529    3.3336    0.0959 H   0  0  0  0  0  0  0  0  0  0  0  0
   -1.9586    4.8600   -0.9962 H   0  0  0  0  0  0  0  0  0  0  0  0
    2.1892    3.4051   -0.8658 H   0  0  0  0  0  0  0  0  0  0  0  0
   -3.7219   -2.5684    1.8815 H   0  0  0  0  0  0  0  0  0  0  0  0
   -1.2336   -0.8016   -1.1713 H   0  0  0  0  0  0  0  0  0  0  0  0
    1.2827   -0.1001   -0.5311 H   0  0  0  0  0  0  0  0  0  0  0  0
    4.3430    2.8833    0.0617 H   0  0  0  0  0  0  0  0  0  0  0  0
    5.2591   -1.2619    0.6002 H   0  0  0  0  0  0  0  0  0  0  0  0
   -4.2749   -4.4172    0.3429 H   0  0  0  0  0  0  0  0  0  0  0  0
   -1.8020   -2.6483   -2.6937 H   0  0  0  0  0  0  0  0  0  0  0  0
    5.9609    1.0964    0.5979 H   0  0  0  0  0  0  0  0  0  0  0  0
   -3.3193   -4.4633   -1.9461 H   0  0  0  0  0  0  0  0  0  0  0  0
    1.1961   -2.7778    1.8477 H   0  0  0  0  0  0  0  0  0  0  0  0
    2.7898   -3.2641    2.2829 H   0  0  0  0  0  0  0  0  0  0  0  0
  1  2  2  0  0  0  0
  1  3  2  0  0  0  0
  1  8  1  0  0  0  0
  1 20  1  0  0  0  0
  4  9  1  0  0  0  0
  4 10  1  0  0  0  0
  4 12  1  0  0  0  0
  5 10  2  0  0  0  0
  5 15  1  0  0  0  0
  6 15  1  0  0  0  0
  6 17  1  0  0  0  0
  6 33  1  0  0  0  0
  7 15  2  0  0  0  0
  7 16  1  0  0  0  0
  8 43  1  0  0  0  0
  8 44  1  0  0  0  0
  9 13  1  0  0  0  0
  9 28  1  0  0  0  0
  9 29  1  0  0  0  0
 10 11  1  0  0  0  0
 11 14  1  0  0  0  0
 11 16  2  0  0  0  0
 12 14  2  0  0  0  0
 12 30  1  0  0  0  0
 13 18  2  0  0  0  0
 13 19  1  0  0  0  0
 14 31  1  0  0  0  0
 16 32  1  0  0  0  0
 17 21  2  0  0  0  0
 17 22  1  0  0  0  0
 18 24  1  0  0  0  0
 18 34  1  0  0  0  0
 19 25  2  0  0  0  0
 19 35  1  0  0  0  0
 20 21  1  0  0  0  0
 20 23  2  0  0  0  0
 21 36  1  0  0  0  0
 22 26  2  0  0  0  0
 22 37  1  0  0  0  0
 23 26  1  0  0  0  0
 23 38  1  0  0  0  0
 24 27  2  0  0  0  0
 24 39  1  0  0  0  0
 25 27  1  0  0  0  0
 25 40  1  0  0  0  0
 26 41  1  0  0  0  0
 27 42  1  0  0  0  0
M  END
> <PUBCHEM_COMPOUND_CID>
49830877

> <PUBCHEM_CONFORMER_RMSD>
0.8

> <PUBCHEM_CONFORMER_DIVERSEORDER>
1
474
42
268
436
284
145
26
96
466
280
312
339
99
23
172
337
390
248
350
245
343
40
364
174
344
300
77
136
452
122
394
207
176
446
74
169
407
85
320
97
366
10
253
348
456
277
139
429
389
203
78
69
7
173
2
459
451
346
153
165
471
14
102
267
105
50
123
431
150
488
282
381
414
5
359
306
243
34
205
104
120
46
107
128
75
387
185
342
20
440
421
94
400
264
247
98
258
182
255
152
214
175
250
362
295
213
188
288
489
422
13
25
49
301
68
131
386
399
274
405
163
27
303
133
377
271
140
467
333
41
447
53
289
134
291
485
57
6
404
160
410
79
217
426
187
287
341
388
310
95
103
292
369
464
283
465
19
361
487
355
208
206
193
32
162
149
460
438
52
18
3
371
325
305
192
458
490
307
212
65
365
126
358
233
178
223
124
360
62
397
470
9
469
299
417
326
270
76
211
118
167
262
22
235
91
476
273
281
109
8
231
67
349
269
420
416
433
296
322
110
119
473
385
479
356
491
368
21
238
92
321
272
198
202
275
441
481
38
372
444
127
54
148
375
189
246
201
39
316
59
179
101
327
115
318
463
294
4
298
222
28
336
453
278
15
155
24
70
240
191
219
259
71
209
60
87
384
137
33
477
90
236
331
200
254
395
439
129
351
44
354
475
427
80
435
334
132
141
11
89
402
29
116
357
88
242
135
376
480
197
378
161
241
482
100
106
415
263
352
194
56
230
302
428
221
286
445
379
370
171
16
419
257
93
297
17
64
374
411
147
484
125
30
383
224
225
396
432
113
437
143
373
449
472
382
210
483
63
434
340
51
130
226
478
392
424
196
82
409
195
108
237
220
442
86
117
35
309
308
170
66
154
335
266
138
345
180
450
279
486
156
455
285
403
293
251
367
457
37
159
72
199
204
83
454
276
363
398
380
319
229
61
31
328
146
183
215
84
425
406
158
190
218
228
168
184
12
177
412
401
462
73
311
408
121
304
347
157
324
393
216
47
186
43
55
468
181
112
234
45
443
353
111
81
36
330
48
114
448
430
317
265
329
144
413
244
323
239
256
142
252
418
290
227
314
461
249
261
166
151
423
232
58
313
164
338
315
260
391
332

> <PUBCHEM_MMFF94_PARTIAL_CHARGES>
41
1 1.45
10 0.11
12 -0.3
13 -0.14
14 -0.15
15 0.72
16 0.16
17 0.1
18 -0.15
19 -0.15
2 -0.65
20 -0.01
21 -0.15
22 -0.15
23 -0.15
24 -0.15
25 -0.15
26 -0.15
27 -0.15
3 -0.65
30 0.15
31 0.15
32 0.15
33 0.4
34 0.15
35 0.15
36 0.15
37 0.15
38 0.15
39 0.15
4 0.05
40 0.15
41 0.15
42 0.15
43 0.42
44 0.42
5 -0.57
6 -0.6
7 -0.62
8 -0.98
9 0.4

> <PUBCHEM_EFFECTIVE_ROTOR_COUNT>
5

> <PUBCHEM_PHARMACOPHORE_FEATURES>
9
1 2 acceptor
1 3 acceptor
1 6 donor
1 8 donor
4 5 6 7 15 cation
5 4 10 11 12 14 rings
6 13 18 19 24 25 27 rings
6 17 20 21 22 23 26 rings
6 5 7 10 11 15 16 rings

> <PUBCHEM_HEAVY_ATOM_COUNT>
27

> <PUBCHEM_ATOM_DEF_STEREO_COUNT>
0

> <PUBCHEM_ATOM_UDEF_STEREO_COUNT>
0

> <PUBCHEM_BOND_DEF_STEREO_COUNT>
0

> <PUBCHEM_BOND_UDEF_STEREO_COUNT>
0

> <PUBCHEM_ISOTOPIC_ATOM_COUNT>
0

> <PUBCHEM_COMPONENT_COUNT>
1

> <PUBCHEM_CACTVS_TAUTO_COUNT>
4

> <PUBCHEM_CONFORMER_ID>
02F85BDD00000001

> <PUBCHEM_MMFF94_ENERGY>
57.2185

> <PUBCHEM_FEATURE_SELFOVERLAP>
45.806

> <PUBCHEM_SHAPE_FINGERPRINT>
10616163 171 18410859862786313720
10871710 139 18339647857324576230
11014199 57 18410577331137372326
11552529 35 18202285822590880456
11578080 2 17702655704615817185
12100795 323 18270402668086150374
12422481 6 18122940627588535761
12539773 59 17557168360361886803
12553582 1 18120669177350001920
13004483 165 18197771301167332223
13122387 1 17905327325442545954
13140716 1 18339364174946308632
13402501 40 17547296605570059462
1361 2 18195804060275411109
13911987 19 17540539445165999996
14178342 30 18339353154265591728
14251757 5 17835544630080585702
16728300 4 16669644399698019235
19026451 147 17766549536149352567
19141452 34 18411144627792973593
19319366 153 17390530505709969634
19930381 70 17688312704243625995
21133410 171 17543292433188391098
23227448 37 18339361855552724747
23559900 14 18047750391589942728
238918 7 17043997301007762430
25265897 201 17914363227985176639
3298306 158 17255963368871028037
38695281 34 18194680372625236285
463206 1 18410575076105182816
469060 322 18267309922197290962
5309563 4 17977388561861193643
9709674 26 18264492784776611320

> <PUBCHEM_SHAPE_MULTIPOLES>
522.85
8.66
6.07
1.14
6.04
0.4
0
-3.88
1
-3.7
-1.36
-0.71
-0.64
-1.19

> <PUBCHEM_SHAPE_SELFOVERLAP>
1139.983

> <PUBCHEM_SHAPE_VOLUME>
285.4

> <PUBCHEM_COORDINATE_TYPE>
2
5
10

$$$$
