23882428
  -OEChem-10052115193D

 38 41  0     0  0  0  0  0  0999 V2000
   -5.4516   -0.2840   -1.6346 Cl  0  0  0  0  0  0  0  0  0  0  0  0
   -2.8777    1.4757   -1.0552 S   0  0  0  0  0  0  0  0  0  0  0  0
    0.1666   -1.5429    2.2852 O   0  0  0  0  0  0  0  0  0  0  0  0
    5.4745   -0.6952   -1.0615 O   0  0  0  0  0  0  0  0  0  0  0  0
   -0.6733   -0.1192    0.6373 N   0  0  0  0  0  0  0  0  0  0  0  0
   -3.1719   -2.8868    0.2389 N   0  0  0  0  0  0  0  0  0  0  0  0
   -0.5316    1.3109    0.4713 C   0  0  0  0  0  0  0  0  0  0  0  0
   -1.8893   -0.7897    0.2539 C   0  0  0  0  0  0  0  0  0  0  0  0
   -1.4347    2.1029   -0.2513 C   0  0  0  0  0  0  0  0  0  0  0  0
   -2.9306   -0.1833   -0.4534 C   0  0  0  0  0  0  0  0  0  0  0  0
    0.3415   -0.8515    1.2829 C   0  0  0  0  0  0  0  0  0  0  0  0
    0.5506    1.9773    1.0935 C   0  0  0  0  0  0  0  0  0  0  0  0
    1.7004   -0.8099    0.6623 C   0  0  0  0  0  0  0  0  0  0  0  0
   -1.2246    3.4916   -0.3749 C   0  0  0  0  0  0  0  0  0  0  0  0
   -2.0748   -2.1506    0.5426 C   0  0  0  0  0  0  0  0  0  0  0  0
   -4.0811   -0.9180   -0.7807 C   0  0  0  0  0  0  0  0  0  0  0  0
    0.7502    3.3544    0.9695 C   0  0  0  0  0  0  0  0  0  0  0  0
   -0.1366    4.1135    0.2271 C   0  0  0  0  0  0  0  0  0  0  0  0
    1.8327   -0.6511   -0.7172 C   0  0  0  0  0  0  0  0  0  0  0  0
    2.8366   -0.9303    1.4626 C   0  0  0  0  0  0  0  0  0  0  0  0
   -4.1552   -2.2466   -0.4112 C   0  0  0  0  0  0  0  0  0  0  0  0
    3.1008   -0.6126   -1.2965 C   0  0  0  0  0  0  0  0  0  0  0  0
    4.1050   -0.8917    0.8832 C   0  0  0  0  0  0  0  0  0  0  0  0
    4.2370   -0.7330   -0.4964 C   0  0  0  0  0  0  0  0  0  0  0  0
    5.5370   -0.5301   -2.4774 C   0  0  0  0  0  0  0  0  0  0  0  0
    1.2512    1.4619    1.7426 H   0  0  0  0  0  0  0  0  0  0  0  0
   -1.9175    4.1105   -0.9430 H   0  0  0  0  0  0  0  0  0  0  0  0
   -1.3232   -2.7576    1.0337 H   0  0  0  0  0  0  0  0  0  0  0  0
    1.5917    3.8279    1.4664 H   0  0  0  0  0  0  0  0  0  0  0  0
    0.0073    5.1846    0.1259 H   0  0  0  0  0  0  0  0  0  0  0  0
    0.9661   -0.5736   -1.3682 H   0  0  0  0  0  0  0  0  0  0  0  0
    2.7521   -1.0497    2.5395 H   0  0  0  0  0  0  0  0  0  0  0  0
   -5.0216   -2.8605   -0.6367 H   0  0  0  0  0  0  0  0  0  0  0  0
    3.1311   -0.4908   -2.3738 H   0  0  0  0  0  0  0  0  0  0  0  0
    4.9865   -0.9846    1.5116 H   0  0  0  0  0  0  0  0  0  0  0  0
    5.0764   -1.3742   -3.0016 H   0  0  0  0  0  0  0  0  0  0  0  0
    5.1163    0.4320   -2.7893 H   0  0  0  0  0  0  0  0  0  0  0  0
    6.5960   -0.5208   -2.7552 H   0  0  0  0  0  0  0  0  0  0  0  0
  1 16  1  0  0  0  0
  2  9  1  0  0  0  0
  2 10  1  0  0  0  0
  3 11  2  0  0  0  0
  4 24  1  0  0  0  0
  4 25  1  0  0  0  0
  5  7  1  0  0  0  0
  5  8  1  0  0  0  0
  5 11  1  0  0  0  0
  6 15  1  0  0  0  0
  6 21  2  0  0  0  0
  7  9  1  0  0  0  0
  7 12  2  0  0  0  0
  8 10  1  0  0  0  0
  8 15  2  0  0  0  0
  9 14  2  0  0  0  0
 10 16  2  0  0  0  0
 11 13  1  0  0  0  0
 12 17  1  0  0  0  0
 12 26  1  0  0  0  0
 13 19  2  0  0  0  0
 13 20  1  0  0  0  0
 14 18  1  0  0  0  0
 14 27  1  0  0  0  0
 15 28  1  0  0  0  0
 16 21  1  0  0  0  0
 17 18  2  0  0  0  0
 17 29  1  0  0  0  0
 18 30  1  0  0  0  0
 19 22  1  0  0  0  0
 19 31  1  0  0  0  0
 20 23  2  0  0  0  0
 20 32  1  0  0  0  0
 21 33  1  0  0  0  0
 22 24  2  0  0  0  0
 22 34  1  0  0  0  0
 23 24  1  0  0  0  0
 23 35  1  0  0  0  0
 25 36  1  0  0  0  0
 25 37  1  0  0  0  0
 25 38  1  0  0  0  0
M  END
> <PUBCHEM_COMPOUND_CID>
23882428

> <PUBCHEM_CONFORMER_RMSD>
0.6

> <PUBCHEM_CONFORMER_DIVERSEORDER>
1
10
23
25
8
6
26
24
9
18
29
16
21
30
27
17
22
28
15
14
19
20
2
13
12
7
5
11
4
3

> <PUBCHEM_MMFF94_PARTIAL_CHARGES>
35
1 -0.18
10 0.1
11 0.54
12 -0.15
13 0.09
14 -0.15
15 0.16
16 0.18
17 -0.15
18 -0.15
19 -0.15
2 -0.2
20 -0.15
21 0.16
22 -0.15
23 -0.15
24 0.08
25 0.28
26 0.15
27 0.15
28 0.15
29 0.15
3 -0.57
30 0.15
31 0.15
32 0.15
33 0.15
34 0.15
35 0.15
4 -0.36
5 -0.29
6 -0.62
7 0.12
8 0.12
9 0.1

> <PUBCHEM_EFFECTIVE_ROTOR_COUNT>
3.4

> <PUBCHEM_PHARMACOPHORE_FEATURES>
7
1 3 acceptor
1 4 acceptor
1 6 acceptor
6 13 19 20 22 23 24 rings
6 2 5 7 8 9 10 rings
6 6 8 10 15 16 21 rings
6 7 9 12 14 17 18 rings

> <PUBCHEM_HEAVY_ATOM_COUNT>
25

> <PUBCHEM_ATOM_DEF_STEREO_COUNT>
0

> <PUBCHEM_ATOM_UDEF_STEREO_COUNT>
0

> <PUBCHEM_BOND_DEF_STEREO_COUNT>
0

> <PUBCHEM_BOND_UDEF_STEREO_COUNT>
0

> <PUBCHEM_ISOTOPIC_ATOM_COUNT>
0

> <PUBCHEM_COMPONENT_COUNT>
1

> <PUBCHEM_CACTVS_TAUTO_COUNT>
1

> <PUBCHEM_CONFORMER_ID>
016C6ABC00000001

> <PUBCHEM_MMFF94_ENERGY>
116.1475

> <PUBCHEM_FEATURE_SELFOVERLAP>
35.555

> <PUBCHEM_SHAPE_FINGERPRINT>
1100329 8 18339636751294101089
11477941 20 18198366047286419020
11578080 2 16882117586981798876
11640471 11 17533791403346845544
12293681 160 18186239532609324632
12553582 1 18410009931824231139
12741549 16 17203027626338275099
12788726 201 18335420106271994554
13009979 54 17608905626350505106
13140716 1 18263916804440826075
13149001 5 18190180289710664843
133893 2 17908446966416795729
13540713 4 17973430290605990955
13544653 18 16988847189295799482
13583140 156 17628887112130630570
14251757 5 18336829701980583557
14347332 77 18268717100140368566
14790565 3 17907855103118902241
15475509 8 18201722800287412869
16752209 62 18190726566911902523
16994733 274 15285352921335322045
17357779 13 18131338709453056925
17818456 19 17830716678743778258
1813 80 18201438111894488283
19319366 153 17604981521560453891
20642791 239 17967257519809427813
20642791 35 18337096930904571321
20775438 99 17474940408015867766
20871999 31 18411698751498183639
20905425 154 18265038318368667513
21285901 2 17988077786325491055
22182313 1 18197754752205050081
22620623 9 17987514818902114477
23352939 185 18201443617984702384
23419403 2 17973409338980224012
23557571 272 18201428139365458288
23558518 356 17758673343738868451
23559900 14 18338226184552936245
24893989 43 16759648429068644789
255183 451 18054513779570001351
266924 1 17896874357674393426
2838139 119 15213013869216235438
3298306 158 17832706051586981052
352729 6 17400616257293766129
4280585 95 18340756135191645266
465052 167 13110669623401802039
484985 159 15983708718921766998
57527293 21 17629166512263480290
6669772 16 17480024533224995780
6823239 73 18265036094012925681
7164475 11 18192987128453863258
81228 2 18270967825773886489
84936 31 17486482978077897705
9709674 26 18048862285702917487

> <PUBCHEM_SHAPE_MULTIPOLES>
498.51
9.53
3.79
1.7
5.06
4.57
-0.31
-6.73
-6.86
-2.53
0.8
1.64
-0.48
0.56

> <PUBCHEM_SHAPE_SELFOVERLAP>
1084.321

> <PUBCHEM_SHAPE_VOLUME>
272.7

> <PUBCHEM_COORDINATE_TYPE>
2
5
10

$$$$
