49830316
  -OEChem-10052115183D

 23 25  0     0  0  0  0  0  0999 V2000
   -4.8558   -1.0830   -0.7117 Cl  0  0  0  0  0  0  0  0  0  0  0  0
    1.8265   -2.0283    0.3212 N   0  0  0  0  0  0  0  0  0  0  0  0
    3.7540   -0.6265   -0.0300 N   0  0  0  0  0  0  0  0  0  0  0  0
   -1.2942    1.2601    0.5387 N   0  0  0  0  0  0  0  0  0  0  0  0
   -3.6631    1.0499    0.1495 N   0  0  0  0  0  0  0  0  0  0  0  0
    1.4244    0.1392   -0.0361 C   0  0  0  0  0  0  0  0  0  0  0  0
    0.1876   -0.5334    0.1494 C   0  0  0  0  0  0  0  0  0  0  0  0
    2.4259   -0.8207    0.0770 C   0  0  0  0  0  0  0  0  0  0  0  0
    0.4662   -1.8655    0.3668 C   0  0  0  0  0  0  0  0  0  0  0  0
   -1.1520   -0.0199    0.1364 C   0  0  0  0  0  0  0  0  0  0  0  0
    1.8227    1.4618   -0.2897 C   0  0  0  0  0  0  0  0  0  0  0  0
    3.1872    1.7189   -0.4097 C   0  0  0  0  0  0  0  0  0  0  0  0
   -2.2029   -0.8175   -0.2681 C   0  0  0  0  0  0  0  0  0  0  0  0
    4.0799    0.6643   -0.2739 C   0  0  0  0  0  0  0  0  0  0  0  0
   -3.4483   -0.2237   -0.2407 C   0  0  0  0  0  0  0  0  0  0  0  0
   -2.5582    1.7244    0.5207 C   0  0  0  0  0  0  0  0  0  0  0  0
   -0.1660   -2.7216    0.5610 H   0  0  0  0  0  0  0  0  0  0  0  0
    2.3139   -2.9042    0.4500 H   0  0  0  0  0  0  0  0  0  0  0  0
    1.1044    2.2681   -0.3956 H   0  0  0  0  0  0  0  0  0  0  0  0
    3.5438    2.7243   -0.6064 H   0  0  0  0  0  0  0  0  0  0  0  0
   -2.0817   -1.8409   -0.6030 H   0  0  0  0  0  0  0  0  0  0  0  0
    5.1474    0.8468   -0.3647 H   0  0  0  0  0  0  0  0  0  0  0  0
   -2.7013    2.7498    0.8386 H   0  0  0  0  0  0  0  0  0  0  0  0
  1 15  1  0  0  0  0
  2  8  1  0  0  0  0
  2  9  1  0  0  0  0
  2 18  1  0  0  0  0
  3  8  1  0  0  0  0
  3 14  2  0  0  0  0
  4 10  1  0  0  0  0
  4 16  2  0  0  0  0
  5 15  2  0  0  0  0
  5 16  1  0  0  0  0
  6  7  1  0  0  0  0
  6  8  2  0  0  0  0
  6 11  1  0  0  0  0
  7  9  2  0  0  0  0
  7 10  1  0  0  0  0
  9 17  1  0  0  0  0
 10 13  2  0  0  0  0
 11 12  2  0  0  0  0
 11 19  1  0  0  0  0
 12 14  1  0  0  0  0
 12 20  1  0  0  0  0
 13 15  1  0  0  0  0
 13 21  1  0  0  0  0
 14 22  1  0  0  0  0
 16 23  1  0  0  0  0
M  END
> <PUBCHEM_COMPOUND_CID>
49830316

> <PUBCHEM_CONFORMER_RMSD>
0.6

> <PUBCHEM_CONFORMER_DIVERSEORDER>
1
4
3
5
2

> <PUBCHEM_MMFF94_PARTIAL_CHARGES>
22
1 -0.18
10 0.36
11 -0.15
12 -0.15
13 -0.15
14 0.16
15 0.49
16 0.47
17 0.15
18 0.27
19 0.15
2 0.03
20 0.15
21 0.15
22 0.15
23 0.15
3 -0.57
4 -0.62
5 -0.62
7 -0.05
8 0.11
9 -0.3

> <PUBCHEM_EFFECTIVE_ROTOR_COUNT>
1

> <PUBCHEM_PHARMACOPHORE_FEATURES>
8
1 2 cation
1 2 donor
1 3 acceptor
1 5 acceptor
3 4 5 16 cation
5 2 6 7 8 9 rings
6 3 6 8 11 12 14 rings
6 4 5 10 13 15 16 rings

> <PUBCHEM_HEAVY_ATOM_COUNT>
16

> <PUBCHEM_ATOM_DEF_STEREO_COUNT>
0

> <PUBCHEM_ATOM_UDEF_STEREO_COUNT>
0

> <PUBCHEM_BOND_DEF_STEREO_COUNT>
0

> <PUBCHEM_BOND_UDEF_STEREO_COUNT>
0

> <PUBCHEM_ISOTOPIC_ATOM_COUNT>
0

> <PUBCHEM_COMPONENT_COUNT>
1

> <PUBCHEM_CACTVS_TAUTO_COUNT>
5

> <PUBCHEM_CONFORMER_ID>
02F859AC00000001

> <PUBCHEM_MMFF94_ENERGY>
34.4777

> <PUBCHEM_FEATURE_SELFOVERLAP>
40.709

> <PUBCHEM_SHAPE_FINGERPRINT>
10608611 8 18334294223671796837
10967382 1 18409168822429282408
10980938 120 18335422327128620040
11471102 20 18334573551343889326
11806522 49 18411134757709557719
13380535 76 18334859441499838834
13583140 156 16371285640136968905
13862211 1 18263078839147119578
14144814 61 18409450245644833065
14251717 144 18335417976068305958
14415576 193 18408608050008488588
14576447 43 18270951462265266015
14897335 6 18409166649265566354
15196674 1 18411138021763480724
15442244 35 18122627141492690298
15536298 74 18342740693760982084
15775835 57 18412270518766541724
16945 1 18409177605722039234
17492 89 18340768135531406087
17802600 8 18409442596403381580
17862501 102 18410003326080075274
18186145 218 18335703819100564238
19050596 39 18411702062965474185
19422 9 18272653415891128727
200 152 18413102879581626959
20279233 1 16081088169190373323
20300324 65 18130788983983521193
20645477 70 18410290285461367895
21267235 1 18411990156181137999
21501502 16 18339642231212622705
21524375 3 18335138730438208074
221490 88 18336837419773622410
22854114 111 18335141981480492312
231179 274 17385995178757451156
23402539 116 18272082816258010252
23402655 69 18411135801460658677
23557571 272 17418379090356281425
23559900 14 18198616644809411650
25 1 18333734606881769126
25610 137 18410577322931890411
2748010 2 17403742640854850104
2871803 45 18410287038855942951
474 4 18041563645359519412
4990 188 18059585671920544118
5104073 3 18411138013226060771
57096353 35 18412824720124490325
58051976 378 18413669131948648327
603831 33 18270950319793259799
6333272 397 18334577996492602866
7364860 26 18269559342899767494
7832392 63 18124318198813475320
9709674 26 18411426085436736567
9981440 41 17545032067348085536

> <PUBCHEM_SHAPE_MULTIPOLES>
311.22
8.1
1.94
0.72
3.47
0.01
-0.03
-0.54
-1.58
-0.35
0.19
0.19
-0.02
-0.81

> <PUBCHEM_SHAPE_SELFOVERLAP>
690.89

> <PUBCHEM_SHAPE_VOLUME>
167.3

> <PUBCHEM_COORDINATE_TYPE>
2
5
10

$$$$
