49830361
  -OEChem-10052115183D

 51 54  0     0  0  0  0  0  0999 V2000
   -2.0075   -2.7358    0.0990 O   0  0  0  0  0  0  0  0  0  0  0  0
   -4.1362   -3.5130   -0.3057 O   0  0  0  0  0  0  0  0  0  0  0  0
    3.5648    0.1336   -1.1194 O   0  0  0  0  0  0  0  0  0  0  0  0
   -4.9748    0.6589   -0.2838 N   0  0  0  0  0  0  0  0  0  0  0  0
   -6.0258    1.5005   -0.4356 N   0  0  0  0  0  0  0  0  0  0  0  0
   -4.4535    3.2934   -0.0870 N   0  0  0  0  0  0  0  0  0  0  0  0
   -2.1870    3.0322    0.3031 N   0  0  0  0  0  0  0  0  0  0  0  0
    2.6451    0.0337    1.0332 N   0  0  0  0  0  0  0  0  0  0  0  0
    4.9394    0.0912    0.7721 N   0  0  0  0  0  0  0  0  0  0  0  0
   -2.8897   -0.0404    0.0553 C   0  0  0  0  0  0  0  0  0  0  0  0
   -3.6916    1.0760   -0.0410 C   0  0  0  0  0  0  0  0  0  0  0  0
   -3.7235   -1.1707   -0.1373 C   0  0  0  0  0  0  0  0  0  0  0  0
   -5.0062   -0.7097   -0.3447 C   0  0  0  0  0  0  0  0  0  0  0  0
   -1.4755   -0.0222    0.3050 C   0  0  0  0  0  0  0  0  0  0  0  0
   -3.4284    2.4915    0.0619 C   0  0  0  0  0  0  0  0  0  0  0  0
   -6.2624   -1.4495   -0.5942 C   0  0  0  0  0  0  0  0  0  0  0  0
   -0.5794    0.0349   -0.7625 C   0  0  0  0  0  0  0  0  0  0  0  0
   -0.9980   -0.0607    1.6150 C   0  0  0  0  0  0  0  0  0  0  0  0
   -3.3515   -2.5585   -0.1291 C   0  0  0  0  0  0  0  0  0  0  0  0
    1.2714    0.0144    0.7901 C   0  0  0  0  0  0  0  0  0  0  0  0
    0.7940    0.0531   -0.5200 C   0  0  0  0  0  0  0  0  0  0  0  0
    0.3753   -0.0425    1.8576 C   0  0  0  0  0  0  0  0  0  0  0  0
   -5.7059    2.7593   -0.3293 C   0  0  0  0  0  0  0  0  0  0  0  0
    3.7075    0.0908    0.0983 C   0  0  0  0  0  0  0  0  0  0  0  0
   -1.5130   -4.0790    0.1303 C   0  0  0  0  0  0  0  0  0  0  0  0
    6.2381    0.1392    0.2123 C   0  0  0  0  0  0  0  0  0  0  0  0
    7.3566    0.1311    1.0457 C   0  0  0  0  0  0  0  0  0  0  0  0
    6.4002    0.1945   -1.1719 C   0  0  0  0  0  0  0  0  0  0  0  0
    8.6373    0.1784    0.4948 C   0  0  0  0  0  0  0  0  0  0  0  0
    7.6808    0.2417   -1.7229 C   0  0  0  0  0  0  0  0  0  0  0  0
    8.7993    0.2337   -0.8894 C   0  0  0  0  0  0  0  0  0  0  0  0
   -6.1764   -2.0506   -1.5054 H   0  0  0  0  0  0  0  0  0  0  0  0
   -7.1286   -0.7929   -0.7186 H   0  0  0  0  0  0  0  0  0  0  0  0
   -6.4816   -2.1218    0.2419 H   0  0  0  0  0  0  0  0  0  0  0  0
   -0.9366    0.0654   -1.7893 H   0  0  0  0  0  0  0  0  0  0  0  0
   -1.6832   -0.1053    2.4583 H   0  0  0  0  0  0  0  0  0  0  0  0
    1.4213    0.0976   -1.3987 H   0  0  0  0  0  0  0  0  0  0  0  0
    0.7333   -0.0730    2.8836 H   0  0  0  0  0  0  0  0  0  0  0  0
   -6.5171    3.4971   -0.4431 H   0  0  0  0  0  0  0  0  0  0  0  0
   -1.3512    2.4760    0.4286 H   0  0  0  0  0  0  0  0  0  0  0  0
   -2.0707    4.0384    0.3639 H   0  0  0  0  0  0  0  0  0  0  0  0
    2.9159    0.0031    2.0130 H   0  0  0  0  0  0  0  0  0  0  0  0
   -0.4372   -4.0409    0.3199 H   0  0  0  0  0  0  0  0  0  0  0  0
   -1.6853   -4.5656   -0.8341 H   0  0  0  0  0  0  0  0  0  0  0  0
   -1.9949   -4.6383    0.9374 H   0  0  0  0  0  0  0  0  0  0  0  0
    4.9043    0.0523    1.7876 H   0  0  0  0  0  0  0  0  0  0  0  0
    7.2444    0.0882    2.1260 H   0  0  0  0  0  0  0  0  0  0  0  0
    5.5866    0.2043   -1.8829 H   0  0  0  0  0  0  0  0  0  0  0  0
    9.5082    0.1722    1.1436 H   0  0  0  0  0  0  0  0  0  0  0  0
    7.8086    0.2848   -2.8007 H   0  0  0  0  0  0  0  0  0  0  0  0
    9.7964    0.2706   -1.3184 H   0  0  0  0  0  0  0  0  0  0  0  0
  1 19  1  0  0  0  0
  1 25  1  0  0  0  0
  2 19  2  0  0  0  0
  3 24  2  0  0  0  0
  4  5  1  0  0  0  0
  4 11  1  0  0  0  0
  4 13  1  0  0  0  0
  5 23  2  0  0  0  0
  6 15  2  0  0  0  0
  6 23  1  0  0  0  0
  7 15  1  0  0  0  0
  7 40  1  0  0  0  0
  7 41  1  0  0  0  0
  8 20  1  0  0  0  0
  8 24  1  0  0  0  0
  8 42  1  0  0  0  0
  9 24  1  0  0  0  0
  9 26  1  0  0  0  0
  9 46  1  0  0  0  0
 10 11  2  0  0  0  0
 10 12  1  0  0  0  0
 10 14  1  0  0  0  0
 11 15  1  0  0  0  0
 12 13  2  0  0  0  0
 12 19  1  0  0  0  0
 13 16  1  0  0  0  0
 14 17  2  0  0  0  0
 14 18  1  0  0  0  0
 16 32  1  0  0  0  0
 16 33  1  0  0  0  0
 16 34  1  0  0  0  0
 17 21  1  0  0  0  0
 17 35  1  0  0  0  0
 18 22  2  0  0  0  0
 18 36  1  0  0  0  0
 20 21  2  0  0  0  0
 20 22  1  0  0  0  0
 21 37  1  0  0  0  0
 22 38  1  0  0  0  0
 23 39  1  0  0  0  0
 25 43  1  0  0  0  0
 25 44  1  0  0  0  0
 25 45  1  0  0  0  0
 26 27  2  0  0  0  0
 26 28  1  0  0  0  0
 27 29  1  0  0  0  0
 27 47  1  0  0  0  0
 28 30  2  0  0  0  0
 28 48  1  0  0  0  0
 29 31  2  0  0  0  0
 29 49  1  0  0  0  0
 30 31  1  0  0  0  0
 30 50  1  0  0  0  0
 31 51  1  0  0  0  0
M  END
> <PUBCHEM_COMPOUND_CID>
49830361

> <PUBCHEM_CONFORMER_RMSD>
1

> <PUBCHEM_CONFORMER_DIVERSEORDER>
1
9
8
3
7
6
2
13
12
5
10
4
14
11

> <PUBCHEM_MMFF94_PARTIAL_CHARGES>
45
1 -0.43
10 -0.05
11 -0.24
12 -0.09
13 -0.33
14 0.05
15 0.58
16 0.18
17 -0.15
18 -0.15
19 0.81
2 -0.57
20 0.12
21 -0.15
22 -0.15
23 0.6
24 0.69
25 0.28
26 0.12
27 -0.15
28 -0.15
29 -0.15
3 -0.57
30 -0.15
31 -0.15
35 0.15
36 0.15
37 0.15
38 0.15
39 0.06
4 0.51
40 0.4
41 0.4
42 0.37
46 0.37
47 0.15
48 0.15
49 0.15
5 -0.65
50 0.15
51 0.15
6 -0.66
7 -0.85
8 -0.55
9 -0.55

> <PUBCHEM_EFFECTIVE_ROTOR_COUNT>
7

> <PUBCHEM_PHARMACOPHORE_FEATURES>
11
1 2 acceptor
1 3 acceptor
1 7 donor
1 8 donor
1 9 donor
3 5 6 23 cation
3 6 7 15 cation
5 4 10 11 12 13 rings
6 14 17 18 20 21 22 rings
6 26 27 28 29 30 31 rings
6 4 5 6 11 15 23 rings

> <PUBCHEM_HEAVY_ATOM_COUNT>
31

> <PUBCHEM_ATOM_DEF_STEREO_COUNT>
0

> <PUBCHEM_ATOM_UDEF_STEREO_COUNT>
0

> <PUBCHEM_BOND_DEF_STEREO_COUNT>
0

> <PUBCHEM_BOND_UDEF_STEREO_COUNT>
0

> <PUBCHEM_ISOTOPIC_ATOM_COUNT>
0

> <PUBCHEM_COMPONENT_COUNT>
1

> <PUBCHEM_CACTVS_TAUTO_COUNT>
128

> <PUBCHEM_CONFORMER_ID>
02F859D900000001

> <PUBCHEM_MMFF94_ENERGY>
95.5406

> <PUBCHEM_FEATURE_SELFOVERLAP>
56.105

> <PUBCHEM_SHAPE_FINGERPRINT>
10076449 9 18131353029570191875
10165383 225 18272092657188784489
10299344 5 18040151817185372898
10411042 1 18050285075441062455
10670039 82 18408315588843070717
10940486 97 18335701701613271820
11200772 48 18408889542255194210
11315181 36 17894632577792257029
11524674 6 17561082540242302278
12082328 90 18411417311239953190
12236239 1 17822287963864024265
12741549 16 17131837616569682931
12758862 11 18201152264572622778
13782708 43 17703220849107550334
13885169 127 18411698790590752030
13947920 75 18260545623610208760
14251764 18 17748828514629788852
14856354 85 18409732901838270887
150020 25 18060704992618048924
15021287 119 17167866365663764524
15183329 4 18408044001123895976
15230672 131 18338514137111222658
15276724 80 17240197717060061284
15297060 5 18342176618753424825
15419008 47 17775279457238270072
15419008 91 18059276739688136432
15439362 3 18049441440340963383
15461852 350 18411143550414922076
15510794 2 18060139839573342718
1577012 14 17967812713415688624
15876981 60 18334018323494338253
16114785 44 17129891347412185617
16992828 155 17460026293189347741
20505436 4 17967810488849145387
20609170 92 18201450142994950446
20771845 165 18195534692315311407
21792961 116 17632298943834205630
23081809 10 17821445768971289954
23198884 109 18335422361551759480
23522609 53 17749689415297555892
23559900 14 18201712972610942640
23576562 1 18044668718500799604
24771293 8 17895756331387194404
249057 3 18410009970078023005
335352 9 18411130326295423101
394071 54 16008753498939533998
397830 11 17773304850624063530
4073 2 18187088343355862762
44555599 121 17894920642035368660
445580 37 18409171004489212996
5265222 85 18269556194820744662
57527295 17 16916498131104666925
58260988 114 16009327512475763195
58902169 19 17894916244056695198
99344 41 18408882915949129994

> <PUBCHEM_SHAPE_MULTIPOLES>
590.47
22.73
3.16
1.19
52.62
1.44
-0.16
-4.8
5.77
-8.86
0.18
1.7
-0.03
-0.23

> <PUBCHEM_SHAPE_SELFOVERLAP>
1302.594

> <PUBCHEM_SHAPE_VOLUME>
314.8

> <PUBCHEM_COORDINATE_TYPE>
2
5
10

$$$$
