44352790
  -OEChem-10062122013D

 75 82  0     1  0  0  0  0  0999 V2000
    0.0517    1.8623   -2.5651 O   0  0  0  0  0  0  0  0  0  0  0  0
   -3.3429    1.2028   -1.2180 O   0  0  0  0  0  0  0  0  0  0  0  0
   -2.7663    1.2807    1.2099 O   0  0  0  0  0  0  0  0  0  0  0  0
    1.7196   -4.7794    0.2553 O   0  0  0  0  0  0  0  0  0  0  0  0
    5.0612   -1.8282    1.3763 O   0  0  0  0  0  0  0  0  0  0  0  0
   -1.7584   -0.6852    1.8917 O   0  0  0  0  0  0  0  0  0  0  0  0
   -0.6673   -0.1502   -1.5625 N   0  0  0  0  0  0  0  0  0  0  0  0
    1.5051    1.7541   -0.7658 N   0  0  0  0  0  0  0  0  0  0  0  0
   -1.4354    1.7718    0.8757 N   0  0  1  0  0  0  0  0  0  0  0  0
    3.5870   -3.5867    0.9695 N   0  0  0  0  0  0  0  0  0  0  0  0
   -1.0945    1.0648   -2.2609 C   0  0  1  0  0  0  0  0  0  0  0  0
   -2.1590    1.9248   -1.5232 C   0  0  2  0  0  0  0  0  0  0  0  0
    0.6059    2.6017   -1.5020 C   0  0  2  0  0  0  0  0  0  0  0  0
   -1.6459    2.6484   -0.2742 C   0  0  2  0  0  0  0  0  0  0  0  0
   -0.3812    3.4085   -0.6530 C   0  0  0  0  0  0  0  0  0  0  0  0
    0.5209   -0.5043   -0.9540 C   0  0  0  0  0  0  0  0  0  0  0  0
    1.5617    0.4037   -0.5840 C   0  0  0  0  0  0  0  0  0  0  0  0
    0.7740   -1.8855   -0.5748 C   0  0  0  0  0  0  0  0  0  0  0  0
   -1.6003    0.7376   -3.6883 C   0  0  0  0  0  0  0  0  0  0  0  0
    2.7146   -0.1870    0.0749 C   0  0  0  0  0  0  0  0  0  0  0  0
   -1.3643   -1.3765   -1.5091 C   0  0  0  0  0  0  0  0  0  0  0  0
    2.6939    2.1832   -0.1713 C   0  0  0  0  0  0  0  0  0  0  0  0
   -0.5290   -2.4091   -0.9760 C   0  0  0  0  0  0  0  0  0  0  0  0
    3.4329    1.0682    0.3194 C   0  0  0  0  0  0  0  0  0  0  0  0
    1.9247   -2.4106    0.0071 C   0  0  0  0  0  0  0  0  0  0  0  0
    2.9311   -1.5312    0.3416 C   0  0  0  0  0  0  0  0  0  0  0  0
   -2.6855   -1.6960   -1.9019 C   0  0  0  0  0  0  0  0  0  0  0  0
    3.1878    3.4982   -0.0361 C   0  0  0  0  0  0  0  0  0  0  0  0
   -1.0712   -3.7190   -0.8854 C   0  0  0  0  0  0  0  0  0  0  0  0
    2.3430   -3.7484    0.4068 C   0  0  0  0  0  0  0  0  0  0  0  0
    4.0122   -2.2802    0.9638 C   0  0  0  0  0  0  0  0  0  0  0  0
   -1.0202    2.5385    2.0461 C   0  0  0  0  0  0  0  0  0  0  0  0
    4.6751    1.3399    0.9481 C   0  0  0  0  0  0  0  0  0  0  0  0
   -4.4836    2.0515   -1.1980 C   0  0  0  0  0  0  0  0  0  0  0  0
   -3.1730   -2.9991   -1.7929 C   0  0  0  0  0  0  0  0  0  0  0  0
   -2.3730   -4.0050   -1.2933 C   0  0  0  0  0  0  0  0  0  0  0  0
    4.4160    3.7130    0.5877 C   0  0  0  0  0  0  0  0  0  0  0  0
    5.1528    2.6474    1.0746 C   0  0  0  0  0  0  0  0  0  0  0  0
   -2.6657    0.1363    1.9581 C   0  0  0  0  0  0  0  0  0  0  0  0
   -3.8653    0.0213    2.9058 C   0  0  0  0  0  0  0  0  0  0  0  0
   -5.1619   -0.0242    2.0862 C   0  0  0  0  0  0  0  0  0  0  0  0
   -3.8786    1.2199    3.8640 C   0  0  0  0  0  0  0  0  0  0  0  0
   -3.7485   -1.2728    3.7273 C   0  0  0  0  0  0  0  0  0  0  0  0
   -2.4200    2.7222   -2.2380 H   0  0  0  0  0  0  0  0  0  0  0  0
    1.2524    3.3334   -2.0022 H   0  0  0  0  0  0  0  0  0  0  0  0
   -2.3892    3.4045    0.0154 H   0  0  0  0  0  0  0  0  0  0  0  0
   -0.7162    4.2419   -1.2899 H   0  0  0  0  0  0  0  0  0  0  0  0
    0.1169    3.9008    0.1863 H   0  0  0  0  0  0  0  0  0  0  0  0
   -0.9246    0.0376   -4.1952 H   0  0  0  0  0  0  0  0  0  0  0  0
   -1.6179    1.6445   -4.3071 H   0  0  0  0  0  0  0  0  0  0  0  0
   -2.6089    0.3247   -3.7182 H   0  0  0  0  0  0  0  0  0  0  0  0
   -3.3627   -0.9471   -2.2922 H   0  0  0  0  0  0  0  0  0  0  0  0
    2.6246    4.3491   -0.4086 H   0  0  0  0  0  0  0  0  0  0  0  0
   -0.4838   -4.5354   -0.4817 H   0  0  0  0  0  0  0  0  0  0  0  0
   -1.0237    1.9139    2.9465 H   0  0  0  0  0  0  0  0  0  0  0  0
   -1.6664    3.4022    2.2410 H   0  0  0  0  0  0  0  0  0  0  0  0
    0.0157    2.8791    1.9610 H   0  0  0  0  0  0  0  0  0  0  0  0
    5.2834    0.5371    1.3490 H   0  0  0  0  0  0  0  0  0  0  0  0
   -5.3604    1.4272   -1.0035 H   0  0  0  0  0  0  0  0  0  0  0  0
   -4.6262    2.5350   -2.1696 H   0  0  0  0  0  0  0  0  0  0  0  0
   -4.4245    2.8016   -0.4057 H   0  0  0  0  0  0  0  0  0  0  0  0
    4.1370   -4.3530    1.3417 H   0  0  0  0  0  0  0  0  0  0  0  0
   -4.1910   -3.2189   -2.1026 H   0  0  0  0  0  0  0  0  0  0  0  0
   -2.7571   -5.0172   -1.2078 H   0  0  0  0  0  0  0  0  0  0  0  0
    4.7952    4.7258    0.6922 H   0  0  0  0  0  0  0  0  0  0  0  0
    6.1081    2.8256    1.5607 H   0  0  0  0  0  0  0  0  0  0  0  0
   -6.0314   -0.2027    2.7285 H   0  0  0  0  0  0  0  0  0  0  0  0
   -5.3351    0.9177    1.5547 H   0  0  0  0  0  0  0  0  0  0  0  0
   -5.1256   -0.8212    1.3345 H   0  0  0  0  0  0  0  0  0  0  0  0
   -4.7039    1.1432    4.5807 H   0  0  0  0  0  0  0  0  0  0  0  0
   -2.9442    1.2811    4.4330 H   0  0  0  0  0  0  0  0  0  0  0  0
   -3.9967    2.1675    3.3266 H   0  0  0  0  0  0  0  0  0  0  0  0
   -4.5924   -1.3841    4.4174 H   0  0  0  0  0  0  0  0  0  0  0  0
   -2.8271   -1.2846    4.3212 H   0  0  0  0  0  0  0  0  0  0  0  0
   -3.7292   -2.1551    3.0769 H   0  0  0  0  0  0  0  0  0  0  0  0
  1 11  1  0  0  0  0
  1 13  1  0  0  0  0
  2 12  1  0  0  0  0
  2 34  1  0  0  0  0
  3  9  1  0  0  0  0
  3 39  1  0  0  0  0
  4 30  2  0  0  0  0
  5 31  2  0  0  0  0
  6 39  2  0  0  0  0
  7 11  1  0  0  0  0
  7 16  1  0  0  0  0
  7 21  1  0  0  0  0
  8 13  1  0  0  0  0
  8 17  1  0  0  0  0
  8 22  1  0  0  0  0
  9 14  1  0  0  0  0
  9 32  1  0  0  0  0
 10 30  1  0  0  0  0
 10 31  1  0  0  0  0
 10 62  1  0  0  0  0
 11 12  1  0  0  0  0
 11 19  1  0  0  0  0
 12 14  1  0  0  0  0
 12 44  1  0  0  0  0
 13 15  1  0  0  0  0
 13 45  1  0  0  0  0
 14 15  1  0  0  0  0
 14 46  1  0  0  0  0
 15 47  1  0  0  0  0
 15 48  1  0  0  0  0
 16 17  2  0  0  0  0
 16 18  1  0  0  0  0
 17 20  1  0  0  0  0
 18 23  1  0  0  0  0
 18 25  2  0  0  0  0
 19 49  1  0  0  0  0
 19 50  1  0  0  0  0
 19 51  1  0  0  0  0
 20 24  1  0  0  0  0
 20 26  2  0  0  0  0
 21 23  1  0  0  0  0
 21 27  2  0  0  0  0
 22 24  1  0  0  0  0
 22 28  2  0  0  0  0
 23 29  2  0  0  0  0
 24 33  2  0  0  0  0
 25 26  1  0  0  0  0
 25 30  1  0  0  0  0
 26 31  1  0  0  0  0
 27 35  1  0  0  0  0
 27 52  1  0  0  0  0
 28 37  1  0  0  0  0
 28 53  1  0  0  0  0
 29 36  1  0  0  0  0
 29 54  1  0  0  0  0
 32 55  1  0  0  0  0
 32 56  1  0  0  0  0
 32 57  1  0  0  0  0
 33 38  1  0  0  0  0
 33 58  1  0  0  0  0
 34 59  1  0  0  0  0
 34 60  1  0  0  0  0
 34 61  1  0  0  0  0
 35 36  2  0  0  0  0
 35 63  1  0  0  0  0
 36 64  1  0  0  0  0
 37 38  2  0  0  0  0
 37 65  1  0  0  0  0
 38 66  1  0  0  0  0
 39 40  1  0  0  0  0
 40 41  1  0  0  0  0
 40 42  1  0  0  0  0
 40 43  1  0  0  0  0
 41 67  1  0  0  0  0
 41 68  1  0  0  0  0
 41 69  1  0  0  0  0
 42 70  1  0  0  0  0
 42 71  1  0  0  0  0
 42 72  1  0  0  0  0
 43 73  1  0  0  0  0
 43 74  1  0  0  0  0
 43 75  1  0  0  0  0
M  END
> <PUBCHEM_COMPOUND_CID>
44352790

> <PUBCHEM_CONFORMER_RMSD>
1

> <PUBCHEM_CONFORMER_DIVERSEORDER>
1
3
2
4

> <PUBCHEM_MMFF94_PARTIAL_CHARGES>
45
1 -0.56
10 -0.49
11 0.54
12 0.28
13 0.54
14 0.27
16 -0.05
17 -0.05
18 -0.01
2 -0.56
20 -0.01
21 -0.15
22 -0.15
25 0.09
26 0.09
27 -0.15
28 -0.15
29 -0.15
3 -0.05
30 0.54
31 0.54
32 0.27
33 -0.15
34 0.28
35 -0.15
36 -0.15
37 -0.15
38 -0.15
39 0.66
4 -0.57
40 0.06
5 -0.57
52 0.15
53 0.15
54 0.15
58 0.15
6 -0.57
62 0.37
63 0.15
64 0.15
65 0.15
66 0.15
7 -0.04
8 -0.04
9 -0.64

> <PUBCHEM_EFFECTIVE_ROTOR_COUNT>
6

> <PUBCHEM_PHARMACOPHORE_FEATURES>
17
1 1 acceptor
1 10 donor
1 2 acceptor
1 4 acceptor
1 5 acceptor
1 6 acceptor
1 7 cation
1 8 cation
4 40 41 42 43 hydrophobe
5 10 25 26 30 31 rings
5 7 16 18 21 23 rings
5 8 17 20 22 24 rings
6 1 11 12 13 14 15 rings
6 16 17 18 20 25 26 rings
6 21 23 27 29 35 36 rings
6 22 24 28 33 37 38 rings
7 1 7 8 11 13 16 17 rings

> <PUBCHEM_HEAVY_ATOM_COUNT>
43

> <PUBCHEM_ATOM_DEF_STEREO_COUNT>
4

> <PUBCHEM_ATOM_UDEF_STEREO_COUNT>
0

> <PUBCHEM_BOND_DEF_STEREO_COUNT>
0

> <PUBCHEM_BOND_UDEF_STEREO_COUNT>
0

> <PUBCHEM_ISOTOPIC_ATOM_COUNT>
0

> <PUBCHEM_COMPONENT_COUNT>
1

> <PUBCHEM_CACTVS_TAUTO_COUNT>
3

> <PUBCHEM_CONFORMER_ID>
02A4C51600000001

> <PUBCHEM_MMFF94_ENERGY>
179.2247

> <PUBCHEM_FEATURE_SELFOVERLAP>
87.391

> <PUBCHEM_SHAPE_FINGERPRINT>
10032420 55 17699568353005180584
1100329 8 18267563746453897334
11115154 58 17054978605330193103
11421498 54 17699287981888461286
11828532 37 16373279137630768091
12156800 1 17767364175902481073
12422481 6 18115317785754904865
12788726 201 17488743522877929735
13140716 1 18265873861775618350
13583140 156 18188493449931895354
13965767 371 18198650819963938619
14020679 6 17469606213395216721
14028597 1 17840877587882023283
14790565 3 17829594408057933532
14955137 171 18124331410871440438
15484559 13 12482513325852414905
20764821 26 18336529574287960446
21796203 349 17979941331898231386
3380486 145 18260821639636111117
392239 28 18270394035545114480
4112364 45 17843708585879787241
4616759 239 17190363726942384568
469060 322 18118672459976319460
50150288 127 17632292436552817543
563151 74 18412545401164132561
57527306 92 13665247121710246657
57527585 103 17168136853792339090

> <PUBCHEM_SHAPE_MULTIPOLES>
829.78
8.75
5.65
3.25
3.93
4.15
-1.38
-2.58
-6.21
3.01
0.46
-5.45
-0.95
-1.68

> <PUBCHEM_SHAPE_SELFOVERLAP>
1884.07

> <PUBCHEM_SHAPE_VOLUME>
431.3

> <PUBCHEM_COORDINATE_TYPE>
2
5
10

$$$$
