23647348
  -OEChem-10052120443D

 40 43  0     0  0  0  0  0  0999 V2000
    1.6550   -0.7089   -2.2158 F   0  0  0  0  0  0  0  0  0  0  0  0
    3.2748    3.5570    0.8005 F   0  0  0  0  0  0  0  0  0  0  0  0
   -2.2585   -0.3069    0.0476 N   0  0  0  0  0  0  0  0  0  0  0  0
   -4.2226    0.5695   -0.3911 N   0  0  0  0  0  0  0  0  0  0  0  0
   -4.0992   -0.5910   -1.1284 N   0  0  0  0  0  0  0  0  0  0  0  0
    3.1086   -1.7651    1.1641 N   0  0  0  0  0  0  0  0  0  0  0  0
    2.7474   -2.9495    1.6864 N   0  0  0  0  0  0  0  0  0  0  0  0
   -2.8118    1.8294    1.2311 C   0  0  0  0  0  0  0  0  0  0  0  0
   -3.1173    0.7242    0.3031 C   0  0  0  0  0  0  0  0  0  0  0  0
   -0.3253   -1.6760    0.1293 C   0  0  0  0  0  0  0  0  0  0  0  0
   -2.9205   -1.1118   -0.8620 C   0  0  0  0  0  0  0  0  0  0  0  0
   -0.9859   -0.5697    0.5409 C   0  0  0  0  0  0  0  0  0  0  0  0
    0.9941   -1.9252    0.6403 C   0  0  0  0  0  0  0  0  0  0  0  0
   -4.0623    2.3767    1.9610 C   0  0  0  0  0  0  0  0  0  0  0  0
   -2.0614    3.0031    0.5566 C   0  0  0  0  0  0  0  0  0  0  0  0
    2.0949   -1.1115    0.5268 C   0  0  0  0  0  0  0  0  0  0  0  0
   -1.0104   -2.5460   -0.8419 C   0  0  0  0  0  0  0  0  0  0  0  0
   -2.2443   -2.2760   -1.3104 C   0  0  0  0  0  0  0  0  0  0  0  0
    2.2825    0.1745   -0.0991 C   0  0  0  0  0  0  0  0  0  0  0  0
    1.4548   -3.0420    1.3632 C   0  0  0  0  0  0  0  0  0  0  0  0
    2.0521    0.3298   -1.4660 C   0  0  0  0  0  0  0  0  0  0  0  0
    2.6955    1.2647    0.6666 C   0  0  0  0  0  0  0  0  0  0  0  0
    2.8779    2.5102    0.0657 C   0  0  0  0  0  0  0  0  0  0  0  0
    2.2345    1.5752   -2.0672 C   0  0  0  0  0  0  0  0  0  0  0  0
    2.6474    2.6654   -1.3013 C   0  0  0  0  0  0  0  0  0  0  0  0
   -2.1614    1.4552    2.0318 H   0  0  0  0  0  0  0  0  0  0  0  0
   -0.5664    0.1347    1.2499 H   0  0  0  0  0  0  0  0  0  0  0  0
   -4.5840    1.5719    2.4907 H   0  0  0  0  0  0  0  0  0  0  0  0
   -3.7813    3.1400    2.6941 H   0  0  0  0  0  0  0  0  0  0  0  0
   -4.7680    2.8259    1.2534 H   0  0  0  0  0  0  0  0  0  0  0  0
   -1.8135    3.7791    1.2883 H   0  0  0  0  0  0  0  0  0  0  0  0
   -1.1277    2.6569    0.0999 H   0  0  0  0  0  0  0  0  0  0  0  0
   -2.6716    3.4557   -0.2328 H   0  0  0  0  0  0  0  0  0  0  0  0
   -0.4845   -3.4326   -1.1831 H   0  0  0  0  0  0  0  0  0  0  0  0
   -2.7256   -2.9334   -2.0256 H   0  0  0  0  0  0  0  0  0  0  0  0
    0.9063   -3.9213    1.6709 H   0  0  0  0  0  0  0  0  0  0  0  0
    4.0690   -1.4657    1.2808 H   0  0  0  0  0  0  0  0  0  0  0  0
    2.8767    1.1649    1.7342 H   0  0  0  0  0  0  0  0  0  0  0  0
    2.0547    1.6958   -3.1314 H   0  0  0  0  0  0  0  0  0  0  0  0
    2.7894    3.6352   -1.7688 H   0  0  0  0  0  0  0  0  0  0  0  0
  1 21  1  0  0  0  0
  2 23  1  0  0  0  0
  3  9  1  0  0  0  0
  3 11  1  0  0  0  0
  3 12  1  0  0  0  0
  4  5  1  0  0  0  0
  4  9  2  0  0  0  0
  5 11  2  0  0  0  0
  6  7  1  0  0  0  0
  6 16  1  0  0  0  0
  6 37  1  0  0  0  0
  7 20  2  0  0  0  0
  8  9  1  0  0  0  0
  8 14  1  0  0  0  0
  8 15  1  0  0  0  0
  8 26  1  0  0  0  0
 10 12  2  0  0  0  0
 10 13  1  0  0  0  0
 10 17  1  0  0  0  0
 11 18  1  0  0  0  0
 12 27  1  0  0  0  0
 13 16  2  0  0  0  0
 13 20  1  0  0  0  0
 14 28  1  0  0  0  0
 14 29  1  0  0  0  0
 14 30  1  0  0  0  0
 15 31  1  0  0  0  0
 15 32  1  0  0  0  0
 15 33  1  0  0  0  0
 16 19  1  0  0  0  0
 17 18  2  0  0  0  0
 17 34  1  0  0  0  0
 18 35  1  0  0  0  0
 19 21  2  0  0  0  0
 19 22  1  0  0  0  0
 20 36  1  0  0  0  0
 21 24  1  0  0  0  0
 22 23  2  0  0  0  0
 22 38  1  0  0  0  0
 23 25  1  0  0  0  0
 24 25  2  0  0  0  0
 24 39  1  0  0  0  0
 25 40  1  0  0  0  0
M  END
> <PUBCHEM_COMPOUND_CID>
23647348

> <PUBCHEM_CONFORMER_RMSD>
0.6

> <PUBCHEM_CONFORMER_DIVERSEORDER>
1
3
61
36
43
37
21
46
18
59
48
38
26
57
44
8
30
71
35
53
66
20
22
62
7
42
55
10
40
33
41
54
72
52
16
58
32
70
2
49
47
4
14
64
39
56
63
9
68
45
24
51
50
28
25
29
67
13
23
34
65
69
31
12
6
11
60
17
5
27
15
19

> <PUBCHEM_MMFF94_PARTIAL_CHARGES>
31
1 -0.19
10 0.05
11 0.14
12 -0.18
13 -0.05
16 -0.2
17 -0.15
18 -0.11
19 0.05
2 -0.19
20 0.14
21 0.19
22 -0.15
23 0.19
24 -0.15
25 -0.15
27 0.15
3 0.33
34 0.15
35 0.15
36 0.15
37 0.27
38 0.15
39 0.15
4 -0.34
40 0.15
5 -0.34
6 0.3
7 -0.71
8 0.18
9 0.01

> <PUBCHEM_EFFECTIVE_ROTOR_COUNT>
3

> <PUBCHEM_PHARMACOPHORE_FEATURES>
9
1 6 donor
1 7 acceptor
3 3 4 9 cation
3 3 5 11 cation
3 8 14 15 hydrophobe
5 3 4 5 9 11 rings
5 6 7 13 16 20 rings
6 19 21 22 23 24 25 rings
6 3 10 11 12 17 18 rings

> <PUBCHEM_HEAVY_ATOM_COUNT>
25

> <PUBCHEM_ATOM_DEF_STEREO_COUNT>
0

> <PUBCHEM_ATOM_UDEF_STEREO_COUNT>
0

> <PUBCHEM_BOND_DEF_STEREO_COUNT>
0

> <PUBCHEM_BOND_UDEF_STEREO_COUNT>
0

> <PUBCHEM_ISOTOPIC_ATOM_COUNT>
0

> <PUBCHEM_COMPONENT_COUNT>
1

> <PUBCHEM_CACTVS_TAUTO_COUNT>
2

> <PUBCHEM_CONFORMER_ID>
0168D47400000001

> <PUBCHEM_MMFF94_ENERGY>
50.8354

> <PUBCHEM_FEATURE_SELFOVERLAP>
48.256

> <PUBCHEM_SHAPE_FINGERPRINT>
10006869 2 18339654433721710923
10165383 225 16881650294640194686
10498660 4 18127695039783065877
10764073 3 16408432340214127806
11582403 64 17056660819528547120
11640471 11 18116990185773964654
11725454 13 17055825216413924328
12156800 1 12240878048978059697
12403259 327 17173522094853268497
12788726 201 17917427674998634449
128993 33 18266485181207868469
13134695 92 17824536379423159398
13583140 156 17606970478086617689
13965767 371 17261864452072263051
14123250 116 18271256031122871457
14787075 74 17831585649454379623
14955137 171 17978529549798113242
17357990 137 18268157461110587303
17980427 23 18057304124857528274
1813 80 17901106317874546206
18981168 100 17750535020525632754
19319366 153 18046603866960527271
20465049 17 17909025081999822693
20510252 161 17395302768194075438
20600515 1 17771336479496184922
20642791 105 17177411449269025242
20715895 44 17977930308183495677
2132832 1 18122589874209487263
21864079 5 18272380737149910833
22749437 52 18189047762547711645
23559900 14 17775290417471848583
312423 11 18411426081420993395
35225 105 16593106751074624544
469060 322 17609231387256873539
474 4 18041834129293269430
513532 50 16692725339330168461
539174 4 18261104166921721390
5895379 119 17774166686576283016
6992083 37 18049427150489267779
7097593 13 18046625608010516179
7615 1 18340199709483288251
84936 182 18266731557954000824
9981440 41 17902497513552174362

> <PUBCHEM_SHAPE_MULTIPOLES>
475.04
7.11
4.25
1.81
4.58
0.91
0.33
3.81
-0.67
-1.92
-1.25
-0.37
-0.05
-3.06

> <PUBCHEM_SHAPE_SELFOVERLAP>
1058.865

> <PUBCHEM_SHAPE_VOLUME>
256.5

> <PUBCHEM_COORDINATE_TYPE>
2
5
10

$$$$
