49830826
  -OEChem-10062121553D

 44 46  0     1  0  0  0  0  0999 V2000
    4.8643   -2.7702   -0.5318 O   0  0  0  0  0  0  0  0  0  0  0  0
    1.0191    2.3213    1.1712 O   0  0  0  0  0  0  0  0  0  0  0  0
    1.4936    1.2807   -0.8459 N   0  0  0  0  0  0  0  0  0  0  0  0
   -5.6108    0.4064    0.5527 N   0  0  0  0  0  0  0  0  0  0  0  0
   -7.2631   -1.2546   -0.0119 N   0  0  0  0  0  0  0  0  0  0  0  0
    2.8753    1.6967   -0.9284 C   0  0  1  0  0  0  0  0  0  0  0  0
    3.7925    0.7147   -0.2320 C   0  0  0  0  0  0  0  0  0  0  0  0
    3.2670    1.9326   -2.3856 C   0  0  0  0  0  0  0  0  0  0  0  0
    3.9075   -0.5912   -0.7086 C   0  0  0  0  0  0  0  0  0  0  0  0
    4.5226    1.1157    0.8870 C   0  0  0  0  0  0  0  0  0  0  0  0
    0.6436    1.6241    0.2120 C   0  0  0  0  0  0  0  0  0  0  0  0
   -0.7145    1.1069    0.1621 C   0  0  0  0  0  0  0  0  0  0  0  0
    4.7526   -1.4961   -0.0662 C   0  0  0  0  0  0  0  0  0  0  0  0
    5.3675    0.2108    1.5293 C   0  0  0  0  0  0  0  0  0  0  0  0
    5.4826   -1.0952    1.0528 C   0  0  0  0  0  0  0  0  0  0  0  0
   -1.3047    0.8147   -1.0676 C   0  0  0  0  0  0  0  0  0  0  0  0
   -1.4269    0.9030    1.3438 C   0  0  0  0  0  0  0  0  0  0  0  0
   -3.3199    0.1144    0.0664 C   0  0  0  0  0  0  0  0  0  0  0  0
   -2.6074    0.3185   -1.1154 C   0  0  0  0  0  0  0  0  0  0  0  0
   -2.7296    0.4069    1.2959 C   0  0  0  0  0  0  0  0  0  0  0  0
   -4.6711   -0.4000    0.0168 C   0  0  0  0  0  0  0  0  0  0  0  0
   -4.9461   -1.6305   -0.5441 C   0  0  0  0  0  0  0  0  0  0  0  0
    5.7459   -3.6436    0.1725 C   0  0  0  0  0  0  0  0  0  0  0  0
   -6.2728   -2.0100   -0.5304 C   0  0  0  0  0  0  0  0  0  0  0  0
   -6.8673   -0.0760    0.5056 C   0  0  0  0  0  0  0  0  0  0  0  0
    2.9504    2.6661   -0.4187 H   0  0  0  0  0  0  0  0  0  0  0  0
    1.1772    0.6176   -1.5461 H   0  0  0  0  0  0  0  0  0  0  0  0
    3.1509    1.0302   -2.9963 H   0  0  0  0  0  0  0  0  0  0  0  0
    2.6333    2.7069   -2.8328 H   0  0  0  0  0  0  0  0  0  0  0  0
    4.3093    2.2606   -2.4652 H   0  0  0  0  0  0  0  0  0  0  0  0
    3.3398   -0.9183   -1.5760 H   0  0  0  0  0  0  0  0  0  0  0  0
    4.4434    2.1292    1.2710 H   0  0  0  0  0  0  0  0  0  0  0  0
    5.9354    0.5239    2.4007 H   0  0  0  0  0  0  0  0  0  0  0  0
    6.1566   -1.7460    1.5992 H   0  0  0  0  0  0  0  0  0  0  0  0
   -0.7969    0.9882   -2.0118 H   0  0  0  0  0  0  0  0  0  0  0  0
   -0.9832    1.1194    2.3122 H   0  0  0  0  0  0  0  0  0  0  0  0
   -3.0538    0.1082   -2.0846 H   0  0  0  0  0  0  0  0  0  0  0  0
   -3.2677    0.2501    2.2279 H   0  0  0  0  0  0  0  0  0  0  0  0
   -4.1842   -2.2732   -0.9678 H   0  0  0  0  0  0  0  0  0  0  0  0
    6.7827   -3.2938    0.1236 H   0  0  0  0  0  0  0  0  0  0  0  0
    5.4114   -3.8081    1.2024 H   0  0  0  0  0  0  0  0  0  0  0  0
    5.7118   -4.6140   -0.3335 H   0  0  0  0  0  0  0  0  0  0  0  0
   -6.5854   -2.9613   -0.9477 H   0  0  0  0  0  0  0  0  0  0  0  0
   -7.6422    0.5511    0.9292 H   0  0  0  0  0  0  0  0  0  0  0  0
  1 13  1  0  0  0  0
  1 23  1  0  0  0  0
  2 11  2  0  0  0  0
  3  6  1  0  0  0  0
  3 11  1  0  0  0  0
  3 27  1  0  0  0  0
  4 21  2  0  0  0  0
  4 25  1  0  0  0  0
  5 24  1  0  0  0  0
  5 25  2  0  0  0  0
  6  7  1  0  0  0  0
  6  8  1  0  0  0  0
  6 26  1  0  0  0  0
  7  9  2  0  0  0  0
  7 10  1  0  0  0  0
  8 28  1  0  0  0  0
  8 29  1  0  0  0  0
  8 30  1  0  0  0  0
  9 13  1  0  0  0  0
  9 31  1  0  0  0  0
 10 14  2  0  0  0  0
 10 32  1  0  0  0  0
 11 12  1  0  0  0  0
 12 16  2  0  0  0  0
 12 17  1  0  0  0  0
 13 15  2  0  0  0  0
 14 15  1  0  0  0  0
 14 33  1  0  0  0  0
 15 34  1  0  0  0  0
 16 19  1  0  0  0  0
 16 35  1  0  0  0  0
 17 20  2  0  0  0  0
 17 36  1  0  0  0  0
 18 19  2  0  0  0  0
 18 20  1  0  0  0  0
 18 21  1  0  0  0  0
 19 37  1  0  0  0  0
 20 38  1  0  0  0  0
 21 22  1  0  0  0  0
 22 24  2  0  0  0  0
 22 39  1  0  0  0  0
 23 40  1  0  0  0  0
 23 41  1  0  0  0  0
 23 42  1  0  0  0  0
 24 43  1  0  0  0  0
 25 44  1  0  0  0  0
M  END
> <PUBCHEM_COMPOUND_CID>
49830826

> <PUBCHEM_CONFORMER_RMSD>
0.8

> <PUBCHEM_CONFORMER_DIVERSEORDER>
1
7
75
25
70
15
87
38
82
92
34
48
72
9
4
32
85
78
41
81
83
77
44
40
45
86
22
76
12
61
51
68
93
16
60
50
46
13
35
91
54
19
52
69
84
56
21
66
65
6
14
58
79
73
62
3
71
37
11
88
23
24
74
26
28
33
29
27
57
18
49
67
30
20
80
42
55
64
53
43
31
36
89
2
5
8
47
17
63
59
90
39
10

> <PUBCHEM_MMFF94_PARTIAL_CHARGES>
35
1 -0.36
10 -0.15
11 0.54
12 0.09
13 0.08
14 -0.15
15 -0.15
16 -0.15
17 -0.15
19 -0.15
2 -0.57
20 -0.15
21 0.31
22 -0.15
23 0.28
24 0.16
25 0.47
27 0.37
3 -0.73
31 0.15
32 0.15
33 0.15
34 0.15
35 0.15
36 0.15
37 0.15
38 0.15
39 0.15
4 -0.62
43 0.15
44 0.15
5 -0.62
6 0.44
7 -0.14
9 -0.15

> <PUBCHEM_EFFECTIVE_ROTOR_COUNT>
6

> <PUBCHEM_PHARMACOPHORE_FEATURES>
8
1 1 acceptor
1 2 acceptor
1 3 donor
1 4 acceptor
3 4 5 25 cation
6 12 16 17 18 19 20 rings
6 4 5 21 22 24 25 rings
6 7 9 10 13 14 15 rings

> <PUBCHEM_HEAVY_ATOM_COUNT>
25

> <PUBCHEM_ATOM_DEF_STEREO_COUNT>
0

> <PUBCHEM_ATOM_UDEF_STEREO_COUNT>
1

> <PUBCHEM_BOND_DEF_STEREO_COUNT>
0

> <PUBCHEM_BOND_UDEF_STEREO_COUNT>
0

> <PUBCHEM_ISOTOPIC_ATOM_COUNT>
0

> <PUBCHEM_COMPONENT_COUNT>
1

> <PUBCHEM_CACTVS_TAUTO_COUNT>
2

> <PUBCHEM_CONFORMER_ID>
02F85BAA00000001

> <PUBCHEM_MMFF94_ENERGY>
82.3926

> <PUBCHEM_FEATURE_SELFOVERLAP>
40.597

> <PUBCHEM_SHAPE_FINGERPRINT>
10 15 16343701066580929449
10165383 225 13614527394284036032
10638233 991 9223236239106636871
10670039 82 13190606218447466246
10906281 52 12396569695262966821
12166972 35 18408042892695071572
12596602 18 17489588978056530514
12633257 1 15482373314552155442
13073987 5 18201719548201078705
13533116 47 18412265051552645072
1361 2 18335421253261053538
1361 4 18263365952983457539
13782708 43 18261111911444302387
14211702 104 18337961194141288331
14251740 57 18342460305733218590
14251751 18 18342453759896714437
14347332 77 18113612370522226285
14429115 67 18343023259706865148
14528608 73 8214144053435752809
14565420 104 11959721656283090174
146900 427 11312064235482438140
14848178 5 18409446990218040578
15119646 104 18411140242551619175
15142526 21 11023527100350802684
15183329 4 16660360376894562177
15188451 53 18341608196636666994
15419008 42 18056196861394331493
15475509 35 18201432644422310899
15475509 8 17022903420206396605
15510800 12 18113907048249686234
17492 89 18339922598557379648
1768 124 18342452660122011774
17857418 61 18343021129450572103
1979834 28 16773805783250971006
20028762 73 18342739564317563070
20567600 234 13470685962473954017
20645477 70 17894914044659256644
21130935 74 18343302578652698243
21344244 181 17749395896879022163
21585483 132 18338498820946998575
21641784 216 14779534674440983447
21781051 124 15575010476475656785
22061861 79 17458062694449374975
22122407 14 9583244975807406423
221357 26 16298380275394913604
2215653 11 16660363696782858673
2303208 19 15792022216105507217
23081809 10 18336837476293772069
23522609 53 18120123725901492677
23559900 14 16371293341003157708
23569943 247 18261110717507257299
270888 7 9078816490763285406
2838139 119 9943530686801737891
29717793 49 17821726160904540141
3004659 81 18334863835325008436
3411729 13 17130136740395717512
3472631 163 7925623419341790722
34797466 226 16443348740697516821
3680242 22 18343872116774741119
3886686 26 16836869148872600110
393628 194 9725620685682560938
394071 54 14261350301424851458
4058900 60 12541237937514020793
46194498 28 17458063794035038508
4756326 101 14419290749959609830
5104073 3 17704073958350616696
5718773 13 18189610554373898498
59682541 52 16153416247030247835
6025842 7 17968666037818952996
633830 44 8574711278463207760
7970288 3 18266740191023784814
8988823 20 18271241724687288736
9658208 31 13696156266236412249

> <PUBCHEM_SHAPE_MULTIPOLES>
487.81
18.71
2.7
1.45
16.45
2.15
-0.22
13.78
1.69
-4.49
-0.51
-1.17
-0.72
-1.06

> <PUBCHEM_SHAPE_SELFOVERLAP>
1056.245

> <PUBCHEM_SHAPE_VOLUME>
264.9

> <PUBCHEM_COORDINATE_TYPE>
2
5
10

$$$$
