23647330
  -OEChem-10062121563D

 38 41  0     0  0  0  0  0  0999 V2000
   -4.7932    3.0424    1.1997 F   0  0  0  0  0  0  0  0  0  0  0  0
   -0.4397   -3.0215   -0.6747 O   0  0  0  0  0  0  0  0  0  0  0  0
    2.3037    0.3661   -0.4588 N   0  0  0  0  0  0  0  0  0  0  0  0
    4.0843   -0.2037    0.9915 N   0  0  0  0  0  0  0  0  0  0  0  0
    3.1483    2.1540   -1.4294 N   0  0  0  0  0  0  0  0  0  0  0  0
    4.0697    1.6680   -0.5236 N   0  0  0  0  0  0  0  0  0  0  0  0
   -2.5532   -2.8771    0.1175 N   0  0  0  0  0  0  0  0  0  0  0  0
    0.1939   -0.6553   -0.8116 C   0  0  0  0  0  0  0  0  0  0  0  0
    1.3834   -0.6340   -0.1677 C   0  0  0  0  0  0  0  0  0  0  0  0
    2.0923    1.3700   -1.3867 C   0  0  0  0  0  0  0  0  0  0  0  0
   -0.7401   -1.7035   -0.5069 C   0  0  0  0  0  0  0  0  0  0  0  0
    3.5510    0.6027    0.0452 C   0  0  0  0  0  0  0  0  0  0  0  0
   -0.0511    0.4029   -1.8064 C   0  0  0  0  0  0  0  0  0  0  0  0
   -2.0232   -1.6205   -0.0263 C   0  0  0  0  0  0  0  0  0  0  0  0
    0.8524    1.3649   -2.0768 C   0  0  0  0  0  0  0  0  0  0  0  0
   -2.7359   -0.4198    0.2892 C   0  0  0  0  0  0  0  0  0  0  0  0
    5.3991   -0.0238    1.5789 C   0  0  0  0  0  0  0  0  0  0  0  0
   -2.2394    0.4523    1.2580 C   0  0  0  0  0  0  0  0  0  0  0  0
   -3.9274   -0.1220   -0.3722 C   0  0  0  0  0  0  0  0  0  0  0  0
   -1.5753   -3.6596   -0.2796 C   0  0  0  0  0  0  0  0  0  0  0  0
    5.6828   -1.0713    2.6356 C   0  0  0  0  0  0  0  0  0  0  0  0
   -2.9341    1.6219    1.5656 C   0  0  0  0  0  0  0  0  0  0  0  0
   -4.6223    1.0476   -0.0647 C   0  0  0  0  0  0  0  0  0  0  0  0
   -4.1257    1.9195    0.9042 C   0  0  0  0  0  0  0  0  0  0  0  0
    1.6528   -1.3742    0.5771 H   0  0  0  0  0  0  0  0  0  0  0  0
   -0.9990    0.3895   -2.3361 H   0  0  0  0  0  0  0  0  0  0  0  0
    0.6469    2.1314   -2.8153 H   0  0  0  0  0  0  0  0  0  0  0  0
    3.5619   -1.0028    1.3399 H   0  0  0  0  0  0  0  0  0  0  0  0
    5.4664    0.9719    2.0324 H   0  0  0  0  0  0  0  0  0  0  0  0
    6.1627   -0.0851    0.7951 H   0  0  0  0  0  0  0  0  0  0  0  0
   -1.3175    0.2359    1.7928 H   0  0  0  0  0  0  0  0  0  0  0  0
   -4.3278   -0.7898   -1.1314 H   0  0  0  0  0  0  0  0  0  0  0  0
   -1.5640   -4.7380   -0.3296 H   0  0  0  0  0  0  0  0  0  0  0  0
    4.9458   -1.0225    3.4442 H   0  0  0  0  0  0  0  0  0  0  0  0
    5.6440   -2.0793    2.2092 H   0  0  0  0  0  0  0  0  0  0  0  0
    6.6766   -0.9203    3.0682 H   0  0  0  0  0  0  0  0  0  0  0  0
   -2.5489    2.3002    2.3211 H   0  0  0  0  0  0  0  0  0  0  0  0
   -5.5498    1.2800   -0.5797 H   0  0  0  0  0  0  0  0  0  0  0  0
  1 24  1  0  0  0  0
  2 11  1  0  0  0  0
  2 20  1  0  0  0  0
  3  9  1  0  0  0  0
  3 10  1  0  0  0  0
  3 12  1  0  0  0  0
  4 12  1  0  0  0  0
  4 17  1  0  0  0  0
  4 28  1  0  0  0  0
  5  6  1  0  0  0  0
  5 10  2  0  0  0  0
  6 12  2  0  0  0  0
  7 14  1  0  0  0  0
  7 20  2  0  0  0  0
  8  9  2  0  0  0  0
  8 11  1  0  0  0  0
  8 13  1  0  0  0  0
  9 25  1  0  0  0  0
 10 15  1  0  0  0  0
 11 14  2  0  0  0  0
 13 15  2  0  0  0  0
 13 26  1  0  0  0  0
 14 16  1  0  0  0  0
 15 27  1  0  0  0  0
 16 18  2  0  0  0  0
 16 19  1  0  0  0  0
 17 21  1  0  0  0  0
 17 29  1  0  0  0  0
 17 30  1  0  0  0  0
 18 22  1  0  0  0  0
 18 31  1  0  0  0  0
 19 23  2  0  0  0  0
 19 32  1  0  0  0  0
 20 33  1  0  0  0  0
 21 34  1  0  0  0  0
 21 35  1  0  0  0  0
 21 36  1  0  0  0  0
 22 24  2  0  0  0  0
 22 37  1  0  0  0  0
 23 24  1  0  0  0  0
 23 38  1  0  0  0  0
M  END
> <PUBCHEM_COMPOUND_CID>
23647330

> <PUBCHEM_CONFORMER_RMSD>
0.8

> <PUBCHEM_CONFORMER_DIVERSEORDER>
1
7
2
10
6
3
5
4
11
8
9
12

> <PUBCHEM_MMFF94_PARTIAL_CHARGES>
32
1 -0.19
10 0.14
11 0.09
12 0.27
13 -0.15
14 0.17
15 -0.11
16 0.05
17 0.37
18 -0.15
19 -0.15
2 -0.28
20 0.33
22 -0.15
23 -0.15
24 0.19
25 0.15
26 0.15
27 0.15
28 0.4
3 0.33
31 0.15
32 0.15
33 0.15
37 0.15
38 0.15
4 -0.85
5 -0.34
6 -0.34
7 -0.57
8 0.05
9 -0.18

> <PUBCHEM_EFFECTIVE_ROTOR_COUNT>
4

> <PUBCHEM_PHARMACOPHORE_FEATURES>
6
1 4 donor
4 3 4 6 12 cation
5 2 7 11 14 20 rings
5 3 5 6 10 12 rings
6 16 18 19 22 23 24 rings
6 3 8 9 10 13 15 rings

> <PUBCHEM_HEAVY_ATOM_COUNT>
24

> <PUBCHEM_ATOM_DEF_STEREO_COUNT>
0

> <PUBCHEM_ATOM_UDEF_STEREO_COUNT>
0

> <PUBCHEM_BOND_DEF_STEREO_COUNT>
0

> <PUBCHEM_BOND_UDEF_STEREO_COUNT>
0

> <PUBCHEM_ISOTOPIC_ATOM_COUNT>
0

> <PUBCHEM_COMPONENT_COUNT>
1

> <PUBCHEM_CACTVS_TAUTO_COUNT>
2

> <PUBCHEM_CONFORMER_ID>
0168D46200000001

> <PUBCHEM_MMFF94_ENERGY>
51.2487

> <PUBCHEM_FEATURE_SELFOVERLAP>
30.56

> <PUBCHEM_SHAPE_FINGERPRINT>
10042902 136 12757737338404111033
10692045 39 18057604265989480610
11370993 70 18341056233352123893
11640471 11 18339653260978724197
12107183 9 18335415725959110778
12128747 34 17416970531006240466
121448 382 18131351917084185923
12422481 6 17970340426054410160
12633257 1 18334572439147754726
12788726 201 17977112575636532683
13103583 49 17458633280448727128
13583140 156 17060056003908163574
13965767 371 18116723911077118861
14178342 30 18410293652942789022
14251764 30 13623540025675270992
14739800 52 18055627572038025888
14951699 99 18130213982880025584
15238133 3 18272651234354068128
15420108 30 18267293232387115679
15537594 2 17676483939752011026
15842332 3 17970637504705297358
173720 79 18410012148164421267
17780758 139 18268127886625131594
17818456 19 18411138030822777440
1813 80 17240202102216505806
20510252 161 18055093183405599831
20554085 129 17988066791435897657
20642791 105 18337385050322302359
20715895 44 18119249459580558533
212916 134 18272368650673908009
21304303 282 18059274501825084735
21403212 168 18116699743127163891
21427221 339 18260274065966049252
235170 7 15051735248812174769
23522609 53 17968957391547778028
23557571 272 17558292035522934983
23559900 14 17987817232424609998
2838139 119 16056302952402396936
3117164 225 18410847768564447560
341906 21 18059860605567461360
445580 182 18339623600066512490
469060 322 18126033635428351811
474 4 18266754480553200889
495365 180 17346046584442269822
5104073 3 18188203325275886792
513202 73 17316747786723282506
5171179 24 17547563786674270958
56633871 153 18116134620189907578
6328613 192 18338251426919968604
6992083 37 18187650253314800943
7064713 232 18411979148327495552
84936 182 17984994700129172921
9849439 229 18198925633863975401
9981440 41 18342177735455620771

> <PUBCHEM_SHAPE_MULTIPOLES>
455.86
10.51
3.19
1.89
8.22
2.13
-0.39
-4.21
-7.47
-2.96
0.26
1.92
-0.67
-2.98

> <PUBCHEM_SHAPE_SELFOVERLAP>
1014.393

> <PUBCHEM_SHAPE_VOLUME>
247.3

> <PUBCHEM_COORDINATE_TYPE>
2
5
10

$$$$
