44352845
  -OEChem-10052115143D

 77 85  0     1  0  0  0  0  0999 V2000
    1.2534   -0.2987    2.5770 O   0  0  0  0  0  0  0  0  0  0  0  0
   -0.1632    0.6736   -0.2816 O   0  0  0  0  0  0  0  0  0  0  0  0
    6.8133   -1.9312   -1.9526 O   0  0  0  0  0  0  0  0  0  0  0  0
   -3.3776    1.4797    1.5932 O   0  0  0  0  0  0  0  0  0  0  0  0
   -5.2614    1.5517   -3.6502 O   0  5  0  0  0  0  0  0  0  0  0  0
   -7.9739   -1.6146    2.0052 O   0  5  0  0  0  0  0  0  0  0  0  0
   -7.3264    0.8076   -3.6928 O   0  0  0  0  0  0  0  0  0  0  0  0
   -9.1911   -1.3678    0.1951 O   0  0  0  0  0  0  0  0  0  0  0  0
    1.9732    1.3810    1.1382 N   0  0  0  0  0  0  0  0  0  0  0  0
    2.1174   -1.6026    0.8553 N   0  0  0  0  0  0  0  0  0  0  0  0
   -2.4988   -0.5594    0.8592 N   0  0  0  0  0  0  0  0  0  0  0  0
    7.0690    0.3946   -1.9624 N   0  0  0  0  0  0  0  0  0  0  0  0
   -6.2342    0.9813   -3.1000 N   0  3  0  0  0  0  0  0  0  0  0  0
   -8.1164   -1.2149    0.8244 N   0  3  0  0  0  0  0  0  0  0  0  0
    0.8514    0.9180    1.9413 C   0  0  1  0  0  0  0  0  0  0  0  0
   -0.4612    0.7943    1.1164 C   0  0  2  0  0  0  0  0  0  0  0  0
    1.0639   -1.4793    1.8366 C   0  0  2  0  0  0  0  0  0  0  0  0
   -1.2367   -0.4471    1.5486 C   0  0  2  0  0  0  0  0  0  0  0  0
   -0.3636   -1.6748    1.3057 C   0  0  0  0  0  0  0  0  0  0  0  0
    2.9881    0.6895    0.5185 C   0  0  0  0  0  0  0  0  0  0  0  0
    3.0520   -0.7277    0.3748 C   0  0  0  0  0  0  0  0  0  0  0  0
    4.0682    1.4069   -0.1199 C   0  0  0  0  0  0  0  0  0  0  0  0
    4.1919   -1.2208   -0.3810 C   0  0  0  0  0  0  0  0  0  0  0  0
    2.2760    2.6998    0.7688 C   0  0  0  0  0  0  0  0  0  0  0  0
    0.5966    1.7920    3.1919 C   0  0  0  0  0  0  0  0  0  0  0  0
    2.5878   -2.8240    0.3620 C   0  0  0  0  0  0  0  0  0  0  0  0
    3.5460    2.7478    0.1179 C   0  0  0  0  0  0  0  0  0  0  0  0
    5.1884    0.9123   -0.7800 C   0  0  0  0  0  0  0  0  0  0  0  0
    5.2370   -0.4669   -0.9107 C   0  0  0  0  0  0  0  0  0  0  0  0
    3.8050   -2.6366   -0.3577 C   0  0  0  0  0  0  0  0  0  0  0  0
    6.3534    1.5488   -1.4606 C   0  0  0  0  0  0  0  0  0  0  0  0
    1.5333    3.8874    0.9343 C   0  0  0  0  0  0  0  0  0  0  0  0
    6.4425   -0.8109   -1.6618 C   0  0  0  0  0  0  0  0  0  0  0  0
    2.0268   -4.1091    0.5193 C   0  0  0  0  0  0  0  0  0  0  0  0
    4.0620    4.0133   -0.2613 C   0  0  0  0  0  0  0  0  0  0  0  0
   -2.6949   -1.7769    0.0639 C   0  0  0  0  0  0  0  0  0  0  0  0
    4.4113   -3.7920   -0.9141 C   0  0  0  0  0  0  0  0  0  0  0  0
   -3.4838    0.4396    0.9442 C   0  0  0  0  0  0  0  0  0  0  0  0
   -1.2809    1.0247   -1.0871 C   0  0  0  0  0  0  0  0  0  0  0  0
    2.0744    5.1128    0.5371 C   0  0  0  0  0  0  0  0  0  0  0  0
    3.3312    5.1798   -0.0390 C   0  0  0  0  0  0  0  0  0  0  0  0
    2.6630   -5.2133   -0.0458 C   0  0  0  0  0  0  0  0  0  0  0  0
    3.8413   -5.0583   -0.7554 C   0  0  0  0  0  0  0  0  0  0  0  0
   -4.7542    0.2467    0.2269 C   0  0  0  0  0  0  0  0  0  0  0  0
   -5.8231   -0.3878    0.8597 C   0  0  0  0  0  0  0  0  0  0  0  0
   -4.8902    0.6996   -1.0855 C   0  0  0  0  0  0  0  0  0  0  0  0
   -6.0948    0.5179   -1.7649 C   0  0  0  0  0  0  0  0  0  0  0  0
   -7.0278   -0.5693    0.1805 C   0  0  0  0  0  0  0  0  0  0  0  0
   -7.1635   -0.1166   -1.1319 C   0  0  0  0  0  0  0  0  0  0  0  0
   -1.0236    1.7225    1.2597 H   0  0  0  0  0  0  0  0  0  0  0  0
    1.2562   -2.2864    2.5553 H   0  0  0  0  0  0  0  0  0  0  0  0
   -1.4728   -0.3660    2.6176 H   0  0  0  0  0  0  0  0  0  0  0  0
   -0.7968   -2.5432    1.8194 H   0  0  0  0  0  0  0  0  0  0  0  0
   -0.2734   -1.9506    0.2509 H   0  0  0  0  0  0  0  0  0  0  0  0
    0.0945    2.7364    2.9795 H   0  0  0  0  0  0  0  0  0  0  0  0
   -0.0364    1.2593    3.9133 H   0  0  0  0  0  0  0  0  0  0  0  0
    1.5358    2.0138    3.7138 H   0  0  0  0  0  0  0  0  0  0  0  0
    6.0538    2.1741   -2.3051 H   0  0  0  0  0  0  0  0  0  0  0  0
    6.9963    2.0934   -0.7651 H   0  0  0  0  0  0  0  0  0  0  0  0
    0.5320    3.8784    1.3482 H   0  0  0  0  0  0  0  0  0  0  0  0
    1.1032   -4.2523    1.0727 H   0  0  0  0  0  0  0  0  0  0  0  0
    5.0281    4.0847   -0.7547 H   0  0  0  0  0  0  0  0  0  0  0  0
   -2.6528   -2.6544    0.7157 H   0  0  0  0  0  0  0  0  0  0  0  0
   -3.6761   -1.8120   -0.4119 H   0  0  0  0  0  0  0  0  0  0  0  0
   -1.9718   -1.8530   -0.7504 H   0  0  0  0  0  0  0  0  0  0  0  0
    5.3328   -3.7192   -1.4805 H   0  0  0  0  0  0  0  0  0  0  0  0
    7.9382    0.4566   -2.4830 H   0  0  0  0  0  0  0  0  0  0  0  0
   -1.8478    0.1583   -1.4151 H   0  0  0  0  0  0  0  0  0  0  0  0
   -1.8972    1.8194   -0.6605 H   0  0  0  0  0  0  0  0  0  0  0  0
   -0.8644    1.4438   -2.0107 H   0  0  0  0  0  0  0  0  0  0  0  0
    1.4968    6.0227    0.6784 H   0  0  0  0  0  0  0  0  0  0  0  0
    3.7394    6.1390   -0.3440 H   0  0  0  0  0  0  0  0  0  0  0  0
    2.2289   -6.2022    0.0732 H   0  0  0  0  0  0  0  0  0  0  0  0
    4.3284   -5.9252   -1.1931 H   0  0  0  0  0  0  0  0  0  0  0  0
   -5.6914   -0.7317    1.8834 H   0  0  0  0  0  0  0  0  0  0  0  0
   -4.0530    1.2021   -1.5600 H   0  0  0  0  0  0  0  0  0  0  0  0
   -8.1029   -0.2580   -1.6615 H   0  0  0  0  0  0  0  0  0  0  0  0
  1 15  1  0  0  0  0
  1 17  1  0  0  0  0
  2 16  1  0  0  0  0
  2 39  1  0  0  0  0
  3 33  2  0  0  0  0
  4 38  2  0  0  0  0
  5 13  1  0  0  0  0
  6 14  1  0  0  0  0
  7 13  2  0  0  0  0
  8 14  2  0  0  0  0
  9 15  1  0  0  0  0
  9 20  1  0  0  0  0
  9 24  1  0  0  0  0
 10 17  1  0  0  0  0
 10 21  1  0  0  0  0
 10 26  1  0  0  0  0
 11 18  1  0  0  0  0
 11 36  1  0  0  0  0
 11 38  1  0  0  0  0
 12 31  1  0  0  0  0
 12 33  1  0  0  0  0
 12 67  1  0  0  0  0
 13 47  1  0  0  0  0
 14 48  1  0  0  0  0
 15 16  1  0  0  0  0
 15 25  1  0  0  0  0
 16 18  1  0  0  0  0
 16 50  1  0  0  0  0
 17 19  1  0  0  0  0
 17 51  1  0  0  0  0
 18 19  1  0  0  0  0
 18 52  1  0  0  0  0
 19 53  1  0  0  0  0
 19 54  1  0  0  0  0
 20 21  2  0  0  0  0
 20 22  1  0  0  0  0
 21 23  1  0  0  0  0
 22 27  1  0  0  0  0
 22 28  2  0  0  0  0
 23 29  2  0  0  0  0
 23 30  1  0  0  0  0
 24 27  1  0  0  0  0
 24 32  2  0  0  0  0
 25 55  1  0  0  0  0
 25 56  1  0  0  0  0
 25 57  1  0  0  0  0
 26 30  1  0  0  0  0
 26 34  2  0  0  0  0
 27 35  2  0  0  0  0
 28 29  1  0  0  0  0
 28 31  1  0  0  0  0
 29 33  1  0  0  0  0
 30 37  2  0  0  0  0
 31 58  1  0  0  0  0
 31 59  1  0  0  0  0
 32 40  1  0  0  0  0
 32 60  1  0  0  0  0
 34 42  1  0  0  0  0
 34 61  1  0  0  0  0
 35 41  1  0  0  0  0
 35 62  1  0  0  0  0
 36 63  1  0  0  0  0
 36 64  1  0  0  0  0
 36 65  1  0  0  0  0
 37 43  1  0  0  0  0
 37 66  1  0  0  0  0
 38 44  1  0  0  0  0
 39 68  1  0  0  0  0
 39 69  1  0  0  0  0
 39 70  1  0  0  0  0
 40 41  2  0  0  0  0
 40 71  1  0  0  0  0
 41 72  1  0  0  0  0
 42 43  2  0  0  0  0
 42 73  1  0  0  0  0
 43 74  1  0  0  0  0
 44 45  2  0  0  0  0
 44 46  1  0  0  0  0
 45 48  1  0  0  0  0
 45 75  1  0  0  0  0
 46 47  2  0  0  0  0
 46 76  1  0  0  0  0
 47 49  1  0  0  0  0
 48 49  2  0  0  0  0
 49 77  1  0  0  0  0
M  CHG  4   5  -1   6  -1  13   1  14   1
M  END
> <PUBCHEM_COMPOUND_CID>
44352845

> <PUBCHEM_CONFORMER_RMSD>
1

> <PUBCHEM_CONFORMER_DIVERSEORDER>
1
8
3
6
7
9
2
5
4

> <PUBCHEM_MMFF94_PARTIAL_CHARGES>
57
1 -0.56
10 -0.04
11 -0.66
12 -0.73
13 0.91
14 0.91
15 0.54
16 0.28
17 0.54
18 0.3
2 -0.56
20 -0.05
21 -0.05
22 -0.01
23 -0.01
24 -0.15
26 -0.15
28 -0.14
29 0.09
3 -0.57
31 0.44
32 -0.15
33 0.54
34 -0.15
35 -0.15
36 0.3
37 -0.15
38 0.54
39 0.28
4 -0.57
40 -0.15
41 -0.15
42 -0.15
43 -0.15
44 0.09
45 -0.15
46 -0.15
47 0.13
48 0.13
49 -0.15
5 -0.52
6 -0.52
60 0.15
61 0.15
62 0.15
66 0.15
67 0.37
7 -0.52
71 0.15
72 0.15
73 0.15
74 0.15
75 0.15
76 0.15
77 0.15
8 -0.52
9 -0.04

> <PUBCHEM_EFFECTIVE_ROTOR_COUNT>
7.2

> <PUBCHEM_PHARMACOPHORE_FEATURES>
22
1 1 acceptor
1 10 cation
1 12 donor
1 2 acceptor
1 3 acceptor
1 4 acceptor
1 5 acceptor
1 5 anion
1 6 acceptor
1 6 anion
1 7 acceptor
1 8 acceptor
1 9 cation
5 10 21 23 26 30 rings
5 12 28 29 31 33 rings
5 9 20 22 24 27 rings
6 1 15 16 17 18 19 rings
6 20 21 22 23 28 29 rings
6 24 27 32 35 40 41 rings
6 26 30 34 37 42 43 rings
6 44 45 46 47 48 49 rings
7 1 9 10 15 17 20 21 rings

> <PUBCHEM_HEAVY_ATOM_COUNT>
49

> <PUBCHEM_ATOM_DEF_STEREO_COUNT>
4

> <PUBCHEM_ATOM_UDEF_STEREO_COUNT>
0

> <PUBCHEM_BOND_DEF_STEREO_COUNT>
0

> <PUBCHEM_BOND_UDEF_STEREO_COUNT>
0

> <PUBCHEM_ISOTOPIC_ATOM_COUNT>
0

> <PUBCHEM_COMPONENT_COUNT>
1

> <PUBCHEM_CACTVS_TAUTO_COUNT>
2

> <PUBCHEM_CONFORMER_ID>
02A4C54D00000001

> <PUBCHEM_MMFF94_ENERGY>
229.4085

> <PUBCHEM_FEATURE_SELFOVERLAP>
112.777

> <PUBCHEM_SHAPE_FINGERPRINT>
10319926 262 13614516381929236511
10556698 54 17754145636913837837
10622 236 17986670364033851155
11115154 58 17775012254052508897
13911987 19 18191897641996992732
14415360 78 18194964265452257052
15324884 4 17682418166904886384
15328829 1 17417823829022204619
15439362 3 18124883619085865552
15484559 13 18412833499602840510
15950262 2 15648487609039627156
19319366 153 18129938009059633440
21133410 171 17465635924521197554
22121540 332 17604410951712537789
22899556 105 18053403019771264350
23522609 53 17702690833833715873
23559900 14 18342458200450027809
23569914 152 17473232420581861677
24771750 20 18118134790443145236
3388396 114 18194984958941656406
3504750 166 16532286746079398210
3882209 13 17829314806119863642
3918712 181 16008735906511047037
4066623 53 18115581527412738172
42767 46 16630514142633322407
4353968 344 18052834546895919854
437795 51 18261394481036085797
46194498 28 18334572443252883041
57527306 92 16009035046609079076
57527452 28 15625958516833632108
6004065 56 18412269450110898168
9831232 110 18411695470623613611

> <PUBCHEM_SHAPE_MULTIPOLES>
931.56
20.11
5.84
2.49
42.33
0.25
-1.21
4.73
-13
-12.12
0.26
3.55
-0.85
2.61

> <PUBCHEM_SHAPE_SELFOVERLAP>
2135.454

> <PUBCHEM_SHAPE_VOLUME>
479.4

> <PUBCHEM_COORDINATE_TYPE>
2
5
10

$$$$
