46886323
  -OEChem-10052115143D

 72 78  0     0  0  0  0  0  0999 V2000
    4.3445   -3.4300    2.5811 S   0  0  0  0  0  0  0  0  0  0  0  0
   -2.3388   -0.7545    3.8687 O   0  0  0  0  0  0  0  0  0  0  0  0
   -1.9778   -2.3778   -0.2940 O   0  0  0  0  0  0  0  0  0  0  0  0
   -1.7881    1.1099    1.8388 N   0  0  0  0  0  0  0  0  0  0  0  0
    4.0832   -1.2628    1.2350 N   0  0  0  0  0  0  0  0  0  0  0  0
    1.6303    3.5931   -0.5407 N   0  0  0  0  0  0  0  0  0  0  0  0
    2.8252   -2.8460    0.2853 N   0  0  0  0  0  0  0  0  0  0  0  0
    2.5852    1.4817   -0.1920 N   0  0  0  0  0  0  0  0  0  0  0  0
    3.9419    3.3619   -0.8488 N   0  0  0  0  0  0  0  0  0  0  0  0
   -1.6441   -1.7880   -2.5470 N   0  0  0  0  0  0  0  0  0  0  0  0
   -2.5656    1.5066    3.0208 C   0  0  0  0  0  0  0  0  0  0  0  0
   -0.9236   -0.0607    2.0242 C   0  0  0  0  0  0  0  0  0  0  0  0
   -3.2754    0.2894    3.6026 C   0  0  0  0  0  0  0  0  0  0  0  0
   -1.7206   -1.1944    2.6599 C   0  0  0  0  0  0  0  0  0  0  0  0
   -1.4312    2.1020    0.9198 C   0  0  0  0  0  0  0  0  0  0  0  0
   -0.0857    2.3513    0.6495 C   0  0  0  0  0  0  0  0  0  0  0  0
   -2.4212    2.8420    0.2730 C   0  0  0  0  0  0  0  0  0  0  0  0
    3.4947   -0.6535    0.1694 C   0  0  0  0  0  0  0  0  0  0  0  0
    0.2700    3.3402   -0.2676 C   0  0  0  0  0  0  0  0  0  0  0  0
    2.7218   -1.6510   -0.4027 C   0  0  0  0  0  0  0  0  0  0  0  0
   -2.0656    3.8312   -0.6438 C   0  0  0  0  0  0  0  0  0  0  0  0
   -0.7199    4.0802   -0.9144 C   0  0  0  0  0  0  0  0  0  0  0  0
    1.9026   -1.4936   -1.5678 C   0  0  0  0  0  0  0  0  0  0  0  0
    3.6505   -2.5537    1.2517 C   0  0  0  0  0  0  0  0  0  0  0  0
    3.7018    0.7245   -0.1884 C   0  0  0  0  0  0  0  0  0  0  0  0
    4.9554   -0.9153    2.2388 C   0  0  0  0  0  0  0  0  0  0  0  0
    2.7748    2.7723   -0.5265 C   0  0  0  0  0  0  0  0  0  0  0  0
    0.5281   -1.7176   -1.4899 C   0  0  0  0  0  0  0  0  0  0  0  0
    2.4803   -1.1169   -2.7804 C   0  0  0  0  0  0  0  0  0  0  0  0
   -0.2690   -1.5646   -2.6244 C   0  0  0  0  0  0  0  0  0  0  0  0
    4.9565    1.2074   -0.4997 C   0  0  0  0  0  0  0  0  0  0  0  0
    5.2069   -1.9546    3.0528 C   0  0  0  0  0  0  0  0  0  0  0  0
    1.6835   -0.9642   -3.9149 C   0  0  0  0  0  0  0  0  0  0  0  0
    0.3088   -1.1878   -3.8369 C   0  0  0  0  0  0  0  0  0  0  0  0
    5.0170    2.5470   -0.8254 C   0  0  0  0  0  0  0  0  0  0  0  0
   -3.8735   -2.3033   -1.7812 C   0  0  0  0  0  0  0  0  0  0  0  0
   -2.4010   -2.1686   -1.4265 C   0  0  0  0  0  0  0  0  0  0  0  0
   -4.7666   -1.3827   -0.9913 C   0  0  0  0  0  0  0  0  0  0  0  0
   -5.3068   -1.8073    0.2227 C   0  0  0  0  0  0  0  0  0  0  0  0
   -5.0535   -0.1058   -1.4739 C   0  0  0  0  0  0  0  0  0  0  0  0
   -6.1338   -0.9548    0.9543 C   0  0  0  0  0  0  0  0  0  0  0  0
   -5.8806    0.7467   -0.7423 C   0  0  0  0  0  0  0  0  0  0  0  0
   -6.4205    0.3222    0.4719 C   0  0  0  0  0  0  0  0  0  0  0  0
   -3.3142    2.2715    2.7874 H   0  0  0  0  0  0  0  0  0  0  0  0
   -1.8774    1.9261    3.7651 H   0  0  0  0  0  0  0  0  0  0  0  0
   -0.0912    0.2072    2.6868 H   0  0  0  0  0  0  0  0  0  0  0  0
   -0.5125   -0.4042    1.0707 H   0  0  0  0  0  0  0  0  0  0  0  0
   -3.7591    0.5558    4.5476 H   0  0  0  0  0  0  0  0  0  0  0  0
   -4.0522   -0.0819    2.9258 H   0  0  0  0  0  0  0  0  0  0  0  0
   -2.4991   -1.5691    1.9883 H   0  0  0  0  0  0  0  0  0  0  0  0
   -1.0567   -2.0300    2.9025 H   0  0  0  0  0  0  0  0  0  0  0  0
    0.6775    1.8153    1.2030 H   0  0  0  0  0  0  0  0  0  0  0  0
   -3.4751    2.6545    0.4610 H   0  0  0  0  0  0  0  0  0  0  0  0
   -2.8365    4.4050   -1.1498 H   0  0  0  0  0  0  0  0  0  0  0  0
   -0.4561    4.8525   -1.6323 H   0  0  0  0  0  0  0  0  0  0  0  0
    1.8152    4.5132   -0.9290 H   0  0  0  0  0  0  0  0  0  0  0  0
    5.3588    0.0822    2.3238 H   0  0  0  0  0  0  0  0  0  0  0  0
    0.1391   -2.0178   -0.5271 H   0  0  0  0  0  0  0  0  0  0  0  0
    3.5508   -0.9457   -2.8662 H   0  0  0  0  0  0  0  0  0  0  0  0
    5.8458    0.5894   -0.4995 H   0  0  0  0  0  0  0  0  0  0  0  0
    5.8593   -1.9288    3.9141 H   0  0  0  0  0  0  0  0  0  0  0  0
    2.1335   -0.6726   -4.8594 H   0  0  0  0  0  0  0  0  0  0  0  0
   -0.2999   -1.0649   -4.7292 H   0  0  0  0  0  0  0  0  0  0  0  0
    5.9599    3.0160   -1.0857 H   0  0  0  0  0  0  0  0  0  0  0  0
   -2.1457   -1.6505   -3.4215 H   0  0  0  0  0  0  0  0  0  0  0  0
   -4.0484   -2.1447   -2.8521 H   0  0  0  0  0  0  0  0  0  0  0  0
   -4.1564   -3.3479   -1.5971 H   0  0  0  0  0  0  0  0  0  0  0  0
   -5.0881   -2.7985    0.6110 H   0  0  0  0  0  0  0  0  0  0  0  0
   -4.6358    0.2372   -2.4167 H   0  0  0  0  0  0  0  0  0  0  0  0
   -6.5525   -1.2844    1.9006 H   0  0  0  0  0  0  0  0  0  0  0  0
   -6.1020    1.7419   -1.1167 H   0  0  0  0  0  0  0  0  0  0  0  0
   -7.0626    0.9867    1.0425 H   0  0  0  0  0  0  0  0  0  0  0  0
  1 24  1  0  0  0  0
  1 32  1  0  0  0  0
  2 13  1  0  0  0  0
  2 14  1  0  0  0  0
  3 37  2  0  0  0  0
  4 11  1  0  0  0  0
  4 12  1  0  0  0  0
  4 15  1  0  0  0  0
  5 18  1  0  0  0  0
  5 24  1  0  0  0  0
  5 26  1  0  0  0  0
  6 19  1  0  0  0  0
  6 27  1  0  0  0  0
  6 56  1  0  0  0  0
  7 20  1  0  0  0  0
  7 24  2  0  0  0  0
  8 25  2  0  0  0  0
  8 27  1  0  0  0  0
  9 27  2  0  0  0  0
  9 35  1  0  0  0  0
 10 30  1  0  0  0  0
 10 37  1  0  0  0  0
 10 65  1  0  0  0  0
 11 13  1  0  0  0  0
 11 44  1  0  0  0  0
 11 45  1  0  0  0  0
 12 14  1  0  0  0  0
 12 46  1  0  0  0  0
 12 47  1  0  0  0  0
 13 48  1  0  0  0  0
 13 49  1  0  0  0  0
 14 50  1  0  0  0  0
 14 51  1  0  0  0  0
 15 16  1  0  0  0  0
 15 17  2  0  0  0  0
 16 19  2  0  0  0  0
 16 52  1  0  0  0  0
 17 21  1  0  0  0  0
 17 53  1  0  0  0  0
 18 20  2  0  0  0  0
 18 25  1  0  0  0  0
 19 22  1  0  0  0  0
 20 23  1  0  0  0  0
 21 22  2  0  0  0  0
 21 54  1  0  0  0  0
 22 55  1  0  0  0  0
 23 28  2  0  0  0  0
 23 29  1  0  0  0  0
 25 31  1  0  0  0  0
 26 32  2  0  0  0  0
 26 57  1  0  0  0  0
 28 30  1  0  0  0  0
 28 58  1  0  0  0  0
 29 33  2  0  0  0  0
 29 59  1  0  0  0  0
 30 34  2  0  0  0  0
 31 35  2  0  0  0  0
 31 60  1  0  0  0  0
 32 61  1  0  0  0  0
 33 34  1  0  0  0  0
 33 62  1  0  0  0  0
 34 63  1  0  0  0  0
 35 64  1  0  0  0  0
 36 37  1  0  0  0  0
 36 38  1  0  0  0  0
 36 66  1  0  0  0  0
 36 67  1  0  0  0  0
 38 39  2  0  0  0  0
 38 40  1  0  0  0  0
 39 41  1  0  0  0  0
 39 68  1  0  0  0  0
 40 42  2  0  0  0  0
 40 69  1  0  0  0  0
 41 43  2  0  0  0  0
 41 70  1  0  0  0  0
 42 43  1  0  0  0  0
 42 71  1  0  0  0  0
 43 72  1  0  0  0  0
M  END
> <PUBCHEM_COMPOUND_CID>
46886323

> <PUBCHEM_CONFORMER_RMSD>
1.4

> <PUBCHEM_CONFORMER_DIVERSEORDER>
1
131
167
206
265
138
116
117
132
88
164
223
183
59
231
212
83
208
24
155
41
97
174
256
226
140
66
39
105
228
78
162
129
128
216
107
203
115
204
172
219
250
252
195
111
260
53
159
152
148
200
6
199
190
185
151
168
51
222
118
3
245
86
236
213
103
144
143
16
61
234
114
145
156
153
63
253
237
142
210
71
99
136
124
163
93
95
8
197
179
74
12
209
246
10
257
166
80
150
187
243
84
135
205
244
224
158
254
110
211
113
36
249
85
130
261
70
108
96
9
169
20
5
262
26
126
264
112
54
165
46
68
149
202
232
193
76
49
139
81
176
72
175
47
233
106
215
178
38
48
251
21
191
221
255
192
15
240
90
62
242
218
119
87
55
198
173
259
180
109
94
194
141
37
241
14
247
137
4
230
60
217
32
91
154
45
19
23
89
133
196
207
160
188
2
122
186
52
220
98
50
67
13
64
134
238
181
248
101
147
146
65
34
100
17
157
18
43
258
11
35
171
161
82
92
214
30
25
189
42
121
170
69
182
104
123
184
225
29
27
127
7
77
58
201
56
33
31
263
73
28
44
75
40
79
57
22
235
227
229
125
120
239
102
177

> <PUBCHEM_MMFF94_PARTIAL_CHARGES>
62
1 -0.16
10 -0.55
11 0.37
12 0.37
13 0.28
14 0.28
15 0.1
16 -0.15
17 -0.15
18 -0.2
19 0.1
2 -0.56
20 0.17
21 -0.15
22 -0.15
23 0.05
24 0.24
25 0.36
26 -0.18
27 0.72
28 -0.15
29 -0.15
3 -0.57
30 0.12
31 -0.15
32 -0.05
33 -0.15
34 -0.15
35 0.16
36 0.2
37 0.57
38 -0.14
39 -0.15
4 -0.84
40 -0.15
41 -0.15
42 -0.15
43 -0.15
5 0.33
52 0.15
53 0.15
54 0.15
55 0.15
56 0.4
57 0.15
58 0.15
59 0.15
6 -0.6
60 0.15
61 0.15
62 0.15
63 0.15
64 0.15
65 0.37
68 0.15
69 0.15
7 -0.57
70 0.15
71 0.15
72 0.15
8 -0.62
9 -0.62

> <PUBCHEM_EFFECTIVE_ROTOR_COUNT>
10.2

> <PUBCHEM_PHARMACOPHORE_FEATURES>
15
1 10 donor
1 2 acceptor
1 3 acceptor
1 4 cation
1 6 donor
1 8 acceptor
3 5 7 24 cation
4 6 8 9 27 cation
5 1 5 24 26 32 rings
5 5 7 18 20 24 rings
6 15 16 17 19 21 22 rings
6 2 4 11 12 13 14 rings
6 23 28 29 30 33 34 rings
6 38 39 40 41 42 43 rings
6 8 9 25 27 31 35 rings

> <PUBCHEM_HEAVY_ATOM_COUNT>
43

> <PUBCHEM_ATOM_DEF_STEREO_COUNT>
0

> <PUBCHEM_ATOM_UDEF_STEREO_COUNT>
0

> <PUBCHEM_BOND_DEF_STEREO_COUNT>
0

> <PUBCHEM_BOND_UDEF_STEREO_COUNT>
0

> <PUBCHEM_ISOTOPIC_ATOM_COUNT>
0

> <PUBCHEM_COMPONENT_COUNT>
1

> <PUBCHEM_CACTVS_TAUTO_COUNT>
6

> <PUBCHEM_CONFORMER_ID>
02CB6DB300000001

> <PUBCHEM_MMFF94_ENERGY>
146.7973

> <PUBCHEM_FEATURE_SELFOVERLAP>
76.379

> <PUBCHEM_SHAPE_FINGERPRINT>
10816530 23 16010745925019162887
11093857 51 16987733444462617732
11578080 2 16951139493808096269
12422481 6 17917416610551242639
13111901 51 17630632084354905545
13165054 189 17766588767494068929
14840074 17 18129395941395486605
15297060 5 16557370286583205111
15406563 5 18118675514241100283
15790856 291 17465663386346856757
17809404 112 17095817614752294450
19319366 153 18046337806821330868
20764821 26 18127429859743614421
21814621 53 17240755147948754285
21927370 108 17825922877457293570
22019808 20 18128807548351690277
24941158 1 16371594572939830252
469060 322 18054535546701016759
563151 74 18041554875278744706

> <PUBCHEM_SHAPE_MULTIPOLES>
842.16
12.44
4.8
4.04
6.58
4.23
-0.4
-4.36
-4.28
-2.64
0.36
-0.23
-2.84
-3.37

> <PUBCHEM_SHAPE_SELFOVERLAP>
1857.405

> <PUBCHEM_SHAPE_VOLUME>
454.1

> <PUBCHEM_COORDINATE_TYPE>
2
5
10

$$$$
