24905168
  -OEChem-10052115143D

 38 40  0     0  0  0  0  0  0999 V2000
    5.3048    0.2943   -0.2960 O   0  0  0  0  0  0  0  0  0  0  0  0
   -2.2426    1.0193    0.0288 N   0  0  0  0  0  0  0  0  0  0  0  0
   -0.9552    1.4080   -0.0305 N   0  0  0  0  0  0  0  0  0  0  0  0
   -3.5619   -1.0095    0.1036 N   0  0  0  0  0  0  0  0  0  0  0  0
   -2.1555   -3.0022    0.0594 N   0  0  0  0  0  0  0  0  0  0  0  0
    0.2268   -2.8975   -0.0441 N   0  0  0  0  0  0  0  0  0  0  0  0
   -3.2862    2.0161    0.0659 C   0  0  0  0  0  0  0  0  0  0  0  0
   -2.4029   -0.3344    0.0473 C   0  0  0  0  0  0  0  0  0  0  0  0
   -1.1282   -0.8707   -0.0036 C   0  0  0  0  0  0  0  0  0  0  0  0
   -0.2817    0.2526   -0.0501 C   0  0  0  0  0  0  0  0  0  0  0  0
   -3.2922    2.8724   -1.2030 C   0  0  0  0  0  0  0  0  0  0  0  0
   -3.1822    2.8940    1.3154 C   0  0  0  0  0  0  0  0  0  0  0  0
    1.1580    0.2639   -0.1131 C   0  0  0  0  0  0  0  0  0  0  0  0
   -1.0250   -2.2578    0.0038 C   0  0  0  0  0  0  0  0  0  0  0  0
    1.8019    0.2592   -1.3506 C   0  0  0  0  0  0  0  0  0  0  0  0
    1.9078    0.2792    1.0630 C   0  0  0  0  0  0  0  0  0  0  0  0
   -3.3369   -2.3412    0.1052 C   0  0  0  0  0  0  0  0  0  0  0  0
    3.1953    0.2697   -1.4119 C   0  0  0  0  0  0  0  0  0  0  0  0
    3.3013    0.2898    1.0018 C   0  0  0  0  0  0  0  0  0  0  0  0
    3.9450    0.2850   -0.2357 C   0  0  0  0  0  0  0  0  0  0  0  0
    6.0095    0.3098    0.9444 C   0  0  0  0  0  0  0  0  0  0  0  0
   -4.2444    1.4846    0.1123 H   0  0  0  0  0  0  0  0  0  0  0  0
   -2.3751    3.4646   -1.2968 H   0  0  0  0  0  0  0  0  0  0  0  0
   -4.1405    3.5650   -1.1978 H   0  0  0  0  0  0  0  0  0  0  0  0
   -3.3751    2.2440   -2.0967 H   0  0  0  0  0  0  0  0  0  0  0  0
   -2.2609    3.4872    1.3186 H   0  0  0  0  0  0  0  0  0  0  0  0
   -3.1862    2.2812    2.2236 H   0  0  0  0  0  0  0  0  0  0  0  0
   -4.0282    3.5872    1.3723 H   0  0  0  0  0  0  0  0  0  0  0  0
    1.2320    0.2466   -2.2766 H   0  0  0  0  0  0  0  0  0  0  0  0
    1.4201    0.2824    2.0351 H   0  0  0  0  0  0  0  0  0  0  0  0
   -4.2216   -2.9672    0.1490 H   0  0  0  0  0  0  0  0  0  0  0  0
    3.6913    0.2655   -2.3787 H   0  0  0  0  0  0  0  0  0  0  0  0
    3.8219    0.3011    1.9533 H   0  0  0  0  0  0  0  0  0  0  0  0
    1.0860   -2.3695   -0.0864 H   0  0  0  0  0  0  0  0  0  0  0  0
    0.2568   -3.9082   -0.0371 H   0  0  0  0  0  0  0  0  0  0  0  0
    7.0788    0.3159    0.7086 H   0  0  0  0  0  0  0  0  0  0  0  0
    5.8162   -0.5965    1.5284 H   0  0  0  0  0  0  0  0  0  0  0  0
    5.8024    1.2224    1.5135 H   0  0  0  0  0  0  0  0  0  0  0  0
  1 20  1  0  0  0  0
  1 21  1  0  0  0  0
  2  3  1  0  0  0  0
  2  7  1  0  0  0  0
  2  8  1  0  0  0  0
  3 10  2  0  0  0  0
  4  8  2  0  0  0  0
  4 17  1  0  0  0  0
  5 14  1  0  0  0  0
  5 17  2  0  0  0  0
  6 14  1  0  0  0  0
  6 34  1  0  0  0  0
  6 35  1  0  0  0  0
  7 11  1  0  0  0  0
  7 12  1  0  0  0  0
  7 22  1  0  0  0  0
  8  9  1  0  0  0  0
  9 10  1  0  0  0  0
  9 14  2  0  0  0  0
 10 13  1  0  0  0  0
 11 23  1  0  0  0  0
 11 24  1  0  0  0  0
 11 25  1  0  0  0  0
 12 26  1  0  0  0  0
 12 27  1  0  0  0  0
 12 28  1  0  0  0  0
 13 15  2  0  0  0  0
 13 16  1  0  0  0  0
 15 18  1  0  0  0  0
 15 29  1  0  0  0  0
 16 19  2  0  0  0  0
 16 30  1  0  0  0  0
 17 31  1  0  0  0  0
 18 20  2  0  0  0  0
 18 32  1  0  0  0  0
 19 20  1  0  0  0  0
 19 33  1  0  0  0  0
 21 36  1  0  0  0  0
 21 37  1  0  0  0  0
 21 38  1  0  0  0  0
M  END
> <PUBCHEM_COMPOUND_CID>
24905168

> <PUBCHEM_CONFORMER_RMSD>
0.6

> <PUBCHEM_CONFORMER_DIVERSEORDER>
1
2
3
4

> <PUBCHEM_MMFF94_PARTIAL_CHARGES>
25
1 -0.36
10 0.23
13 0.05
14 0.41
15 -0.15
16 -0.15
17 0.47
18 -0.15
19 -0.15
2 0.31
20 0.08
21 0.28
29 0.15
3 -0.71
30 0.15
31 0.15
32 0.15
33 0.15
34 0.4
35 0.4
4 -0.57
5 -0.62
6 -0.9
7 0.26
8 0.11

> <PUBCHEM_EFFECTIVE_ROTOR_COUNT>
3

> <PUBCHEM_PHARMACOPHORE_FEATURES>
10
1 1 acceptor
1 3 acceptor
1 6 cation
1 6 donor
3 2 4 8 cation
3 4 5 17 cation
3 7 11 12 hydrophobe
5 2 3 8 9 10 rings
6 13 15 16 18 19 20 rings
6 4 5 8 9 14 17 rings

> <PUBCHEM_HEAVY_ATOM_COUNT>
21

> <PUBCHEM_ATOM_DEF_STEREO_COUNT>
0

> <PUBCHEM_ATOM_UDEF_STEREO_COUNT>
0

> <PUBCHEM_BOND_DEF_STEREO_COUNT>
0

> <PUBCHEM_BOND_UDEF_STEREO_COUNT>
0

> <PUBCHEM_ISOTOPIC_ATOM_COUNT>
0

> <PUBCHEM_COMPONENT_COUNT>
1

> <PUBCHEM_CACTVS_TAUTO_COUNT>
5

> <PUBCHEM_CONFORMER_ID>
017C05D000000001

> <PUBCHEM_MMFF94_ENERGY>
59.3369

> <PUBCHEM_FEATURE_SELFOVERLAP>
51.025

> <PUBCHEM_SHAPE_FINGERPRINT>
10319926 262 18270382959477858904
10411042 1 17978228597514363275
11315181 36 18187642548887217984
11582403 64 16910539885282045520
11796584 16 18270123410272855110
12107183 9 18046617911829463978
12236239 1 17676485085885578766
12390115 104 18200047144028924033
12500047 106 18411695465959017316
12788726 201 18192448569266092967
13140716 1 18122634013867826907
13583140 156 17988630918352665322
13862211 1 18194402414973702251
14178342 30 18408889520700872302
14508225 48 18195232537603950381
15042514 8 18265338498281711435
15375358 24 17775002367422492004
16752209 62 18336535101615652923
16945 1 18410295852255597103
1741750 31 18340773632825066753
19049666 15 17988656150710724278
200 152 16515957164164360806
20510252 161 18343305902746051017
20554085 129 17984394400707863225
20645477 56 18411987939978071705
21033648 29 17417800756478976280
21065201 7 18411984667845760970
22182313 1 18193576492661831351
22224240 67 18270412586131274201
23175994 123 17060068076892090176
2334 1 18338238138058792191
23402539 116 18341043124880016671
23419403 2 17273117224060374673
23557571 272 18272941539683182340
23559900 14 18200882764956275910
23598291 2 17676777560405384436
23845131 108 17980782454341456313
2748010 2 18121232991319966983
283562 15 18411979191752123667
312423 11 17823714125277571108
4214541 1 18410292519329326952
5104073 3 18410852136599020066
559249 180 18334851672431592554
573450 72 18261104184692349746
59755656 520 18128825149000678793
6327066 14 18043240258895465549
633830 44 17699572437725176973
7615 1 17896047688107330196
77492 1 17676206905122306516
81228 2 18338243785819233473
84936 182 17623282776266491849
9709674 26 18272379667671685198
9862522 239 17823410505301997397

> <PUBCHEM_SHAPE_MULTIPOLES>
401.4
9.3
3.1
1.11
12.45
0.88
0.1
-3.27
-1.16
-5.53
-0.13
0.53
-0.57
0.07

> <PUBCHEM_SHAPE_SELFOVERLAP>
875.533

> <PUBCHEM_SHAPE_VOLUME>
218.5

> <PUBCHEM_COORDINATE_TYPE>
2
5
10

$$$$
