49830328
  -OEChem-10052115193D

 38 41  0     0  0  0  0  0  0999 V2000
    0.9681   -4.9864   -1.0661 Cl  0  0  0  0  0  0  0  0  0  0  0  0
   -4.1368   -1.6169    0.6476 F   0  0  0  0  0  0  0  0  0  0  0  0
   -3.1142    2.9105   -0.3621 F   0  0  0  0  0  0  0  0  0  0  0  0
   -1.3767    1.2282    0.5563 O   0  0  0  0  0  0  0  0  0  0  0  0
    4.8064    0.1353    1.5584 N   0  0  0  0  0  0  0  0  0  0  0  0
    5.3848    2.1491    0.3696 N   0  0  0  0  0  0  0  0  0  0  0  0
   -1.7897   -0.9794   -0.1361 N   0  0  0  0  0  0  0  0  0  0  0  0
   -0.3908   -2.8389   -0.5564 N   0  0  0  0  0  0  0  0  0  0  0  0
    2.9793   -0.4903    0.4535 C   0  0  0  0  0  0  0  0  0  0  0  0
    3.4631    0.7102   -0.1305 C   0  0  0  0  0  0  0  0  0  0  0  0
    1.8362   -1.2868    0.1110 C   0  0  0  0  0  0  0  0  0  0  0  0
    4.6027    1.0736    0.5811 C   0  0  0  0  0  0  0  0  0  0  0  0
    3.8260   -0.8202    1.4898 C   0  0  0  0  0  0  0  0  0  0  0  0
    0.5612   -0.7338    0.1559 C   0  0  0  0  0  0  0  0  0  0  0  0
    3.0693    1.5440   -1.1897 C   0  0  0  0  0  0  0  0  0  0  0  0
    1.9990   -2.6149   -0.2674 C   0  0  0  0  0  0  0  0  0  0  0  0
   -0.5097   -1.5447   -0.1842 C   0  0  0  0  0  0  0  0  0  0  0  0
    3.8442    2.6721   -1.4525 C   0  0  0  0  0  0  0  0  0  0  0  0
    0.8638   -3.3417   -0.5885 C   0  0  0  0  0  0  0  0  0  0  0  0
    4.9588    2.9158   -0.6613 C   0  0  0  0  0  0  0  0  0  0  0  0
   -3.5891    0.6390    0.1447 C   0  0  0  0  0  0  0  0  0  0  0  0
   -2.1375    0.3276    0.2187 C   0  0  0  0  0  0  0  0  0  0  0  0
   -4.5302   -0.3663    0.3669 C   0  0  0  0  0  0  0  0  0  0  0  0
   -4.0100    1.9366   -0.1467 C   0  0  0  0  0  0  0  0  0  0  0  0
   -5.8925   -0.0740    0.2976 C   0  0  0  0  0  0  0  0  0  0  0  0
   -5.3723    2.2288   -0.2160 C   0  0  0  0  0  0  0  0  0  0  0  0
   -6.3136    1.2235    0.0064 C   0  0  0  0  0  0  0  0  0  0  0  0
    3.8236   -1.6451    2.1898 H   0  0  0  0  0  0  0  0  0  0  0  0
    5.5639    0.1468    2.2272 H   0  0  0  0  0  0  0  0  0  0  0  0
    0.4944    0.2974    0.4620 H   0  0  0  0  0  0  0  0  0  0  0  0
    2.1927    1.3257   -1.7910 H   0  0  0  0  0  0  0  0  0  0  0  0
    2.9826   -3.0733   -0.3163 H   0  0  0  0  0  0  0  0  0  0  0  0
    3.5805    3.3463   -2.2604 H   0  0  0  0  0  0  0  0  0  0  0  0
   -2.5270   -1.6207   -0.4161 H   0  0  0  0  0  0  0  0  0  0  0  0
    5.5743    3.7910   -0.8522 H   0  0  0  0  0  0  0  0  0  0  0  0
   -6.6250   -0.8569    0.4706 H   0  0  0  0  0  0  0  0  0  0  0  0
   -5.6999    3.2390   -0.4429 H   0  0  0  0  0  0  0  0  0  0  0  0
   -7.3741    1.4511   -0.0474 H   0  0  0  0  0  0  0  0  0  0  0  0
  1 19  1  0  0  0  0
  2 23  1  0  0  0  0
  3 24  1  0  0  0  0
  4 22  2  0  0  0  0
  5 12  1  0  0  0  0
  5 13  1  0  0  0  0
  5 29  1  0  0  0  0
  6 12  1  0  0  0  0
  6 20  2  0  0  0  0
  7 17  1  0  0  0  0
  7 22  1  0  0  0  0
  7 34  1  0  0  0  0
  8 17  2  0  0  0  0
  8 19  1  0  0  0  0
  9 10  1  0  0  0  0
  9 11  1  0  0  0  0
  9 13  2  0  0  0  0
 10 12  2  0  0  0  0
 10 15  1  0  0  0  0
 11 14  2  0  0  0  0
 11 16  1  0  0  0  0
 13 28  1  0  0  0  0
 14 17  1  0  0  0  0
 14 30  1  0  0  0  0
 15 18  2  0  0  0  0
 15 31  1  0  0  0  0
 16 19  2  0  0  0  0
 16 32  1  0  0  0  0
 18 20  1  0  0  0  0
 18 33  1  0  0  0  0
 20 35  1  0  0  0  0
 21 22  1  0  0  0  0
 21 23  2  0  0  0  0
 21 24  1  0  0  0  0
 23 25  1  0  0  0  0
 24 26  2  0  0  0  0
 25 27  2  0  0  0  0
 25 36  1  0  0  0  0
 26 27  1  0  0  0  0
 26 37  1  0  0  0  0
 27 38  1  0  0  0  0
M  END
> <PUBCHEM_COMPOUND_CID>
49830328

> <PUBCHEM_CONFORMER_RMSD>
0.8

> <PUBCHEM_CONFORMER_DIVERSEORDER>
1
13
10
12
14
2
8
9
11
7
4
6
5
3

> <PUBCHEM_MMFF94_PARTIAL_CHARGES>
37
1 -0.18
11 0.05
12 0.11
13 -0.3
14 -0.15
15 -0.15
16 -0.15
17 0.43
18 -0.15
19 0.49
2 -0.19
20 0.16
21 0.09
22 0.54
23 0.19
24 0.19
25 -0.15
26 -0.15
27 -0.15
28 0.15
29 0.27
3 -0.19
30 0.15
31 0.15
32 0.15
33 0.15
34 0.37
35 0.15
36 0.15
37 0.15
38 0.15
4 -0.57
5 0.03
6 -0.57
7 -0.55
8 -0.62
9 -0.05

> <PUBCHEM_EFFECTIVE_ROTOR_COUNT>
4

> <PUBCHEM_PHARMACOPHORE_FEATURES>
9
1 4 acceptor
1 5 cation
1 5 donor
1 6 acceptor
1 7 donor
5 5 9 10 12 13 rings
6 21 23 24 25 26 27 rings
6 6 10 12 15 18 20 rings
6 8 11 14 16 17 19 rings

> <PUBCHEM_HEAVY_ATOM_COUNT>
27

> <PUBCHEM_ATOM_DEF_STEREO_COUNT>
0

> <PUBCHEM_ATOM_UDEF_STEREO_COUNT>
0

> <PUBCHEM_BOND_DEF_STEREO_COUNT>
0

> <PUBCHEM_BOND_UDEF_STEREO_COUNT>
0

> <PUBCHEM_ISOTOPIC_ATOM_COUNT>
0

> <PUBCHEM_COMPONENT_COUNT>
1

> <PUBCHEM_CACTVS_TAUTO_COUNT>
18

> <PUBCHEM_CONFORMER_ID>
02F859B800000001

> <PUBCHEM_MMFF94_ENERGY>
72.3666

> <PUBCHEM_FEATURE_SELFOVERLAP>
45.784

> <PUBCHEM_SHAPE_FINGERPRINT>
10090160 65 18410284796809447079
10411042 1 17547855153193500206
10483366 6 18193861279612267918
10670039 82 18129677317783589584
10763959 59 18335989653785721326
10835480 77 18265044740241651877
12403259 118 18334005120811783970
12403259 327 16877665651832192320
12422481 6 17894622630569249053
12633257 1 15358260519344988436
12788726 201 17905601465053770522
12978246 48 18408604798518395864
13785724 45 17903066743096714890
13965767 371 18113892784789318364
14251764 38 18262239898278327361
14294032 229 18128259088937320030
14347332 77 9079110039135463489
1454969 45 18340485694661411311
14767858 380 18199454619426243703
14790565 3 18339926046645829181
15840311 113 18050297960559364729
15961568 22 18113623369527569173
17810953 82 18408041797426085900
17980427 23 17967816106497842623
18222031 100 12035449436665771194
18681886 176 18410571791272788160
18785283 64 18338514115219537798
19319366 153 18201992201515332407
19427546 62 18410575050784109527
1979834 28 18335426729185619389
20715895 44 18118675522657643397
21033648 144 18040989665750461525
21033648 29 18129079248071701232
21049683 271 18052264986439385358
21133410 127 18113905914130991924
21302155 148 18410014376962297433
21756936 100 18270675510642429974
21859007 373 16807279208638108149
22149856 69 18200606822002976963
23522609 53 17631464376271464705
23559900 14 18194968431195902999
245318 6 17678476357015027436
350125 39 18339361864649022478
474 4 18409731724948341394
5104073 3 18192437373130339451
5219985 13 18341611563838513334
550186 72 18338233899137217165
6058803 2 17901371614373500034
67856867 119 18337670793995364891
7808743 9 18195808690218247816
960060 61 12175618499179547752
9981440 41 18336833081919846923

> <PUBCHEM_SHAPE_MULTIPOLES>
517.18
13.86
4.56
1.05
12.09
4.46
0.03
-12.62
1.76
-3.18
-2.21
-1.32
-0.03
-0.42

> <PUBCHEM_SHAPE_SELFOVERLAP>
1155.452

> <PUBCHEM_SHAPE_VOLUME>
276.9

> <PUBCHEM_COORDINATE_TYPE>
2
5
10

$$$$
