49830280
  -OEChem-10052115183D

 49 52  0     0  0  0  0  0  0999 V2000
    0.8492   -5.1639    0.1306 Cl  0  0  0  0  0  0  0  0  0  0  0  0
   -5.7775    0.6763   -0.8110 N   0  0  0  0  0  0  0  0  0  0  0  0
   -1.6141   -0.9776    0.8422 N   0  0  0  0  0  0  0  0  0  0  0  0
    0.6073   -0.7284    0.2166 N   0  0  0  0  0  0  0  0  0  0  0  0
   -0.3799   -2.9104    0.4845 N   0  0  0  0  0  0  0  0  0  0  0  0
    4.7497    0.2326   -1.3725 N   0  0  0  0  0  0  0  0  0  0  0  0
    4.9883    2.4103   -0.3705 N   0  0  0  0  0  0  0  0  0  0  0  0
   -4.5021    1.0699   -0.2128 C   0  0  0  0  0  0  0  0  0  0  0  0
   -1.8157    0.4566    0.9079 C   0  0  0  0  0  0  0  0  0  0  0  0
   -4.3532    0.4169    1.1648 C   0  0  0  0  0  0  0  0  0  0  0  0
   -3.3370    0.6901   -1.1329 C   0  0  0  0  0  0  0  0  0  0  0  0
   -3.0121    0.7734    1.8087 C   0  0  0  0  0  0  0  0  0  0  0  0
   -1.9868    1.0340   -0.5001 C   0  0  0  0  0  0  0  0  0  0  0  0
   -6.8842    0.9857    0.0939 C   0  0  0  0  0  0  0  0  0  0  0  0
   -5.9675    1.3455   -2.0976 C   0  0  0  0  0  0  0  0  0  0  0  0
   -0.4103   -1.5642    0.4988 C   0  0  0  0  0  0  0  0  0  0  0  0
    1.7672   -1.3342   -0.1121 C   0  0  0  0  0  0  0  0  0  0  0  0
    2.8631   -0.4605   -0.4180 C   0  0  0  0  0  0  0  0  0  0  0  0
    0.8102   -3.4493    0.1477 C   0  0  0  0  0  0  0  0  0  0  0  0
    1.9290   -2.7037   -0.1636 C   0  0  0  0  0  0  0  0  0  0  0  0
    3.1585    0.8389    0.0725 C   0  0  0  0  0  0  0  0  0  0  0  0
    3.8590   -0.8072   -1.3054 C   0  0  0  0  0  0  0  0  0  0  0  0
    4.3403    1.2425   -0.5420 C   0  0  0  0  0  0  0  0  0  0  0  0
    2.5604    1.7345    0.9738 C   0  0  0  0  0  0  0  0  0  0  0  0
    3.1898    2.9592    1.1889 C   0  0  0  0  0  0  0  0  0  0  0  0
    4.3683    3.2330    0.5075 C   0  0  0  0  0  0  0  0  0  0  0  0
   -4.4801    2.1609   -0.0708 H   0  0  0  0  0  0  0  0  0  0  0  0
   -0.9389    0.9208    1.3775 H   0  0  0  0  0  0  0  0  0  0  0  0
   -5.1196    0.7607    1.8678 H   0  0  0  0  0  0  0  0  0  0  0  0
   -4.4515   -0.6733    1.0879 H   0  0  0  0  0  0  0  0  0  0  0  0
   -3.3677   -0.3823   -1.3650 H   0  0  0  0  0  0  0  0  0  0  0  0
   -3.3789    1.2276   -2.0861 H   0  0  0  0  0  0  0  0  0  0  0  0
   -3.0080    1.8474    2.0365 H   0  0  0  0  0  0  0  0  0  0  0  0
   -2.9181    0.2480    2.7671 H   0  0  0  0  0  0  0  0  0  0  0  0
   -1.9058    2.1273   -0.4367 H   0  0  0  0  0  0  0  0  0  0  0  0
   -1.1838    0.7063   -1.1700 H   0  0  0  0  0  0  0  0  0  0  0  0
   -2.3925   -1.6021    1.0175 H   0  0  0  0  0  0  0  0  0  0  0  0
   -6.9274    0.2940    0.9411 H   0  0  0  0  0  0  0  0  0  0  0  0
   -6.8535    2.0179    0.4617 H   0  0  0  0  0  0  0  0  0  0  0  0
   -7.8458    0.8488   -0.4166 H   0  0  0  0  0  0  0  0  0  0  0  0
   -5.8416    2.4322   -2.0289 H   0  0  0  0  0  0  0  0  0  0  0  0
   -5.2975    0.9517   -2.8677 H   0  0  0  0  0  0  0  0  0  0  0  0
   -6.9759    1.1532   -2.4844 H   0  0  0  0  0  0  0  0  0  0  0  0
    2.8665   -3.1854   -0.4149 H   0  0  0  0  0  0  0  0  0  0  0  0
    4.0250   -1.6899   -1.9083 H   0  0  0  0  0  0  0  0  0  0  0  0
    5.5800    0.2533   -1.9481 H   0  0  0  0  0  0  0  0  0  0  0  0
    1.6410    1.4947    1.4974 H   0  0  0  0  0  0  0  0  0  0  0  0
    2.7668    3.6835    1.8767 H   0  0  0  0  0  0  0  0  0  0  0  0
    4.8726    4.1830    0.6634 H   0  0  0  0  0  0  0  0  0  0  0  0
  1 19  1  0  0  0  0
  2  8  1  0  0  0  0
  2 14  1  0  0  0  0
  2 15  1  0  0  0  0
  3  9  1  0  0  0  0
  3 16  1  0  0  0  0
  3 37  1  0  0  0  0
  4 16  2  0  0  0  0
  4 17  1  0  0  0  0
  5 16  1  0  0  0  0
  5 19  2  0  0  0  0
  6 22  1  0  0  0  0
  6 23  1  0  0  0  0
  6 46  1  0  0  0  0
  7 23  1  0  0  0  0
  7 26  2  0  0  0  0
  8 10  1  0  0  0  0
  8 11  1  0  0  0  0
  8 27  1  0  0  0  0
  9 12  1  0  0  0  0
  9 13  1  0  0  0  0
  9 28  1  0  0  0  0
 10 12  1  0  0  0  0
 10 29  1  0  0  0  0
 10 30  1  0  0  0  0
 11 13  1  0  0  0  0
 11 31  1  0  0  0  0
 11 32  1  0  0  0  0
 12 33  1  0  0  0  0
 12 34  1  0  0  0  0
 13 35  1  0  0  0  0
 13 36  1  0  0  0  0
 14 38  1  0  0  0  0
 14 39  1  0  0  0  0
 14 40  1  0  0  0  0
 15 41  1  0  0  0  0
 15 42  1  0  0  0  0
 15 43  1  0  0  0  0
 17 18  1  0  0  0  0
 17 20  2  0  0  0  0
 18 21  1  0  0  0  0
 18 22  2  0  0  0  0
 19 20  1  0  0  0  0
 20 44  1  0  0  0  0
 21 23  2  0  0  0  0
 21 24  1  0  0  0  0
 22 45  1  0  0  0  0
 24 25  2  0  0  0  0
 24 47  1  0  0  0  0
 25 26  1  0  0  0  0
 25 48  1  0  0  0  0
 26 49  1  0  0  0  0
M  END
> <PUBCHEM_COMPOUND_CID>
49830280

> <PUBCHEM_CONFORMER_RMSD>
0.8

> <PUBCHEM_CONFORMER_DIVERSEORDER>
2
120
102
114
40
24
6
35
80
93
53
136
143
111
78
77
138
90
126
49
75
63
91
110
137
119
142
42
58
123
34
105
87
109
101
55
89
113
45
47
122
118
106
104
30
26
74
76
128
85
115
86
71
144
129
100
130
56
117
72
82
79
23
43
96
135
54
112
44
133
83
146
29
92
46
84
132
1
125
108
99
121
139
97
33
8
145
127
131
134
124
60
94
73
103
81
3
116
50
36
141
52
107
17
11
95
65
5
70
37
10
68
69
57
51
140
64
41
18
32
61
14
12
31
21
62
98
67
88
27
66
19
48
59
22
4
15
25
16
7
20
38
13
9
39
28

> <PUBCHEM_MMFF94_PARTIAL_CHARGES>
28
1 -0.18
14 0.27
15 0.27
16 0.72
17 0.36
18 -0.05
19 0.49
2 -0.81
20 -0.15
22 -0.3
23 0.11
24 -0.15
25 -0.15
26 0.16
3 -0.87
37 0.4
4 -0.62
44 0.15
45 0.15
46 0.27
47 0.15
48 0.15
49 0.15
5 -0.62
6 0.03
7 -0.57
8 0.27
9 0.37

> <PUBCHEM_EFFECTIVE_ROTOR_COUNT>
5.2

> <PUBCHEM_PHARMACOPHORE_FEATURES>
11
1 2 cation
1 3 donor
1 5 acceptor
1 6 cation
1 6 donor
1 7 acceptor
4 3 4 5 16 cation
5 6 18 21 22 23 rings
6 4 5 16 17 19 20 rings
6 7 21 23 24 25 26 rings
6 8 9 10 11 12 13 rings

> <PUBCHEM_HEAVY_ATOM_COUNT>
26

> <PUBCHEM_ATOM_DEF_STEREO_COUNT>
0

> <PUBCHEM_ATOM_UDEF_STEREO_COUNT>
0

> <PUBCHEM_BOND_DEF_STEREO_COUNT>
0

> <PUBCHEM_BOND_UDEF_STEREO_COUNT>
0

> <PUBCHEM_ISOTOPIC_ATOM_COUNT>
0

> <PUBCHEM_COMPONENT_COUNT>
1

> <PUBCHEM_CACTVS_TAUTO_COUNT>
16

> <PUBCHEM_CONFORMER_ID>
02F8598800000002

> <PUBCHEM_MMFF94_ENERGY>
61.1604

> <PUBCHEM_FEATURE_SELFOVERLAP>
55.934

> <PUBCHEM_SHAPE_FINGERPRINT>
10165383 225 18261121768351906420
10411042 1 17617943534711796842
10498660 4 18408889567813767192
10693767 8 17843972442536899534
11135609 149 17627511532541485582
11211813 74 18263072233872891533
12403259 415 18336276733246243507
12730499 353 18408610244905724787
12769317 202 18411981343092499288
12788726 201 17203049561511565793
12969540 114 18335413586991654621
13034934 17 18187938317240725187
13540713 4 17913222137801984484
1361 2 18409443722122708773
13773456 73 18187629311259896609
13955234 65 18264768766506130915
14528608 73 18413106152420754413
14681490 219 18131350795819017801
14848178 96 18412829118129212376
14931854 50 18202014204917879668
15003188 100 18411702109946747117
19319366 153 18271798012982721727
20567600 254 18333726927195426924
21033648 29 18337672048136403992
21049683 118 18191004876292164010
21968339 14 18265882579968196646
22122407 14 17983600519607291137
221357 26 18200882781519427652
23522609 53 17774450378822118985
23536364 44 17691709800516166918
23559900 14 16878514397447079051
238 59 18342738472994092042
23845131 108 18335421300516210619
24771293 8 17985264063652433330
335352 9 18412553107204996582
341906 21 16588308267688243701
376196 1 18261110772750890443
43658 37 18410008840527991219
4371632 12 16340877654086580696
437795 51 18343025536493252209
469060 322 17314500629505701383
474 4 18342737424937591592
495365 180 18410004429722997090
53794403 172 18119250803172294453
56633871 153 10737280260298121177
6327066 14 18262800795348092780
633830 44 18059028210460579600
6371009 1 18341326713260419776
6442390 28 18336833090557240806
7808743 9 17973454483977662004

> <PUBCHEM_SHAPE_MULTIPOLES>
507.05
13.16
4.52
1.38
17.01
5.85
-0.18
-12.07
-4.39
-5.91
0.91
1.16
-0.57
1.33

> <PUBCHEM_SHAPE_SELFOVERLAP>
1092.5

> <PUBCHEM_SHAPE_VOLUME>
280

> <PUBCHEM_COORDINATE_TYPE>
2
5
10

$$$$
