16730109
  -OEChem-10062121573D

 48 52  0     0  0  0  0  0  0999 V2000
    5.6544   -0.2890   -0.9698 O   0  0  0  0  0  0  0  0  0  0  0  0
    5.2646    4.2999    0.8553 O   0  0  0  0  0  0  0  0  0  0  0  0
   -4.1546   -0.2541    0.2925 N   0  0  0  0  0  0  0  0  0  0  0  0
    0.1187   -2.0242    0.3136 N   0  0  0  0  0  0  0  0  0  0  0  0
   -4.2452   -1.4072    0.9807 N   0  0  0  0  0  0  0  0  0  0  0  0
   -2.5042    1.0842   -0.8684 N   0  0  0  0  0  0  0  0  0  0  0  0
   -0.2935    0.0557   -0.7922 N   0  0  0  0  0  0  0  0  0  0  0  0
    4.1693    0.9992    0.3127 N   0  0  0  0  0  0  0  0  0  0  0  0
    4.3238    3.2921    1.0294 N   0  0  0  0  0  0  0  0  0  0  0  0
   -2.1059   -1.0392    0.2657 C   0  0  0  0  0  0  0  0  0  0  0  0
    1.4996   -2.2333    0.1117 C   0  0  0  0  0  0  0  0  0  0  0  0
   -2.8963    0.0146   -0.1581 C   0  0  0  0  0  0  0  0  0  0  0  0
   -0.7581   -0.9959   -0.0755 C   0  0  0  0  0  0  0  0  0  0  0  0
    2.0211   -3.5242    0.0278 C   0  0  0  0  0  0  0  0  0  0  0  0
    2.3453   -1.1305   -0.0069 C   0  0  0  0  0  0  0  0  0  0  0  0
   -5.2866    0.5371    0.1005 C   0  0  0  0  0  0  0  0  0  0  0  0
   -2.9944   -1.8808    0.9607 C   0  0  0  0  0  0  0  0  0  0  0  0
    3.7125   -1.3186   -0.2096 C   0  0  0  0  0  0  0  0  0  0  0  0
    3.3883   -3.7124   -0.1750 C   0  0  0  0  0  0  0  0  0  0  0  0
    4.2341   -2.6096   -0.2937 C   0  0  0  0  0  0  0  0  0  0  0  0
    1.1385   -4.7235    0.1501 C   0  0  0  0  0  0  0  0  0  0  0  0
   -5.3986    1.3281   -1.0428 C   0  0  0  0  0  0  0  0  0  0  0  0
   -6.3069    0.5374    1.0515 C   0  0  0  0  0  0  0  0  0  0  0  0
   -1.1826    1.0166   -1.1392 C   0  0  0  0  0  0  0  0  0  0  0  0
    4.5944   -0.1690   -0.3344 C   0  0  0  0  0  0  0  0  0  0  0  0
   -6.5311    2.1193   -1.2352 C   0  0  0  0  0  0  0  0  0  0  0  0
   -7.4395    1.3287    0.8590 C   0  0  0  0  0  0  0  0  0  0  0  0
   -7.5516    2.1197   -0.2843 C   0  0  0  0  0  0  0  0  0  0  0  0
    4.8235    2.2369    0.3800 C   0  0  0  0  0  0  0  0  0  0  0  0
    6.0647    2.5164   -0.2173 C   0  0  0  0  0  0  0  0  0  0  0  0
    6.2965    3.8259    0.1112 C   0  0  0  0  0  0  0  0  0  0  0  0
   -0.3547   -2.8048    0.7579 H   0  0  0  0  0  0  0  0  0  0  0  0
    1.9333   -0.1313    0.0583 H   0  0  0  0  0  0  0  0  0  0  0  0
   -2.7885   -2.8196    1.4551 H   0  0  0  0  0  0  0  0  0  0  0  0
    3.8114   -4.7113   -0.2412 H   0  0  0  0  0  0  0  0  0  0  0  0
    5.2968   -2.7792   -0.4460 H   0  0  0  0  0  0  0  0  0  0  0  0
    1.6867   -5.6523   -0.0431 H   0  0  0  0  0  0  0  0  0  0  0  0
    0.3207   -4.6791   -0.5769 H   0  0  0  0  0  0  0  0  0  0  0  0
    0.7245   -4.7923    1.1615 H   0  0  0  0  0  0  0  0  0  0  0  0
   -4.6626    1.3241   -1.8398 H   0  0  0  0  0  0  0  0  0  0  0  0
   -6.2448   -0.0600    1.9577 H   0  0  0  0  0  0  0  0  0  0  0  0
   -0.7773    1.8437   -1.7121 H   0  0  0  0  0  0  0  0  0  0  0  0
   -6.6248    2.7260   -2.1313 H   0  0  0  0  0  0  0  0  0  0  0  0
   -8.2335    1.3305    1.6001 H   0  0  0  0  0  0  0  0  0  0  0  0
   -8.4344    2.7339   -0.4354 H   0  0  0  0  0  0  0  0  0  0  0  0
    3.3104    0.9938    0.8538 H   0  0  0  0  0  0  0  0  0  0  0  0
    6.7199    1.8909   -0.8033 H   0  0  0  0  0  0  0  0  0  0  0  0
    7.0937    4.5257   -0.0903 H   0  0  0  0  0  0  0  0  0  0  0  0
  1 25  2  0  0  0  0
  2  9  1  0  0  0  0
  2 31  1  0  0  0  0
  3  5  1  0  0  0  0
  3 12  1  0  0  0  0
  3 16  1  0  0  0  0
  4 11  1  0  0  0  0
  4 13  1  0  0  0  0
  4 32  1  0  0  0  0
  5 17  2  0  0  0  0
  6 12  2  0  0  0  0
  6 24  1  0  0  0  0
  7 13  1  0  0  0  0
  7 24  2  0  0  0  0
  8 25  1  0  0  0  0
  8 29  1  0  0  0  0
  8 46  1  0  0  0  0
  9 29  2  0  0  0  0
 10 12  1  0  0  0  0
 10 13  2  0  0  0  0
 10 17  1  0  0  0  0
 11 14  2  0  0  0  0
 11 15  1  0  0  0  0
 14 19  1  0  0  0  0
 14 21  1  0  0  0  0
 15 18  2  0  0  0  0
 15 33  1  0  0  0  0
 16 22  2  0  0  0  0
 16 23  1  0  0  0  0
 17 34  1  0  0  0  0
 18 20  1  0  0  0  0
 18 25  1  0  0  0  0
 19 20  2  0  0  0  0
 19 35  1  0  0  0  0
 20 36  1  0  0  0  0
 21 37  1  0  0  0  0
 21 38  1  0  0  0  0
 21 39  1  0  0  0  0
 22 26  1  0  0  0  0
 22 40  1  0  0  0  0
 23 27  2  0  0  0  0
 23 41  1  0  0  0  0
 24 42  1  0  0  0  0
 26 28  2  0  0  0  0
 26 43  1  0  0  0  0
 27 28  1  0  0  0  0
 27 44  1  0  0  0  0
 28 45  1  0  0  0  0
 29 30  1  0  0  0  0
 30 31  2  0  0  0  0
 30 47  1  0  0  0  0
 31 48  1  0  0  0  0
M  END
> <PUBCHEM_COMPOUND_CID>
16730109

> <PUBCHEM_CONFORMER_RMSD>
0.8

> <PUBCHEM_CONFORMER_DIVERSEORDER>
1
64
75
34
65
73
50
91
79
5
19
77
7
70
35
47
29
10
37
26
88
42
54
58
85
67
25
38
46
44
27
45
3
21
9
22
28
41
53
6
30
69
13
49
87
81
8
16
56
23
90
55
72
14
63
84
86
24
78
60
18
39
74
52
89
66
11
12
20
83
36
48
80
32
4
61
17
62
68
71
2
43
59
82
33
31
51
57
40
15
76
92

> <PUBCHEM_MMFF94_PARTIAL_CHARGES>
44
1 -0.57
11 0.1
12 0.11
13 0.41
14 -0.14
15 -0.15
16 -0.02
17 0.14
18 0.09
19 -0.15
2 -0.02
20 -0.15
21 0.14
22 -0.15
23 -0.15
24 0.47
25 0.54
26 -0.15
27 -0.15
28 -0.15
29 0.35
3 0.59
30 -0.15
31 -0.01
32 0.4
33 0.15
34 0.15
35 0.15
36 0.15
4 -0.6
40 0.15
41 0.15
42 0.15
43 0.15
44 0.15
45 0.15
46 0.37
47 0.15
48 0.15
5 -0.71
6 -0.57
7 -0.62
8 -0.49
9 -0.41

> <PUBCHEM_EFFECTIVE_ROTOR_COUNT>
6

> <PUBCHEM_PHARMACOPHORE_FEATURES>
12
1 1 acceptor
1 4 cation
1 4 donor
1 5 acceptor
1 8 donor
3 3 6 12 cation
3 6 7 24 cation
5 2 9 29 30 31 rings
5 3 5 10 12 17 rings
6 11 14 15 18 19 20 rings
6 16 22 23 26 27 28 rings
6 6 7 10 12 13 24 rings

> <PUBCHEM_HEAVY_ATOM_COUNT>
31

> <PUBCHEM_ATOM_DEF_STEREO_COUNT>
0

> <PUBCHEM_ATOM_UDEF_STEREO_COUNT>
0

> <PUBCHEM_BOND_DEF_STEREO_COUNT>
0

> <PUBCHEM_BOND_UDEF_STEREO_COUNT>
0

> <PUBCHEM_ISOTOPIC_ATOM_COUNT>
0

> <PUBCHEM_COMPONENT_COUNT>
1

> <PUBCHEM_CACTVS_TAUTO_COUNT>
15

> <PUBCHEM_CONFORMER_ID>
00FF47FD00000001

> <PUBCHEM_MMFF94_ENERGY>
97.2329

> <PUBCHEM_FEATURE_SELFOVERLAP>
61.177

> <PUBCHEM_SHAPE_FINGERPRINT>
10165383 225 18260839194269821462
10411042 1 17834959668821016654
10673678 19 18413112770495826658
10675989 125 18342457045747721664
10835480 77 18409164394597737469
10864689 126 18410865373714710084
11112241 14 18408041836207093475
11135609 127 18412255117129661417
11386260 185 18200030612821049854
12522641 68 17987239014094774638
12677640 9 17835803375804957069
12717326 135 15937790945411029629
12925494 130 18338797926309953848
13533116 47 18267867185930490479
13878862 14 18265034882346845196
14556957 393 17203336563710799265
15324884 4 17972914524668184826
15400415 2 18410576227198577002
16120349 18 18339358566435658613
19304671 126 17774734151168794436
19427546 62 18410012134990115930
1979834 28 18186805781419772620
20691028 202 18123185964532127624
21033648 29 18261111928623918428
21049683 118 17676201377537132890
21133410 127 18114177536885177100
22122407 14 18272101452479953529
23522609 53 17632027347419861945
23559900 14 18041288659772756486
23569914 2 17318124486671372653
23845131 108 18335702784299133618
27425 322 18272933838506407606
3178227 256 18336541639267982194
3411729 13 18335417976157983392
34797466 226 18059582356242968183
3534868 343 17487625121493161378
394071 54 18340215102445747053
397830 11 18334022709383590179
4073 2 18335142029237206131
4169191 19 18411982460254183097
44555599 121 18058735672381935657
5104073 3 18187367635993178723
5109719 28 18410018762313882769
5265222 85 17976827811210907932
5312510 48 18413388739556747816
552612 73 18262513694001413981
58902169 19 17703217425896952495
6697151 62 17467323666121695039
6898599 12 18129658724833054079
7808743 9 18049719922110369944

> <PUBCHEM_SHAPE_MULTIPOLES>
591.36
19.89
5.34
0.99
19.16
0.34
-0.04
-21.19
0.77
-11.74
0.82
0.85
-0.35
2.45

> <PUBCHEM_SHAPE_SELFOVERLAP>
1322.403

> <PUBCHEM_SHAPE_VOLUME>
311.4

> <PUBCHEM_COORDINATE_TYPE>
2
5
10

$$$$
