17758574
  -OEChem-10052120443D

 45 48  0     0  0  0  0  0  0999 V2000
    5.2276    1.7510    1.4409 Br  0  0  0  0  0  0  0  0  0  0  0  0
   -3.2001   -1.2483    2.5047 Cl  0  0  0  0  0  0  0  0  0  0  0  0
   -5.0135   -1.9687    0.2727 F   0  0  0  0  0  0  0  0  0  0  0  0
    1.1543    3.2408   -1.5174 N   0  0  0  0  0  0  0  0  0  0  0  0
    0.3257   -1.7980   -1.1689 N   0  0  0  0  0  0  0  0  0  0  0  0
    3.8268   -0.9598    0.9972 N   0  0  0  0  0  0  0  0  0  0  0  0
   -2.4028    3.1247    1.1171 N   0  0  0  0  0  0  0  0  0  0  0  0
   -2.2475    2.1126   -0.8535 N   0  0  0  0  0  0  0  0  0  0  0  0
    1.3843   -4.9980    0.0998 N   0  0  0  0  0  0  0  0  0  0  0  0
    1.9876   -0.1903   -0.3566 C   0  0  0  0  0  0  0  0  0  0  0  0
    1.8229    2.1729   -0.8855 C   0  0  0  0  0  0  0  0  0  0  0  0
    1.5076   -1.5042   -0.4406 C   0  0  0  0  0  0  0  0  0  0  0  0
    3.1667    0.0400    0.3828 C   0  0  0  0  0  0  0  0  0  0  0  0
    1.3243    0.8773   -0.9852 C   0  0  0  0  0  0  0  0  0  0  0  0
   -0.2183    3.1723   -1.9152 C   0  0  0  0  0  0  0  0  0  0  0  0
    2.9839    2.4069   -0.1591 C   0  0  0  0  0  0  0  0  0  0  0  0
    3.6432    1.3455    0.4658 C   0  0  0  0  0  0  0  0  0  0  0  0
   -1.2080    2.9982   -0.8049 C   0  0  0  0  0  0  0  0  0  0  0  0
    2.1855   -2.5365    0.1915 C   0  0  0  0  0  0  0  0  0  0  0  0
   -1.0266   -1.8403   -0.7991 C   0  0  0  0  0  0  0  0  0  0  0  0
   -1.3248    3.6111    0.4205 C   0  0  0  0  0  0  0  0  0  0  0  0
    3.3302   -2.2137    0.8917 C   0  0  0  0  0  0  0  0  0  0  0  0
   -2.9365    2.2242    0.3219 C   0  0  0  0  0  0  0  0  0  0  0  0
   -1.4001   -1.5571    0.5146 C   0  0  0  0  0  0  0  0  0  0  0  0
   -1.9981   -2.1657   -1.7457 C   0  0  0  0  0  0  0  0  0  0  0  0
   -2.8326    3.5299    2.4306 C   0  0  0  0  0  0  0  0  0  0  0  0
   -2.7451   -1.5991    0.8819 C   0  0  0  0  0  0  0  0  0  0  0  0
   -3.3430   -2.2080   -1.3783 C   0  0  0  0  0  0  0  0  0  0  0  0
    1.7432   -3.8952    0.1409 C   0  0  0  0  0  0  0  0  0  0  0  0
   -3.7167   -1.9245   -0.0646 C   0  0  0  0  0  0  0  0  0  0  0  0
    0.4302    0.6810   -1.5685 H   0  0  0  0  0  0  0  0  0  0  0  0
   -0.3675    2.3990   -2.6785 H   0  0  0  0  0  0  0  0  0  0  0  0
   -0.4686    4.1148   -2.4189 H   0  0  0  0  0  0  0  0  0  0  0  0
    1.5867    4.1559   -1.4459 H   0  0  0  0  0  0  0  0  0  0  0  0
    3.3748    3.4192   -0.0799 H   0  0  0  0  0  0  0  0  0  0  0  0
    0.5094   -2.0109   -2.1450 H   0  0  0  0  0  0  0  0  0  0  0  0
   -0.7075    4.3794    0.8677 H   0  0  0  0  0  0  0  0  0  0  0  0
    3.9126   -2.9693    1.4116 H   0  0  0  0  0  0  0  0  0  0  0  0
   -3.8147    1.6334    0.5478 H   0  0  0  0  0  0  0  0  0  0  0  0
   -0.6529   -1.3007    1.2620 H   0  0  0  0  0  0  0  0  0  0  0  0
   -1.7212   -2.3883   -2.7730 H   0  0  0  0  0  0  0  0  0  0  0  0
   -3.1421    4.5769    2.3840 H   0  0  0  0  0  0  0  0  0  0  0  0
   -3.6710    2.9049    2.7487 H   0  0  0  0  0  0  0  0  0  0  0  0
   -1.9951    3.4082    3.1222 H   0  0  0  0  0  0  0  0  0  0  0  0
   -4.0996   -2.4610   -2.1150 H   0  0  0  0  0  0  0  0  0  0  0  0
  1 17  1  0  0  0  0
  2 27  1  0  0  0  0
  3 30  1  0  0  0  0
  4 11  1  0  0  0  0
  4 15  1  0  0  0  0
  4 34  1  0  0  0  0
  5 12  1  0  0  0  0
  5 20  1  0  0  0  0
  5 36  1  0  0  0  0
  6 13  2  0  0  0  0
  6 22  1  0  0  0  0
  7 21  1  0  0  0  0
  7 23  1  0  0  0  0
  7 26  1  0  0  0  0
  8 18  1  0  0  0  0
  8 23  2  0  0  0  0
  9 29  3  0  0  0  0
 10 12  2  0  0  0  0
 10 13  1  0  0  0  0
 10 14  1  0  0  0  0
 11 14  2  0  0  0  0
 11 16  1  0  0  0  0
 12 19  1  0  0  0  0
 13 17  1  0  0  0  0
 14 31  1  0  0  0  0
 15 18  1  0  0  0  0
 15 32  1  0  0  0  0
 15 33  1  0  0  0  0
 16 17  2  0  0  0  0
 16 35  1  0  0  0  0
 18 21  2  0  0  0  0
 19 22  2  0  0  0  0
 19 29  1  0  0  0  0
 20 24  2  0  0  0  0
 20 25  1  0  0  0  0
 21 37  1  0  0  0  0
 22 38  1  0  0  0  0
 23 39  1  0  0  0  0
 24 27  1  0  0  0  0
 24 40  1  0  0  0  0
 25 28  2  0  0  0  0
 25 41  1  0  0  0  0
 26 42  1  0  0  0  0
 26 43  1  0  0  0  0
 26 44  1  0  0  0  0
 27 30  2  0  0  0  0
 28 30  1  0  0  0  0
 28 45  1  0  0  0  0
M  END
> <PUBCHEM_COMPOUND_CID>
17758574

> <PUBCHEM_CONFORMER_RMSD>
0.8

> <PUBCHEM_CONFORMER_DIVERSEORDER>
1
156
330
135
225
232
243
317
46
303
29
341
44
351
136
183
4
94
6
189
242
72
270
326
280
250
177
45
293
13
218
217
115
355
343
89
262
3
195
275
295
23
348
273
80
68
322
111
59
290
41
231
43
148
340
190
182
214
204
124
350
188
307
205
263
175
54
184
345
128
161
310
145
331
123
96
90
88
267
155
181
255
61
354
337
239
118
311
131
146
142
251
79
321
86
30
192
174
9
93
65
104
16
75
83
109
312
249
137
335
329
82
121
318
248
194
336
126
191
278
256
288
269
323
11
228
266
206
21
180
185
55
187
308
224
169
154
254
193
199
7
52
106
223
306
15
235
25
319
301
168
113
97
144
209
296
99
324
265
215
233
277
91
127
253
237
300
173
84
132
34
122
31
26
203
298
159
315
39
236
81
18
211
140
222
289
172
352
33
64
5
66
221
229
152
165
28
202
227
284
37
110
338
281
309
87
51
207
130
200
120
244
112
42
285
291
179
14
274
62
35
346
63
114
58
226
328
134
353
107
320
271
292
133
105
332
339
149
287
53
129
147
264
297
27
119
19
76
238
197
316
22
160
196
32
92
20
167
241
201
305
257
342
98
85
74
57
162
276
176
78
166
294
67
245
282
10
95
230
117
138
77
158
304
48
139
47
327
150
212
252
220
210
141
100
170
71
60
219
240
73
157
313
125
171
314
50
143
36
286
325
260
347
164
12
261
103
234
246
70
108
344
213
8
24
56
49
208
2
69
38
163
186
102
216
153
151
259
178
334
101
268
333
279
349
17
272
40
299
116
302
258
198
283
247

> <PUBCHEM_MMFF94_PARTIAL_CHARGES>
39
1 -0.11
11 0.1
12 0.1
13 0.31
14 -0.15
15 0.55
16 -0.15
17 0.11
18 0.05
19 0.07
2 -0.18
20 0.1
21 -0.3
22 0.16
23 0.04
24 -0.15
25 -0.15
26 0.26
27 0.18
28 -0.15
29 0.48
3 -0.19
30 0.19
31 0.15
34 0.4
35 0.15
36 0.4
37 0.15
38 0.15
39 0.15
4 -0.87
40 0.15
41 0.15
45 0.15
5 -0.6
6 -0.62
7 0.05
8 -0.57
9 -0.56

> <PUBCHEM_EFFECTIVE_ROTOR_COUNT>
5

> <PUBCHEM_PHARMACOPHORE_FEATURES>
12
1 1 hydrophobe
1 4 cation
1 4 donor
1 5 cation
1 5 donor
1 6 acceptor
1 9 acceptor
3 7 8 23 cation
5 7 8 18 21 23 rings
6 10 11 13 14 16 17 rings
6 20 24 25 27 28 30 rings
6 6 10 12 13 19 22 rings

> <PUBCHEM_HEAVY_ATOM_COUNT>
30

> <PUBCHEM_ATOM_DEF_STEREO_COUNT>
0

> <PUBCHEM_ATOM_UDEF_STEREO_COUNT>
0

> <PUBCHEM_BOND_DEF_STEREO_COUNT>
0

> <PUBCHEM_BOND_UDEF_STEREO_COUNT>
0

> <PUBCHEM_ISOTOPIC_ATOM_COUNT>
0

> <PUBCHEM_COMPONENT_COUNT>
1

> <PUBCHEM_CACTVS_TAUTO_COUNT>
3

> <PUBCHEM_CONFORMER_ID>
010EF96E00000001

> <PUBCHEM_MMFF94_ENERGY>
101.1468

> <PUBCHEM_FEATURE_SELFOVERLAP>
60.927

> <PUBCHEM_SHAPE_FINGERPRINT>
10064457 181 18055926385211972336
10119406 146 16681479482857276646
10190108 129 18263946413486545546
11578080 2 17557107693943738410
12422481 6 18049472291439574929
12788726 201 18053396666670399788
13122387 1 18049440335954262485
13140716 1 18266446638830230416
13965767 371 17914646949419420627
15324884 4 17464254924931471692
20600515 1 17763462120752607588
22113638 7 17903631131367365676
3052486 1 18334869337489702180
35225 105 17330489589725109560
392239 28 17913758685874766608
445580 8 17982199964846407649
463206 1 17836645593153430327
469060 322 18337393871515092457
474 4 18193837273932663454
5171179 24 18343016658796292574
5282274 181 18195820560917380444
5283178 26 17545900234255652841

> <PUBCHEM_SHAPE_MULTIPOLES>
588.04
7.83
6.26
1.83
1.66
0.3
0.53
-0.64
3.45
-1.22
0.17
-1.2
1.01
-1.4

> <PUBCHEM_SHAPE_SELFOVERLAP>
1273.324

> <PUBCHEM_SHAPE_VOLUME>
329.5

> <PUBCHEM_COORDINATE_TYPE>
2
5
10

$$$$
