24905201
  -OEChem-10052115163D

 38 41  0     0  0  0  0  0  0999 V2000
   -2.4050    1.0258   -0.0403 N   0  0  0  0  0  0  0  0  0  0  0  0
   -1.1206    1.4015    0.1049 N   0  0  0  0  0  0  0  0  0  0  0  0
   -3.7338   -0.9891   -0.2313 N   0  0  0  0  0  0  0  0  0  0  0  0
    4.1904    0.2840   -1.5715 N   0  0  0  0  0  0  0  0  0  0  0  0
   -2.3492   -2.9952   -0.1356 N   0  0  0  0  0  0  0  0  0  0  0  0
    0.0227   -2.9144    0.1183 N   0  0  0  0  0  0  0  0  0  0  0  0
   -3.4361    2.0328   -0.1237 C   0  0  0  0  0  0  0  0  0  0  0  0
   -0.4590    0.2398    0.1455 C   0  0  0  0  0  0  0  0  0  0  0  0
   -1.3103   -0.8747    0.0274 C   0  0  0  0  0  0  0  0  0  0  0  0
   -2.5749   -0.3258   -0.0923 C   0  0  0  0  0  0  0  0  0  0  0  0
    0.9704    0.2367    0.2962 C   0  0  0  0  0  0  0  0  0  0  0  0
   -3.2484    2.9305   -1.3493 C   0  0  0  0  0  0  0  0  0  0  0  0
   -3.5129    2.8675    1.1570 C   0  0  0  0  0  0  0  0  0  0  0  0
    3.1662    0.2609   -0.6519 C   0  0  0  0  0  0  0  0  0  0  0  0
    1.7799    0.2653   -0.8429 C   0  0  0  0  0  0  0  0  0  0  0  0
   -1.2182   -2.2623    0.0023 C   0  0  0  0  0  0  0  0  0  0  0  0
    3.7524    0.2295    0.6153 C   0  0  0  0  0  0  0  0  0  0  0  0
    1.5274    0.2047    1.5731 C   0  0  0  0  0  0  0  0  0  0  0  0
    2.9161    0.2004    1.7489 C   0  0  0  0  0  0  0  0  0  0  0  0
    5.1624    0.2358    0.4234 C   0  0  0  0  0  0  0  0  0  0  0  0
    5.4005    0.2689   -0.9312 C   0  0  0  0  0  0  0  0  0  0  0  0
   -3.5200   -2.3227   -0.2424 C   0  0  0  0  0  0  0  0  0  0  0  0
   -4.3940    1.5110   -0.2379 H   0  0  0  0  0  0  0  0  0  0  0  0
   -4.0836    3.6324   -1.4457 H   0  0  0  0  0  0  0  0  0  0  0  0
   -3.2020    2.3331   -2.2665 H   0  0  0  0  0  0  0  0  0  0  0  0
   -2.3238    3.5149   -1.2858 H   0  0  0  0  0  0  0  0  0  0  0  0
   -3.6555    2.2250    2.0329 H   0  0  0  0  0  0  0  0  0  0  0  0
   -4.3535    3.5680    1.1119 H   0  0  0  0  0  0  0  0  0  0  0  0
   -2.5984    3.4495    1.3169 H   0  0  0  0  0  0  0  0  0  0  0  0
    1.3587    0.2896   -1.8437 H   0  0  0  0  0  0  0  0  0  0  0  0
    0.8912    0.1818    2.4558 H   0  0  0  0  0  0  0  0  0  0  0  0
    3.3371    0.1752    2.7499 H   0  0  0  0  0  0  0  0  0  0  0  0
    4.0661    0.3086   -2.5742 H   0  0  0  0  0  0  0  0  0  0  0  0
    5.9220    0.2173    1.1929 H   0  0  0  0  0  0  0  0  0  0  0  0
    6.3222    0.2833   -1.4956 H   0  0  0  0  0  0  0  0  0  0  0  0
   -4.4054   -2.9396   -0.3516 H   0  0  0  0  0  0  0  0  0  0  0  0
    0.8821   -2.3951    0.2219 H   0  0  0  0  0  0  0  0  0  0  0  0
    0.0448   -3.9251    0.0953 H   0  0  0  0  0  0  0  0  0  0  0  0
  1  2  1  0  0  0  0
  1  7  1  0  0  0  0
  1 10  1  0  0  0  0
  2  8  2  0  0  0  0
  3 10  2  0  0  0  0
  3 22  1  0  0  0  0
  4 14  1  0  0  0  0
  4 21  1  0  0  0  0
  4 33  1  0  0  0  0
  5 16  1  0  0  0  0
  5 22  2  0  0  0  0
  6 16  1  0  0  0  0
  6 37  1  0  0  0  0
  6 38  1  0  0  0  0
  7 12  1  0  0  0  0
  7 13  1  0  0  0  0
  7 23  1  0  0  0  0
  8  9  1  0  0  0  0
  8 11  1  0  0  0  0
  9 10  1  0  0  0  0
  9 16  2  0  0  0  0
 11 15  2  0  0  0  0
 11 18  1  0  0  0  0
 12 24  1  0  0  0  0
 12 25  1  0  0  0  0
 12 26  1  0  0  0  0
 13 27  1  0  0  0  0
 13 28  1  0  0  0  0
 13 29  1  0  0  0  0
 14 15  1  0  0  0  0
 14 17  2  0  0  0  0
 15 30  1  0  0  0  0
 17 19  1  0  0  0  0
 17 20  1  0  0  0  0
 18 19  2  0  0  0  0
 18 31  1  0  0  0  0
 19 32  1  0  0  0  0
 20 21  2  0  0  0  0
 20 34  1  0  0  0  0
 21 35  1  0  0  0  0
 22 36  1  0  0  0  0
M  END
> <PUBCHEM_COMPOUND_CID>
24905201

> <PUBCHEM_CONFORMER_RMSD>
0.6

> <PUBCHEM_CONFORMER_DIVERSEORDER>
1
3
6
4
5
2

> <PUBCHEM_MMFF94_PARTIAL_CHARGES>
27
1 0.31
10 0.11
11 0.05
14 -0.15
15 -0.15
16 0.41
18 -0.15
19 -0.15
2 -0.71
20 -0.15
21 -0.3
22 0.47
3 -0.57
30 0.15
31 0.15
32 0.15
33 0.27
34 0.15
35 0.15
36 0.15
37 0.4
38 0.4
4 0.03
5 -0.62
6 -0.9
7 0.26
8 0.23

> <PUBCHEM_EFFECTIVE_ROTOR_COUNT>
2

> <PUBCHEM_PHARMACOPHORE_FEATURES>
12
1 2 acceptor
1 4 cation
1 4 donor
1 6 cation
1 6 donor
3 1 3 10 cation
3 3 5 22 cation
3 7 12 13 hydrophobe
5 1 2 8 9 10 rings
5 4 14 17 20 21 rings
6 11 14 15 17 18 19 rings
6 3 5 9 10 16 22 rings

> <PUBCHEM_HEAVY_ATOM_COUNT>
22

> <PUBCHEM_ATOM_DEF_STEREO_COUNT>
0

> <PUBCHEM_ATOM_UDEF_STEREO_COUNT>
0

> <PUBCHEM_BOND_DEF_STEREO_COUNT>
0

> <PUBCHEM_BOND_UDEF_STEREO_COUNT>
0

> <PUBCHEM_ISOTOPIC_ATOM_COUNT>
0

> <PUBCHEM_COMPONENT_COUNT>
1

> <PUBCHEM_CACTVS_TAUTO_COUNT>
9

> <PUBCHEM_CONFORMER_ID>
017C05F100000001

> <PUBCHEM_MMFF94_ENERGY>
45.99

> <PUBCHEM_FEATURE_SELFOVERLAP>
61.267

> <PUBCHEM_SHAPE_FINGERPRINT>
10165383 225 18269284465204164617
10319926 262 18198318776896834568
105312 117 18264202522159734973
11796584 16 18271529685618406838
12107183 9 17973433313962131642
12236239 1 17676482869619170002
12390115 104 18200605679125262721
12403259 415 17917710227669479128
12500047 106 18412821365834139964
12553582 1 18191861438963761211
12714826 92 18271528701031276171
12788726 201 18188483683408600507
13140716 1 18122627412608594523
14251751 93 18411139134218039342
14294032 229 18335980849636235989
14386348 63 17632303423211152622
14508225 48 18195797686628093549
14790565 3 17910403787835056193
15042514 8 18265619973416638643
15842332 3 17749653130769695746
15961568 22 17975966880747973960
16752209 62 18337098051342331483
17804303 29 18270681003473357555
18186145 218 17917711288199308288
200 152 16660634198249938294
20510252 161 18271520996255579785
20645477 56 18411986832066393897
20645477 70 16486980574965727524
20871999 31 18412267259234354844
21033648 29 17274812563336654448
21033650 10 18189921771993306900
21065201 7 18413103979177806770
22907989 373 18188473757807270597
23175994 123 17060347352634548720
23366157 5 17826226298709610179
23402539 116 18339918315810438695
23493267 7 18272088266735000184
23557571 272 18272085054543009760
23559900 14 18271241741940529960
23598291 2 17676755492752686474
25147074 1 18264754485892670395
2748010 2 18194406589723391023
283562 15 18411696621564066243
4214541 1 18411419514357865036
474 4 16879919797104677404
5104073 3 18410007715858269442
559249 180 18336261242022412890
573450 72 18333722520991465562
57527295 17 17059488513540995877
59755656 215 18273214184265122487
59755656 520 17773615827251264457
602551 16 18340766031170750842
6049 1 17916862546853567112
77492 1 17676479566831420146
7808743 9 18336829697464751936
81228 2 18338514265732407521
9862522 239 17895748470615587933

> <PUBCHEM_SHAPE_MULTIPOLES>
422.86
9.61
2.98
1.24
9.21
0.77
-0.16
-3.02
1.53
-5.77
0.2
0.93
-0.55
-0.16

> <PUBCHEM_SHAPE_SELFOVERLAP>
949.57

> <PUBCHEM_SHAPE_VOLUME>
221.7

> <PUBCHEM_COORDINATE_TYPE>
2
5
10

$$$$
