49830860
  -OEChem-10052115183D

 31 31  0     0  0  0  0  0  0999 V2000
    1.3880    1.3690    0.0040 O   0  0  0  0  0  0  0  0  0  0  0  0
   -3.1921    1.0512    0.0029 O   0  0  0  0  0  0  0  0  0  0  0  0
   -0.5360    0.0966    0.0016 N   0  0  0  0  0  0  0  0  0  0  0  0
   -2.5103   -1.2046    0.0002 N   0  0  0  0  0  0  0  0  0  0  0  0
    1.7274   -3.4512   -0.0033 N   0  0  0  0  0  0  0  0  0  0  0  0
    4.1989   -0.8120    0.0020 N   0  0  0  0  0  0  0  0  0  0  0  0
    0.5034    2.4809    0.0056 C   0  0  0  0  0  0  0  0  0  0  0  0
    1.3234    3.7616   -0.0136 C   0  0  0  0  0  0  0  0  0  0  0  0
    0.8156    0.1233    0.0020 C   0  0  0  0  0  0  0  0  0  0  0  0
    1.6139   -1.0093    0.0004 C   0  0  0  0  0  0  0  0  0  0  0  0
    0.9843   -2.2491   -0.0015 C   0  0  0  0  0  0  0  0  0  0  0  0
   -1.1124   -1.1264   -0.0002 C   0  0  0  0  0  0  0  0  0  0  0  0
   -0.4046   -2.3174   -0.0018 C   0  0  0  0  0  0  0  0  0  0  0  0
    0.4415    4.9973    0.0021 C   0  0  0  0  0  0  0  0  0  0  0  0
   -3.4308   -0.1521    0.0017 C   0  0  0  0  0  0  0  0  0  0  0  0
    3.0416   -0.9004    0.0012 C   0  0  0  0  0  0  0  0  0  0  0  0
   -4.8519   -0.6573   -0.0034 C   0  0  0  0  0  0  0  0  0  0  0  0
   -0.1201    2.4617    0.9084 H   0  0  0  0  0  0  0  0  0  0  0  0
   -0.1406    2.4514   -0.8825 H   0  0  0  0  0  0  0  0  0  0  0  0
    2.0011    3.7777    0.8485 H   0  0  0  0  0  0  0  0  0  0  0  0
    1.9662    3.7739   -0.9020 H   0  0  0  0  0  0  0  0  0  0  0  0
   -0.9134   -3.2771   -0.0032 H   0  0  0  0  0  0  0  0  0  0  0  0
   -0.2173    5.0203   -0.8718 H   0  0  0  0  0  0  0  0  0  0  0  0
   -0.1806    5.0242    0.9025 H   0  0  0  0  0  0  0  0  0  0  0  0
    1.0566    5.9024   -0.0126 H   0  0  0  0  0  0  0  0  0  0  0  0
   -2.8957   -2.1469   -0.0014 H   0  0  0  0  0  0  0  0  0  0  0  0
    1.2434   -4.3396   -0.0045 H   0  0  0  0  0  0  0  0  0  0  0  0
    2.7379   -3.4364   -0.0030 H   0  0  0  0  0  0  0  0  0  0  0  0
   -5.0264   -1.2844    0.8755 H   0  0  0  0  0  0  0  0  0  0  0  0
   -5.0339   -1.2401   -0.9107 H   0  0  0  0  0  0  0  0  0  0  0  0
   -5.5457    0.1876    0.0213 H   0  0  0  0  0  0  0  0  0  0  0  0
  1  7  1  0  0  0  0
  1  9  1  0  0  0  0
  2 15  2  0  0  0  0
  3  9  1  0  0  0  0
  3 12  2  0  0  0  0
  4 12  1  0  0  0  0
  4 15  1  0  0  0  0
  4 26  1  0  0  0  0
  5 11  1  0  0  0  0
  5 27  1  0  0  0  0
  5 28  1  0  0  0  0
  6 16  3  0  0  0  0
  7  8  1  0  0  0  0
  7 18  1  0  0  0  0
  7 19  1  0  0  0  0
  8 14  1  0  0  0  0
  8 20  1  0  0  0  0
  8 21  1  0  0  0  0
  9 10  2  0  0  0  0
 10 11  1  0  0  0  0
 10 16  1  0  0  0  0
 11 13  2  0  0  0  0
 12 13  1  0  0  0  0
 13 22  1  0  0  0  0
 14 23  1  0  0  0  0
 14 24  1  0  0  0  0
 14 25  1  0  0  0  0
 15 17  1  0  0  0  0
 17 29  1  0  0  0  0
 17 30  1  0  0  0  0
 17 31  1  0  0  0  0
M  END
> <PUBCHEM_COMPOUND_CID>
49830860

> <PUBCHEM_CONFORMER_RMSD>
0.6

> <PUBCHEM_CONFORMER_DIVERSEORDER>
1
13
19
21
25
27
7
17
20
22
24
23
12
18
4
16
28
26
10
29
14
6
8
15
5
11
3
9
2

> <PUBCHEM_MMFF94_PARTIAL_CHARGES>
19
1 -0.36
10 0.07
11 0.1
12 0.43
13 -0.15
15 0.57
16 0.48
17 0.06
2 -0.57
22 0.15
26 0.37
27 0.4
28 0.4
3 -0.62
4 -0.55
5 -0.9
6 -0.56
7 0.28
9 0.39

> <PUBCHEM_EFFECTIVE_ROTOR_COUNT>
5

> <PUBCHEM_PHARMACOPHORE_FEATURES>
8
1 1 acceptor
1 14 hydrophobe
1 2 acceptor
1 4 donor
1 5 cation
1 5 donor
1 6 acceptor
6 3 9 10 11 12 13 rings

> <PUBCHEM_HEAVY_ATOM_COUNT>
17

> <PUBCHEM_ATOM_DEF_STEREO_COUNT>
0

> <PUBCHEM_ATOM_UDEF_STEREO_COUNT>
0

> <PUBCHEM_BOND_DEF_STEREO_COUNT>
0

> <PUBCHEM_BOND_UDEF_STEREO_COUNT>
0

> <PUBCHEM_ISOTOPIC_ATOM_COUNT>
0

> <PUBCHEM_COMPONENT_COUNT>
1

> <PUBCHEM_CACTVS_TAUTO_COUNT>
13

> <PUBCHEM_CONFORMER_ID>
02F85BCC00000001

> <PUBCHEM_MMFF94_ENERGY>
46.642

> <PUBCHEM_FEATURE_SELFOVERLAP>
40.596

> <PUBCHEM_SHAPE_FINGERPRINT>
10967382 1 18410573976635681382
116883 192 17692531113589104903
12173636 292 16897925566318122564
12954195 1 17766575560168199158
13132413 78 18341895143201499373
13140716 1 18192434297348627731
13380536 55 17620469546790752678
138480 1 18410856564315065185
14648413 74 18192995048056877090
15490181 7 17616831262898746790
15490181 8 17691390228704714674
16945 1 18410856581284061219
17134986 127 18049725418851370373
18785283 64 18191877927295289593
193761 8 17834394897114970914
20671657 1 18266745868722045725
21197605 99 17115523840284762161
21524375 3 17407969146140296476
2255824 54 18340206405210715231
23402539 116 18272079470953727494
23558518 356 17396131808582742042
266924 87 18122628249953280342
2748010 2 17975419323439727319
3071541 12 18194965372936107924
350125 39 17976830009721856379
5939293 188 18410853304218116020
68521 5 18266744584785085652
7364860 26 18339080518030746237
81228 2 17973174924123445736
84936 182 17984704678014952425
9981440 41 17330263382361164153

> <PUBCHEM_SHAPE_MULTIPOLES>
318.19
5.89
5.22
0.58
6.61
5.73
0
0.23
0
-5.18
0.01
0
0.02
0

> <PUBCHEM_SHAPE_SELFOVERLAP>
651.03

> <PUBCHEM_SHAPE_VOLUME>
181.1

> <PUBCHEM_COORDINATE_TYPE>
2
5
10

$$$$
