2858224
  -OEChem-10052120443D

 35 37  0     0  0  0  0  0  0999 V2000
   -1.6411    3.1292   -0.8264 Br  0  0  0  0  0  0  0  0  0  0  0  0
   -4.7227   -1.7054    1.1106 O   0  0  0  0  0  0  0  0  0  0  0  0
   -6.0154    0.3706   -0.2094 O   0  0  0  0  0  0  0  0  0  0  0  0
    2.6369   -0.5228   -0.8941 N   0  0  0  0  0  0  0  0  0  0  0  0
    2.5627    0.4959    1.0800 N   0  0  0  0  0  0  0  0  0  0  0  0
   -0.5019   -1.0160   -2.3424 N   0  0  0  0  0  0  0  0  0  0  0  0
    3.9422   -0.4179   -0.4870 C   0  0  0  0  0  0  0  0  0  0  0  0
    3.8693    0.2214    0.7476 C   0  0  0  0  0  0  0  0  0  0  0  0
    1.8514    0.0367    0.0749 C   0  0  0  0  0  0  0  0  0  0  0  0
    0.4629    0.0370   -0.1411 C   0  0  0  0  0  0  0  0  0  0  0  0
   -1.9334    0.5517    0.4587 C   0  0  0  0  0  0  0  0  0  0  0  0
   -0.4873    0.5641    0.7226 C   0  0  0  0  0  0  0  0  0  0  0  0
    5.1437   -0.8153   -1.0746 C   0  0  0  0  0  0  0  0  0  0  0  0
    5.0558    0.4882    1.4516 C   0  0  0  0  0  0  0  0  0  0  0  0
   -2.6485   -0.5549    0.9001 C   0  0  0  0  0  0  0  0  0  0  0  0
   -2.5707    1.5938   -0.2021 C   0  0  0  0  0  0  0  0  0  0  0  0
   -4.0238   -0.6196    0.6768 C   0  0  0  0  0  0  0  0  0  0  0  0
    6.3147   -0.5421   -0.3599 C   0  0  0  0  0  0  0  0  0  0  0  0
    6.2737    0.0981    0.8808 C   0  0  0  0  0  0  0  0  0  0  0  0
   -4.6726    0.4223    0.0141 C   0  0  0  0  0  0  0  0  0  0  0  0
   -3.9460    1.5290   -0.4254 C   0  0  0  0  0  0  0  0  0  0  0  0
   -0.1025   -0.5439   -1.3604 C   0  0  0  0  0  0  0  0  0  0  0  0
   -4.8475   -2.8000    0.2049 C   0  0  0  0  0  0  0  0  0  0  0  0
    2.3371   -0.9448   -1.7632 H   0  0  0  0  0  0  0  0  0  0  0  0
   -0.1818    1.0235    1.6595 H   0  0  0  0  0  0  0  0  0  0  0  0
    5.1730   -1.3120   -2.0378 H   0  0  0  0  0  0  0  0  0  0  0  0
    5.0345    0.9850    2.4164 H   0  0  0  0  0  0  0  0  0  0  0  0
   -2.1520   -1.3717    1.4195 H   0  0  0  0  0  0  0  0  0  0  0  0
    7.2745   -0.8337   -0.7790 H   0  0  0  0  0  0  0  0  0  0  0  0
    7.2007    0.2970    1.4125 H   0  0  0  0  0  0  0  0  0  0  0  0
   -4.4574    2.3385   -0.9417 H   0  0  0  0  0  0  0  0  0  0  0  0
   -6.2903    1.1758   -0.6805 H   0  0  0  0  0  0  0  0  0  0  0  0
   -5.3683   -2.4892   -0.7063 H   0  0  0  0  0  0  0  0  0  0  0  0
   -5.4337   -3.5835    0.6928 H   0  0  0  0  0  0  0  0  0  0  0  0
   -3.8617   -3.2048   -0.0453 H   0  0  0  0  0  0  0  0  0  0  0  0
  1 16  1  0  0  0  0
  2 17  1  0  0  0  0
  2 23  1  0  0  0  0
  3 20  1  0  0  0  0
  3 32  1  0  0  0  0
  4  7  1  0  0  0  0
  4  9  1  0  0  0  0
  4 24  1  0  0  0  0
  5  8  1  0  0  0  0
  5  9  2  0  0  0  0
  6 22  3  0  0  0  0
  7  8  1  0  0  0  0
  7 13  2  0  0  0  0
  8 14  2  0  0  0  0
  9 10  1  0  0  0  0
 10 12  2  3  0  0  0
 10 22  1  0  0  0  0
 11 12  1  0  0  0  0
 11 15  2  0  0  0  0
 11 16  1  0  0  0  0
 12 25  1  0  0  0  0
 13 18  1  0  0  0  0
 13 26  1  0  0  0  0
 14 19  1  0  0  0  0
 14 27  1  0  0  0  0
 15 17  1  0  0  0  0
 15 28  1  0  0  0  0
 16 21  2  0  0  0  0
 17 20  2  0  0  0  0
 18 19  2  0  0  0  0
 18 29  1  0  0  0  0
 19 30  1  0  0  0  0
 20 21  1  0  0  0  0
 21 31  1  0  0  0  0
 23 33  1  0  0  0  0
 23 34  1  0  0  0  0
 23 35  1  0  0  0  0
M  END
> <PUBCHEM_COMPOUND_CID>
2858224

> <PUBCHEM_CONFORMER_RMSD>
0.6

> <PUBCHEM_CONFORMER_DIVERSEORDER>
1
5
4
3
6
2

> <PUBCHEM_MMFF94_PARTIAL_CHARGES>
32
1 -0.11
10 0.11
11 0.03
12 -0.18
13 -0.15
14 -0.15
15 -0.15
16 0.11
17 0.08
18 -0.15
19 -0.15
2 -0.36
20 0.08
21 -0.15
22 0.49
23 0.28
24 0.27
25 0.15
26 0.15
27 0.15
28 0.15
29 0.15
3 -0.53
30 0.15
31 0.15
32 0.45
4 0.03
5 -0.57
6 -0.56
7 -0.15
8 0.23
9 0.14

> <PUBCHEM_EFFECTIVE_ROTOR_COUNT>
3

> <PUBCHEM_PHARMACOPHORE_FEATURES>
9
1 1 hydrophobe
1 2 acceptor
1 3 donor
1 4 donor
1 6 acceptor
3 4 5 9 cation
5 4 5 7 8 9 rings
6 11 15 16 17 20 21 rings
6 7 8 13 14 18 19 rings

> <PUBCHEM_HEAVY_ATOM_COUNT>
23

> <PUBCHEM_ATOM_DEF_STEREO_COUNT>
0

> <PUBCHEM_ATOM_UDEF_STEREO_COUNT>
0

> <PUBCHEM_BOND_DEF_STEREO_COUNT>
0

> <PUBCHEM_BOND_UDEF_STEREO_COUNT>
1

> <PUBCHEM_ISOTOPIC_ATOM_COUNT>
0

> <PUBCHEM_COMPONENT_COUNT>
1

> <PUBCHEM_CACTVS_TAUTO_COUNT>
3

> <PUBCHEM_CONFORMER_ID>
002B9CF000000001

> <PUBCHEM_MMFF94_ENERGY>
69.629

> <PUBCHEM_FEATURE_SELFOVERLAP>
45.777

> <PUBCHEM_SHAPE_FINGERPRINT>
10 15 18201145634187362640
11045977 3 18271805760902841603
11059845 2 17105340232328474096
11315181 36 17603310353500220080
12107183 9 16957581245126407224
12166972 35 16732990850634178332
12403259 415 17917422086872227264
12596602 18 17894911845730978992
12616971 3 16370734716075918093
13288520 33 18187086174412552563
13533116 47 18115300064899092458
13583140 156 18341603789915909434
13782708 43 18272376322140211310
1420 363 18202286896395592018
14910302 57 18189058594634859974
15183329 4 14707198933409040683
15961568 22 18114464569676194708
17349148 13 17240491311664119755
17834072 33 17530969085720658948
17844677 252 18409172099874932032
17980427 23 17530977873086506253
18222031 100 17530965813039858622
18927931 339 18333454248834029819
19489759 90 18187365411078422705
200 152 15357694180393046452
20645477 56 17846205675306462356
20645477 70 17274824589677645350
21033648 144 16199282401065351760
21033648 29 17774422898766725928
21033650 10 17607547747329433636
21267235 1 18114471141059377643
21623969 137 17274829060005539662
21641784 216 12685378379871314774
21682296 61 17202217213597382350
21792961 116 17988931025483042622
220451 1 18040719134461197234
22224240 67 17275388716246643407
2297311 6 18335990791493346069
2303208 19 18131361791087477110
23402539 116 18186237342529489547
23557571 272 18340212877827131549
23559900 14 18260545662391781377
29717793 49 16732985302317003802
335352 9 18259982679122866749
34797466 226 18335434460559165100
5104073 3 17845940607020570130
542803 24 16732706030178357600
59755656 215 18410858715861604542
67856867 119 17822299045064790788
7495541 125 18342740745448601288

> <PUBCHEM_SHAPE_MULTIPOLES>
452.59
14.96
2.05
1.35
10.76
0.64
-0.39
-4.12
2.31
-4.02
-0.33
0.83
-0.22
1.25

> <PUBCHEM_SHAPE_SELFOVERLAP>
982.391

> <PUBCHEM_SHAPE_VOLUME>
252.9

> <PUBCHEM_COORDINATE_TYPE>
2
5
10

$$$$
