49830790
  -OEChem-10052120443D

 28 30  0     0  0  0  0  0  0999 V2000
    5.3055   -1.8252   -0.6942 Br  0  0  0  0  0  0  0  0  0  0  0  0
   -3.7307    0.4353    0.0770 S   0  0  0  0  0  0  0  0  0  0  0  0
    1.5386    0.5242    2.0477 F   0  0  0  0  0  0  0  0  0  0  0  0
    3.8501   -0.8646    1.8376 F   0  0  0  0  0  0  0  0  0  0  0  0
   -4.7457   -2.3509    0.1049 O   0  0  0  0  0  0  0  0  0  0  0  0
   -1.0703    3.4472   -0.0963 N   0  0  0  0  0  0  0  0  0  0  0  0
   -2.7320   -3.4367   -0.0518 N   0  0  0  0  0  0  0  0  0  0  0  0
   -1.1623    0.6500   -0.1222 C   0  0  0  0  0  0  0  0  0  0  0  0
    0.0740    1.3181   -0.2112 C   0  0  0  0  0  0  0  0  0  0  0  0
   -2.3227    1.4231   -0.0219 C   0  0  0  0  0  0  0  0  0  0  0  0
    1.3066    0.5780   -0.3184 C   0  0  0  0  0  0  0  0  0  0  0  0
   -1.4705   -0.7516   -0.1151 C   0  0  0  0  0  0  0  0  0  0  0  0
   -2.8183   -1.0021   -0.0124 C   0  0  0  0  0  0  0  0  0  0  0  0
    0.0486    2.7032   -0.1927 C   0  0  0  0  0  0  0  0  0  0  0  0
   -2.2627    2.8180   -0.0100 C   0  0  0  0  0  0  0  0  0  0  0  0
    2.0027    0.2034    0.8309 C   0  0  0  0  0  0  0  0  0  0  0  0
    1.8029    0.2364   -1.5765 C   0  0  0  0  0  0  0  0  0  0  0  0
    3.1945   -0.5129    0.7222 C   0  0  0  0  0  0  0  0  0  0  0  0
    2.9947   -0.4797   -1.6854 C   0  0  0  0  0  0  0  0  0  0  0  0
    3.6906   -0.8544   -0.5360 C   0  0  0  0  0  0  0  0  0  0  0  0
   -3.4936   -2.2587    0.0240 C   0  0  0  0  0  0  0  0  0  0  0  0
   -0.7189   -1.5284   -0.1837 H   0  0  0  0  0  0  0  0  0  0  0  0
    0.9656    3.2829   -0.2579 H   0  0  0  0  0  0  0  0  0  0  0  0
   -3.1409    3.4474    0.0665 H   0  0  0  0  0  0  0  0  0  0  0  0
    1.2729    0.5203   -2.4828 H   0  0  0  0  0  0  0  0  0  0  0  0
    3.3671   -0.7379   -2.6734 H   0  0  0  0  0  0  0  0  0  0  0  0
   -1.7206   -3.4402   -0.1254 H   0  0  0  0  0  0  0  0  0  0  0  0
   -3.1868   -4.3437   -0.0344 H   0  0  0  0  0  0  0  0  0  0  0  0
  1 20  1  0  0  0  0
  2 10  1  0  0  0  0
  2 13  1  0  0  0  0
  3 16  1  0  0  0  0
  4 18  1  0  0  0  0
  5 21  2  0  0  0  0
  6 14  1  0  0  0  0
  6 15  2  0  0  0  0
  7 21  1  0  0  0  0
  7 27  1  0  0  0  0
  7 28  1  0  0  0  0
  8  9  1  0  0  0  0
  8 10  2  0  0  0  0
  8 12  1  0  0  0  0
  9 11  1  0  0  0  0
  9 14  2  0  0  0  0
 10 15  1  0  0  0  0
 11 16  2  0  0  0  0
 11 17  1  0  0  0  0
 12 13  2  0  0  0  0
 12 22  1  0  0  0  0
 13 21  1  0  0  0  0
 14 23  1  0  0  0  0
 15 24  1  0  0  0  0
 16 18  1  0  0  0  0
 17 19  2  0  0  0  0
 17 25  1  0  0  0  0
 18 20  2  0  0  0  0
 19 20  1  0  0  0  0
 19 26  1  0  0  0  0
M  END
> <PUBCHEM_COMPOUND_CID>
49830790

> <PUBCHEM_CONFORMER_RMSD>
0.6

> <PUBCHEM_CONFORMER_DIVERSEORDER>
2
15
11
7
14
9
12
16
5
8
13
4
10
1
6
3

> <PUBCHEM_MMFF94_PARTIAL_CHARGES>
25
1 -0.11
10 0.04
12 -0.15
13 -0.05
14 0.16
15 0.16
16 0.19
17 -0.15
18 0.19
19 -0.15
2 -0.08
20 0.11
21 0.71
22 0.15
23 0.15
24 0.15
25 0.15
26 0.15
27 0.37
28 0.37
3 -0.19
4 -0.19
5 -0.57
6 -0.62
7 -0.8

> <PUBCHEM_EFFECTIVE_ROTOR_COUNT>
2

> <PUBCHEM_PHARMACOPHORE_FEATURES>
7
1 1 hydrophobe
1 5 acceptor
1 6 acceptor
1 7 donor
5 2 8 10 12 13 rings
6 11 16 17 18 19 20 rings
6 6 8 9 10 14 15 rings

> <PUBCHEM_HEAVY_ATOM_COUNT>
21

> <PUBCHEM_ATOM_DEF_STEREO_COUNT>
0

> <PUBCHEM_ATOM_UDEF_STEREO_COUNT>
0

> <PUBCHEM_BOND_DEF_STEREO_COUNT>
0

> <PUBCHEM_BOND_UDEF_STEREO_COUNT>
0

> <PUBCHEM_ISOTOPIC_ATOM_COUNT>
0

> <PUBCHEM_COMPONENT_COUNT>
1

> <PUBCHEM_CACTVS_TAUTO_COUNT>
2

> <PUBCHEM_CONFORMER_ID>
02F85B8600000002

> <PUBCHEM_MMFF94_ENERGY>
51.7298

> <PUBCHEM_FEATURE_SELFOVERLAP>
35.585

> <PUBCHEM_SHAPE_FINGERPRINT>
10366900 7 17916575428395148908
10616163 171 18338239250023143166
11582403 64 15969543680831164600
11796584 16 18053106121434825614
12236239 1 17532385170761205748
12363563 72 18339081600568213847
12500047 106 18122906417636231444
12553582 1 18337117864295571091
12714826 92 18059586741214452388
12788726 201 18261967300819169323
13140716 1 18341053003700572521
14787075 74 17971190572197842132
14863182 85 16605484078397051135
15042514 8 18338244769403862221
15885798 251 18339083799934224155
16752209 62 18188760644559155837
16945 1 18338519612481972301
17804303 29 18343023272301753153
18186145 218 12035725384088065668
19049666 15 17486213310098191340
19784866 135 18411423877622742155
20291156 8 18335422421560008167
20600515 1 18339063922362030385
20645477 70 17834111227921740183
20871998 22 18268431411504977349
20905425 154 18269843003740960823
21452121 199 18265893742683547373
21634736 98 18113626711196227972
22112679 90 17822574880897062940
23184049 29 18337668719505003389
23366157 5 17899701447041082509
23557571 272 18129664089104593068
23559900 14 18341612552176889644
23598288 3 17970653834081733893
3004659 81 18113336435641890295
314173 41 18192437596004784615
463206 1 18189051052694030307
5104073 3 18201435836242148210
568465 68 17346883321217157822
5902787 121 18337954592427816541
602551 16 18340205177076921906
7364860 26 17837215140245547365
77492 1 17532101501040414980
7970288 3 18337957903885499423
81228 2 18342459197362741089
9709674 26 18127699218823239982

> <PUBCHEM_SHAPE_MULTIPOLES>
411.58
8.75
3.33
1.22
5.52
0.06
-0.28
6.99
0.26
-4.47
0.16
1.58
0.01
0.25

> <PUBCHEM_SHAPE_SELFOVERLAP>
892.313

> <PUBCHEM_SHAPE_VOLUME>
229.2

> <PUBCHEM_COORDINATE_TYPE>
2
5
10

$$$$
