23642173
  -OEChem-10052115193D

 53 56  0     0  0  0  0  0  0999 V2000
    1.2704   -0.4800   -0.9569 S   0  0  0  0  0  0  0  0  0  0  0  0
   -8.3204    2.9243    1.0140 O   0  0  0  0  0  0  0  0  0  0  0  0
   -5.4310   -0.2576   -1.4284 O   0  0  0  0  0  0  0  0  0  0  0  0
   -2.1248   -3.2324    0.6079 O   0  0  0  0  0  0  0  0  0  0  0  0
    7.6022    1.3142   -0.1253 N   0  0  0  0  0  0  0  0  0  0  0  0
   -3.2831   -2.1813   -1.0918 N   0  0  0  0  0  0  0  0  0  0  0  0
    0.6505   -2.2845    0.7873 N   0  0  0  0  0  0  0  0  0  0  0  0
   -1.0843   -1.6124   -0.7436 N   0  0  0  0  0  0  0  0  0  0  0  0
   -6.6425   -0.1151    0.5795 N   0  0  0  0  0  0  0  0  0  0  0  0
    7.9021    2.4233    0.5819 N   0  0  0  0  0  0  0  0  0  0  0  0
   -7.9799    1.6547    1.4649 N   0  0  0  0  0  0  0  0  0  0  0  0
    3.7979   -0.3899    0.0774 C   0  0  0  0  0  0  0  0  0  0  0  0
    2.4839   -0.9790    0.1475 C   0  0  0  0  0  0  0  0  0  0  0  0
    1.9719   -1.9396    0.9943 C   0  0  0  0  0  0  0  0  0  0  0  0
    6.3419    0.7491   -0.0575 C   0  0  0  0  0  0  0  0  0  0  0  0
   -4.5326   -2.8636   -0.8863 C   0  0  0  0  0  0  0  0  0  0  0  0
    4.0887    0.7587    0.8143 C   0  0  0  0  0  0  0  0  0  0  0  0
    4.7802   -0.9684   -0.7270 C   0  0  0  0  0  0  0  0  0  0  0  0
   -5.4364   -2.1281    0.0940 C   0  0  0  0  0  0  0  0  0  0  0  0
    5.3603    1.3281    0.7468 C   0  0  0  0  0  0  0  0  0  0  0  0
    6.0518   -0.3991   -0.7944 C   0  0  0  0  0  0  0  0  0  0  0  0
    0.2040   -1.5774   -0.2059 C   0  0  0  0  0  0  0  0  0  0  0  0
    2.7008   -2.6203    2.0849 C   0  0  0  0  0  0  0  0  0  0  0  0
   -5.8188   -0.7244   -0.3627 C   0  0  0  0  0  0  0  0  0  0  0  0
   -2.1407   -2.4187   -0.3121 C   0  0  0  0  0  0  0  0  0  0  0  0
    8.6536    0.8519   -0.8720 C   0  0  0  0  0  0  0  0  0  0  0  0
   -7.2044    1.1655    0.5082 C   0  0  0  0  0  0  0  0  0  0  0  0
    9.6984    1.7118   -0.6365 C   0  0  0  0  0  0  0  0  0  0  0  0
    9.1783    2.6588    0.2659 C   0  0  0  0  0  0  0  0  0  0  0  0
   -7.0089    2.0419   -0.5584 C   0  0  0  0  0  0  0  0  0  0  0  0
   -7.7363    3.1432   -0.1918 C   0  0  0  0  0  0  0  0  0  0  0  0
   -7.9925    4.4461   -0.8181 C   0  0  0  0  0  0  0  0  0  0  0  0
   -5.0166   -2.9475   -1.8653 H   0  0  0  0  0  0  0  0  0  0  0  0
   -4.3345   -3.8763   -0.5193 H   0  0  0  0  0  0  0  0  0  0  0  0
    3.3351    1.2216    1.4471 H   0  0  0  0  0  0  0  0  0  0  0  0
    4.5703   -1.8645   -1.3066 H   0  0  0  0  0  0  0  0  0  0  0  0
   -4.9399   -2.0435    1.0686 H   0  0  0  0  0  0  0  0  0  0  0  0
   -6.3588   -2.7037    0.2349 H   0  0  0  0  0  0  0  0  0  0  0  0
    5.5438    2.2222    1.3369 H   0  0  0  0  0  0  0  0  0  0  0  0
    6.7703   -0.8962   -1.4369 H   0  0  0  0  0  0  0  0  0  0  0  0
   -3.2298   -1.4876   -1.8312 H   0  0  0  0  0  0  0  0  0  0  0  0
    2.0573   -3.3395    2.6019 H   0  0  0  0  0  0  0  0  0  0  0  0
    3.5643   -3.1661    1.6913 H   0  0  0  0  0  0  0  0  0  0  0  0
    3.0551   -1.8955    2.8248 H   0  0  0  0  0  0  0  0  0  0  0  0
   -1.2462   -0.9815   -1.5232 H   0  0  0  0  0  0  0  0  0  0  0  0
    8.6185   -0.0217   -1.5063 H   0  0  0  0  0  0  0  0  0  0  0  0
   -6.8837   -0.6283    1.4236 H   0  0  0  0  0  0  0  0  0  0  0  0
   10.6917    1.6596   -1.0572 H   0  0  0  0  0  0  0  0  0  0  0  0
   -6.4406    1.9380   -1.4697 H   0  0  0  0  0  0  0  0  0  0  0  0
    9.6759    3.5107    0.7062 H   0  0  0  0  0  0  0  0  0  0  0  0
   -7.6373    5.2582   -0.1762 H   0  0  0  0  0  0  0  0  0  0  0  0
   -9.0642    4.5866   -0.9895 H   0  0  0  0  0  0  0  0  0  0  0  0
   -7.4816    4.5284   -1.7825 H   0  0  0  0  0  0  0  0  0  0  0  0
  1 13  1  0  0  0  0
  1 22  1  0  0  0  0
  2 11  1  0  0  0  0
  2 31  1  0  0  0  0
  3 24  2  0  0  0  0
  4 25  2  0  0  0  0
  5 10  1  0  0  0  0
  5 15  1  0  0  0  0
  5 26  1  0  0  0  0
  6 16  1  0  0  0  0
  6 25  1  0  0  0  0
  6 41  1  0  0  0  0
  7 14  1  0  0  0  0
  7 22  2  0  0  0  0
  8 22  1  0  0  0  0
  8 25  1  0  0  0  0
  8 45  1  0  0  0  0
  9 24  1  0  0  0  0
  9 27  1  0  0  0  0
  9 47  1  0  0  0  0
 10 29  2  0  0  0  0
 11 27  2  0  0  0  0
 12 13  1  0  0  0  0
 12 17  2  0  0  0  0
 12 18  1  0  0  0  0
 13 14  2  0  0  0  0
 14 23  1  0  0  0  0
 15 20  2  0  0  0  0
 15 21  1  0  0  0  0
 16 19  1  0  0  0  0
 16 33  1  0  0  0  0
 16 34  1  0  0  0  0
 17 20  1  0  0  0  0
 17 35  1  0  0  0  0
 18 21  2  0  0  0  0
 18 36  1  0  0  0  0
 19 24  1  0  0  0  0
 19 37  1  0  0  0  0
 19 38  1  0  0  0  0
 20 39  1  0  0  0  0
 21 40  1  0  0  0  0
 23 42  1  0  0  0  0
 23 43  1  0  0  0  0
 23 44  1  0  0  0  0
 26 28  2  0  0  0  0
 26 46  1  0  0  0  0
 27 30  1  0  0  0  0
 28 29  1  0  0  0  0
 28 48  1  0  0  0  0
 29 50  1  0  0  0  0
 30 31  2  0  0  0  0
 30 49  1  0  0  0  0
 31 32  1  0  0  0  0
 32 51  1  0  0  0  0
 32 52  1  0  0  0  0
 32 53  1  0  0  0  0
M  END
> <PUBCHEM_COMPOUND_CID>
23642173

> <PUBCHEM_CONFORMER_RMSD>
1

> <PUBCHEM_CONFORMER_DIVERSEORDER>
1
96
202
124
24
41
219
73
48
226
172
99
160
142
203
201
120
223
76
126
208
161
182
67
27
88
117
58
193
112
74
194
137
39
195
87
8
62
164
101
68
198
46
165
143
209
69
33
95
42
167
155
211
190
108
85
187
3
93
119
205
71
106
199
90
45
55
153
89
2
224
98
113
15
123
107
103
64
176
150
83
171
175
75
29
218
84
138
129
127
149
116
13
77
196
128
212
139
10
97
163
66
115
109
60
51
44
177
25
72
189
215
132
16
59
94
179
111
7
183
191
110
20
180
122
47
43
173
82
221
100
225
146
4
61
11
186
52
206
174
125
188
184
63
28
5
32
21
200
133
158
31
140
131
79
65
50
81
214
145
18
181
102
91
78
192
56
159
14
92
86
34
134
222
57
23
197
40
80
162
136
144
9
207
12
6
130
141
19
118
216
53
121
22
49
104
17
35
151
70
204
135
166
148
217
154
213
38
37
54
105
185
156
210
178
169
26
168
170
152
30
114
157
220
36
147

> <PUBCHEM_MMFF94_PARTIAL_CHARGES>
43
1 -0.08
10 -0.71
11 -0.41
12 0.05
13 -0.01
14 0.05
15 -0.02
16 0.3
17 -0.15
18 -0.15
19 0.06
2 -0.02
20 -0.15
21 -0.15
22 0.44
23 0.18
24 0.57
25 0.69
26 -0.3
27 0.35
28 -0.15
29 0.14
3 -0.57
30 -0.15
31 -0.04
32 0.18
35 0.15
36 0.15
39 0.15
4 -0.57
40 0.15
41 0.37
45 0.37
46 0.15
47 0.37
48 0.15
49 0.15
5 0.59
50 0.15
6 -0.73
7 -0.57
8 -0.49
9 -0.49

> <PUBCHEM_EFFECTIVE_ROTOR_COUNT>
10

> <PUBCHEM_PHARMACOPHORE_FEATURES>
10
1 10 acceptor
1 3 acceptor
1 4 acceptor
1 6 donor
1 8 donor
1 9 donor
5 1 7 13 14 22 rings
5 2 11 27 30 31 rings
5 5 10 26 28 29 rings
6 12 15 17 18 20 21 rings

> <PUBCHEM_HEAVY_ATOM_COUNT>
32

> <PUBCHEM_ATOM_DEF_STEREO_COUNT>
0

> <PUBCHEM_ATOM_UDEF_STEREO_COUNT>
0

> <PUBCHEM_BOND_DEF_STEREO_COUNT>
0

> <PUBCHEM_BOND_UDEF_STEREO_COUNT>
0

> <PUBCHEM_ISOTOPIC_ATOM_COUNT>
0

> <PUBCHEM_COMPONENT_COUNT>
1

> <PUBCHEM_CACTVS_TAUTO_COUNT>
15

> <PUBCHEM_CONFORMER_ID>
0168C03D00000001

> <PUBCHEM_MMFF94_ENERGY>
58.421

> <PUBCHEM_FEATURE_SELFOVERLAP>
50.799

> <PUBCHEM_SHAPE_FINGERPRINT>
10883706 17 10159685915669376981
10939801 23 18336264540504509673
11061554 47 18059288859795623904
11181472 205 18409449185874587738
11408170 132 18341341041988205070
11421887 45 18341598301418568017
11578821 258 18268148841797702076
11973864 220 18343029912486068384
12013929 27 11311756381729316425
12539765 74 18337399340000523190
12838863 1 10809638034581019281
13383665 225 18261972807980327420
14394314 77 18334857212649429485
14919807 6 18272665519509708140
15419008 91 17130976724508415714
15439362 3 18341897359379342030
15455200 100 14999422823074823905
15604295 49 18270677696618084720
15685185 35 18059866009628318305
1577012 14 18410851062082170450
16728433 281 17917441873617944041
16992727 255 18412266150795357921
16994733 274 18410290345949320578
19303781 99 8718531793533657865
2026 5 9727643807787068372
20721686 146 18343022160148064269
21057603 308 17842546355193591401
21095123 293 18334862744519892620
21585482 111 18409164377365692621
21781055 127 17822019714352582958
21792938 703 11239704305964344966
22002106 203 11530780236154235017
22864921 47 10953748819829398555
23516275 100 18047467826124732165
23569943 247 9653931445266663044
23576562 1 15553587651421700688
24771293 8 18260829319084810662
2835820 83 9150875189046158389
3711267 37 18114184167744456452
406291 66 9367338241706747073
44802255 64 17632579387893010383
44880568 143 18268153239790446118
4516262 110 18262509313614651143
54039377 194 9727631704716336777
5718773 13 8862935083557276647
57303763 176 18411418372719321984
5758199 1 18040430036308465114
5937810 71 18272654554242130521
59521270 166 18272936064127245366
6201320 221 15625396606483765254
6289498 60 18336260167595144673
636775 72 18410292557883786341
6698420 124 18040719164806394514
9962374 69 10879993584249806274
9980921 7 18260541218313680789

> <PUBCHEM_SHAPE_MULTIPOLES>
609.92
34.35
4.46
1.23
2.54
2.12
0.25
43.17
-0.86
-8.93
0.24
-0.28
-0.34
-1

> <PUBCHEM_SHAPE_SELFOVERLAP>
1306.697

> <PUBCHEM_SHAPE_VOLUME>
340.1

> <PUBCHEM_COORDINATE_TYPE>
2
5
10

$$$$
