5329660
  -OEChem-10052115143D

 28 28  0     0  0  0  0  0  0999 V2000
   -1.2319    1.5498    0.3101 S   0  0  0  0  0  0  0  0  0  0  0  0
    1.5920    1.3490   -0.8101 S   0  0  0  0  0  0  0  0  0  0  0  0
   -4.4101   -0.7487   -0.1957 O   0  0  0  0  0  0  0  0  0  0  0  0
   -4.2008    1.5217    0.1359 O   0  0  0  0  0  0  0  0  0  0  0  0
    5.0627   -1.4093    0.7246 O   0  0  0  0  0  0  0  0  0  0  0  0
    3.9357    0.1948   -0.5960 N   0  0  0  0  0  0  0  0  0  0  0  0
    2.2057   -0.4331    0.9590 N   0  0  0  0  0  0  0  0  0  0  0  0
   -2.2403    0.0717    0.0472 C   0  0  0  0  0  0  0  0  0  0  0  0
    0.4224    0.8637    0.3108 C   0  0  0  0  0  0  0  0  0  0  0  0
    2.6767    0.2514   -0.0595 C   0  0  0  0  0  0  0  0  0  0  0  0
   -5.8331   -0.6067   -0.2607 C   0  0  0  0  0  0  0  0  0  0  0  0
   -3.7096    0.4089    0.0088 C   0  0  0  0  0  0  0  0  0  0  0  0
    0.8897   -0.0707    1.1701 C   0  0  0  0  0  0  0  0  0  0  0  0
   -6.4546   -1.9680   -0.4892 C   0  0  0  0  0  0  0  0  0  0  0  0
    5.0381   -0.6023   -0.1991 C   0  0  0  0  0  0  0  0  0  0  0  0
    6.2574   -0.3722   -1.0562 C   0  0  0  0  0  0  0  0  0  0  0  0
   -1.9596   -0.3865   -0.9061 H   0  0  0  0  0  0  0  0  0  0  0  0
   -2.0696   -0.6335    0.8661 H   0  0  0  0  0  0  0  0  0  0  0  0
   -6.2011   -0.1850    0.6812 H   0  0  0  0  0  0  0  0  0  0  0  0
   -6.0956    0.0635   -1.0869 H   0  0  0  0  0  0  0  0  0  0  0  0
    0.3435   -0.5393    1.9780 H   0  0  0  0  0  0  0  0  0  0  0  0
    4.0792    0.8170   -1.3878 H   0  0  0  0  0  0  0  0  0  0  0  0
   -7.5444   -1.8962   -0.5441 H   0  0  0  0  0  0  0  0  0  0  0  0
   -6.0820   -2.4106   -1.4189 H   0  0  0  0  0  0  0  0  0  0  0  0
   -6.1857   -2.6551    0.3200 H   0  0  0  0  0  0  0  0  0  0  0  0
    6.0593   -0.7197   -2.0737 H   0  0  0  0  0  0  0  0  0  0  0  0
    7.1082   -0.9242   -0.6476 H   0  0  0  0  0  0  0  0  0  0  0  0
    6.5034    0.6932   -1.0755 H   0  0  0  0  0  0  0  0  0  0  0  0
  1  8  1  0  0  0  0
  1  9  1  0  0  0  0
  2  9  1  0  0  0  0
  2 10  1  0  0  0  0
  3 11  1  0  0  0  0
  3 12  1  0  0  0  0
  4 12  2  0  0  0  0
  5 15  2  0  0  0  0
  6 10  1  0  0  0  0
  6 15  1  0  0  0  0
  6 22  1  0  0  0  0
  7 10  2  0  0  0  0
  7 13  1  0  0  0  0
  8 12  1  0  0  0  0
  8 17  1  0  0  0  0
  8 18  1  0  0  0  0
  9 13  2  0  0  0  0
 11 14  1  0  0  0  0
 11 19  1  0  0  0  0
 11 20  1  0  0  0  0
 13 21  1  0  0  0  0
 14 23  1  0  0  0  0
 14 24  1  0  0  0  0
 14 25  1  0  0  0  0
 15 16  1  0  0  0  0
 16 26  1  0  0  0  0
 16 27  1  0  0  0  0
 16 28  1  0  0  0  0
M  END
> <PUBCHEM_COMPOUND_CID>
5329660

> <PUBCHEM_CONFORMER_RMSD>
0.8

> <PUBCHEM_CONFORMER_DIVERSEORDER>
1
143
74
30
129
116
41
147
126
102
19
162
83
11
166
131
207
121
155
135
94
80
38
61
140
33
53
211
55
28
70
218
42
181
191
90
197
179
127
194
117
82
26
164
37
161
173
78
44
29
69
49
176
136
62
225
203
6
149
89
201
20
205
15
189
146
75
219
182
214
93
96
137
59
221
18
185
45
95
5
217
209
4
73
172
213
97
223
167
144
50
139
160
79
106
3
92
150
168
25
86
68
151
100
2
118
108
196
40
58
216
192
98
47
145
43
87
180
206
200
183
32
101
125
12
174
67
8
222
212
64
157
123
65
104
142
204
148
91
113
39
72
34
63
85
105
7
57
124
51
159
71
177
110
122
220
171
193
24
76
169
17
120
54
187
186
188
133
158
16
114
111
56
52
115
107
141
138
48
109
208
226
81
130
156
165
66
198
152
128
163
35
153
195
99
199
132
36
60
154
77
22
9
170
88
23
46
178
21
13
227
10
190
210
134
103
31
224
14
175
202
184
119
27
112
84
228
215

> <PUBCHEM_MMFF94_PARTIAL_CHARGES>
17
1 -0.29
10 0.44
11 0.28
12 0.66
13 0.08
15 0.57
16 0.06
2 -0.08
21 0.15
22 0.37
3 -0.43
4 -0.57
5 -0.57
6 -0.49
7 -0.57
8 0.29
9 0.1

> <PUBCHEM_EFFECTIVE_ROTOR_COUNT>
7

> <PUBCHEM_PHARMACOPHORE_FEATURES>
4
1 4 acceptor
1 5 acceptor
1 6 donor
5 2 7 9 10 13 rings

> <PUBCHEM_HEAVY_ATOM_COUNT>
16

> <PUBCHEM_ATOM_DEF_STEREO_COUNT>
0

> <PUBCHEM_ATOM_UDEF_STEREO_COUNT>
0

> <PUBCHEM_BOND_DEF_STEREO_COUNT>
0

> <PUBCHEM_BOND_UDEF_STEREO_COUNT>
0

> <PUBCHEM_ISOTOPIC_ATOM_COUNT>
0

> <PUBCHEM_COMPONENT_COUNT>
1

> <PUBCHEM_CACTVS_TAUTO_COUNT>
3

> <PUBCHEM_CONFORMER_ID>
005152FC00000001

> <PUBCHEM_MMFF94_ENERGY>
19.2202

> <PUBCHEM_FEATURE_SELFOVERLAP>
20.297

> <PUBCHEM_SHAPE_FINGERPRINT>
100836 57 8142086472403935653
11089746 13 10881690151812334042
12236239 1 18334577923299083508
12596602 18 12895067435898397183
12670543 26 17095518465895528525
12714333 28 14490190518131199823
13288520 33 18343021091012326173
13668630 136 18272939306263148694
13862211 1 18334010571399725466
13968360 50 16226037886750207986
14123256 34 18341336677721611575
1420 363 16773800286014526332
14251752 14 18261105237075706581
14251764 18 11527943470246832523
14252887 29 14979965748326858620
14350574 20 18410856576851554125
14576447 43 18259981565644701050
14729087 3 12035448363161415102
14911166 2 17458070365387800104
15048467 5 8430320130069066639
15188451 53 16128082473721122031
15501527 16 8070029978336636445
15501527 24 17967537865415051996
17834072 33 18335140890516718156
17834072 8 17530967998867073186
17834076 25 8718826483248894989
19784866 240 18272094915713652289
200 152 18259989249257174336
20281389 69 8214147347876194175
20526848 3 7997698614551758599
20612939 158 17531256096731210956
20645477 56 11241968179595899113
21054139 6 18333731316673414282
21150785 3 18261397775687438948
21267235 1 18410862087964371523
212847 35 7925918066914626172
21637258 2 18272080608971796111
22896161 15 18343021120976902908
23402539 116 18409729521619770452
23402655 69 17459182997929948309
23559900 14 18265606766634491369
23590187 135 18060137643668583069
26918003 58 15123510328807226415
270888 7 10665486528187725135
2767999 5 8070032151358226351
2916195 48 11602832318978274060
29717793 49 18408041818890054869
3004659 81 18260542360030967697
33382 64 17560527209655497262
351380 3 18412821408968760615
465052 167 17989209273652248678
559249 180 18411980231249844479

> <PUBCHEM_SHAPE_MULTIPOLES>
309.4
16.05
1.55
0.94
5.85
0.01
0.05
9.75
-3.95
1.49
-0.08
-0.78
0.04
-0.78

> <PUBCHEM_SHAPE_SELFOVERLAP>
592.347

> <PUBCHEM_SHAPE_VOLUME>
190

> <PUBCHEM_COORDINATE_TYPE>
2
5
10

$$$$
