24809834
  -OEChem-10052115193D

 34 36  0     0  0  0  0  0  0999 V2000
   -5.9312    2.3959    0.2622 Cl  0  0  0  0  0  0  0  0  0  0  0  0
   -2.0373    0.3395   -2.2337 F   0  0  0  0  0  0  0  0  0  0  0  0
   -2.5555   -2.5834    0.1052 O   0  0  0  0  0  0  0  0  0  0  0  0
    0.5102    0.3174    0.0935 N   0  0  0  0  0  0  0  0  0  0  0  0
    3.0884    1.2320    0.0558 N   0  0  0  0  0  0  0  0  0  0  0  0
   -0.8467   -4.1123    0.0737 N   0  0  0  0  0  0  0  0  0  0  0  0
    5.4735    0.8911    0.0084 N   0  0  0  0  0  0  0  0  0  0  0  0
    4.5664    3.0546    0.0485 N   0  0  0  0  0  0  0  0  0  0  0  0
   -0.6683   -0.3818    0.1087 C   0  0  0  0  0  0  0  0  0  0  0  0
   -0.3625   -1.7247    0.0885 C   0  0  0  0  0  0  0  0  0  0  0  0
    1.5636   -0.5587    0.0645 C   0  0  0  0  0  0  0  0  0  0  0  0
   -1.9439    0.2914    0.1422 C   0  0  0  0  0  0  0  0  0  0  0  0
    1.0496   -1.8366    0.0604 C   0  0  0  0  0  0  0  0  0  0  0  0
    2.9342   -0.1083    0.0436 C   0  0  0  0  0  0  0  0  0  0  0  0
   -2.5893    0.6311   -1.0468 C   0  0  0  0  0  0  0  0  0  0  0  0
   -2.5317    0.6024    1.3684 C   0  0  0  0  0  0  0  0  0  0  0  0
   -1.3201   -2.7944    0.0961 C   0  0  0  0  0  0  0  0  0  0  0  0
    3.9861   -1.0010    0.0141 C   0  0  0  0  0  0  0  0  0  0  0  0
   -3.8226    1.2817   -1.0097 C   0  0  0  0  0  0  0  0  0  0  0  0
   -3.7649    1.2531    1.4055 C   0  0  0  0  0  0  0  0  0  0  0  0
   -4.4104    1.5928    0.2165 C   0  0  0  0  0  0  0  0  0  0  0  0
    5.2460   -0.4387   -0.0024 C   0  0  0  0  0  0  0  0  0  0  0  0
    4.3662    1.6569    0.0370 C   0  0  0  0  0  0  0  0  0  0  0  0
    0.5906    1.3256    0.1030 H   0  0  0  0  0  0  0  0  0  0  0  0
    1.6283   -2.7499    0.0397 H   0  0  0  0  0  0  0  0  0  0  0  0
   -2.0419    0.3441    2.3043 H   0  0  0  0  0  0  0  0  0  0  0  0
    3.8669   -2.0765    0.0042 H   0  0  0  0  0  0  0  0  0  0  0  0
   -4.3138    1.5402   -1.9442 H   0  0  0  0  0  0  0  0  0  0  0  0
   -4.2112    1.4891    2.3682 H   0  0  0  0  0  0  0  0  0  0  0  0
    6.1346   -1.0605   -0.0256 H   0  0  0  0  0  0  0  0  0  0  0  0
    0.1395   -4.3483    0.0590 H   0  0  0  0  0  0  0  0  0  0  0  0
   -1.4969   -4.8914    0.0722 H   0  0  0  0  0  0  0  0  0  0  0  0
    3.7658    3.6711    0.0693 H   0  0  0  0  0  0  0  0  0  0  0  0
    5.5078    3.4220    0.0347 H   0  0  0  0  0  0  0  0  0  0  0  0
  1 21  1  0  0  0  0
  2 15  1  0  0  0  0
  3 17  2  0  0  0  0
  4  9  1  0  0  0  0
  4 11  1  0  0  0  0
  4 24  1  0  0  0  0
  5 14  2  0  0  0  0
  5 23  1  0  0  0  0
  6 17  1  0  0  0  0
  6 31  1  0  0  0  0
  6 32  1  0  0  0  0
  7 22  1  0  0  0  0
  7 23  2  0  0  0  0
  8 23  1  0  0  0  0
  8 33  1  0  0  0  0
  8 34  1  0  0  0  0
  9 10  2  0  0  0  0
  9 12  1  0  0  0  0
 10 13  1  0  0  0  0
 10 17  1  0  0  0  0
 11 13  2  0  0  0  0
 11 14  1  0  0  0  0
 12 15  2  0  0  0  0
 12 16  1  0  0  0  0
 13 25  1  0  0  0  0
 14 18  1  0  0  0  0
 15 19  1  0  0  0  0
 16 20  2  0  0  0  0
 16 26  1  0  0  0  0
 18 22  2  0  0  0  0
 18 27  1  0  0  0  0
 19 21  2  0  0  0  0
 19 28  1  0  0  0  0
 20 21  1  0  0  0  0
 20 29  1  0  0  0  0
 22 30  1  0  0  0  0
M  END
> <PUBCHEM_COMPOUND_CID>
24809834

> <PUBCHEM_CONFORMER_RMSD>
0.6

> <PUBCHEM_CONFORMER_DIVERSEORDER>
1
84
42
67
81
50
48
80
15
10
37
75
6
72
83
78
46
4
56
73
54
76
65
8
29
70
52
74
3
77
82
11
79
45
31
53
7
28
22
69
2
41
68
26
63
61
47
5
13
12
19
58
36
66
43
24
71
9
14
32
30
16
55
49
38
21
44
35
62
59
17
27
60
23
25
51
20
34
57
18
64
33
40
39

> <PUBCHEM_MMFF94_PARTIAL_CHARGES>
34
1 -0.18
10 -0.09
11 -0.2
12 0.05
13 -0.15
14 0.36
15 0.19
16 -0.15
17 0.72
18 -0.15
19 -0.15
2 -0.19
20 -0.15
21 0.18
22 0.16
23 0.72
24 0.27
25 0.15
26 0.15
27 0.15
28 0.15
29 0.15
3 -0.57
30 0.15
31 0.37
32 0.37
33 0.4
34 0.4
4 0.03
5 -0.62
6 -0.8
7 -0.62
8 -0.9
9 -0.2

> <PUBCHEM_EFFECTIVE_ROTOR_COUNT>
3

> <PUBCHEM_PHARMACOPHORE_FEATURES>
10
1 3 acceptor
1 4 cation
1 4 donor
1 5 acceptor
1 6 donor
1 8 donor
4 5 7 8 23 cation
5 4 9 10 11 13 rings
6 12 15 16 19 20 21 rings
6 5 7 14 18 22 23 rings

> <PUBCHEM_HEAVY_ATOM_COUNT>
23

> <PUBCHEM_ATOM_DEF_STEREO_COUNT>
0

> <PUBCHEM_ATOM_UDEF_STEREO_COUNT>
0

> <PUBCHEM_BOND_DEF_STEREO_COUNT>
0

> <PUBCHEM_BOND_UDEF_STEREO_COUNT>
0

> <PUBCHEM_ISOTOPIC_ATOM_COUNT>
0

> <PUBCHEM_COMPONENT_COUNT>
1

> <PUBCHEM_CACTVS_TAUTO_COUNT>
21

> <PUBCHEM_CONFORMER_ID>
017A916A00000001

> <PUBCHEM_MMFF94_ENERGY>
55.113

> <PUBCHEM_FEATURE_SELFOVERLAP>
50.746

> <PUBCHEM_SHAPE_FINGERPRINT>
10493431 412 18409451367169458365
11405975 8 18409163342631372242
11796584 16 13326558640994551365
12107183 9 18335975356214341266
12236239 1 17774436071584097509
12390115 104 18339939189235192435
12633257 1 18336537258074045664
12788726 201 18052800718335744847
12969540 114 18261379023623049381
13140716 1 18335421274999185666
13583140 156 16515950515349472628
14787075 74 18201999941668456643
14790565 3 18340492153638506081
15342168 16 18410014312564434749
17834072 32 18410012139184096440
17980427 23 17240779388780953535
18186145 218 18410856556030592086
19784866 140 11023823946947062405
200 152 9943519700291082544
204376 136 18410013195946621867
20645477 56 18260548913802908558
21033648 144 18339348765062314020
21033648 29 18187631480245456188
21033650 10 16915688928832662600
21049683 118 18266154241187438147
21236236 1 18411981395070430731
21307412 95 17915204346676967758
21756936 100 18272929423068451617
22079108 93 18413390934522133657
22182937 141 18339927124719556872
22224240 67 18261680286226132089
22950370 63 9007049175952222513
23227448 37 18411139181457365948
23558518 356 18044096984769681546
23559900 14 18344148082168078474
23845131 108 18261395503898347987
335352 9 18339364068230944238
350125 39 18266745873006236225
4214541 1 18338517542829559242
4340502 62 18339653235441074435
469060 322 16660918993395066319
474 4 18271526390423117425
5104073 3 18262230132112923560
59755656 520 18409728439335471727
621550 34 17898292706594662813
633830 44 18058174921060755663
8272917 22 17981327790433054945

> <PUBCHEM_SHAPE_MULTIPOLES>
437.15
11.63
3.3
1.03
4.25
2.55
0.23
-10.7
-0.54
-0.26
-0.19
-1.23
-0.25
-0.12

> <PUBCHEM_SHAPE_SELFOVERLAP>
961.504

> <PUBCHEM_SHAPE_VOLUME>
237.7

> <PUBCHEM_COORDINATE_TYPE>
2
5
10

$$$$
