5330804
  -OEChem-10062121593D

 39 41  0     0  0  0  0  0  0999 V2000
    5.4671    1.1192    0.1354 S   0  0  0  0  0  0  0  0  0  0  0  0
   -1.8102    1.8141   -0.9718 S   0  0  0  0  0  0  0  0  0  0  0  0
   -4.7002   -0.5187   -0.1049 O   0  0  0  0  0  0  0  0  0  0  0  0
    5.3256    2.0912    1.2105 O   0  0  0  0  0  0  0  0  0  0  0  0
    6.6495    0.2710    0.0782 O   0  0  0  0  0  0  0  0  0  0  0  0
   -2.5617   -1.1564   -0.0831 N   0  0  0  0  0  0  0  0  0  0  0  0
    0.6434   -2.3573    0.1005 N   0  0  0  0  0  0  0  0  0  0  0  0
   -1.2445   -0.8653   -0.0348 N   0  0  0  0  0  0  0  0  0  0  0  0
   -1.5788   -3.1233    0.0485 N   0  0  0  0  0  0  0  0  0  0  0  0
    5.2975    1.9248   -1.3619 N   0  0  0  0  0  0  0  0  0  0  0  0
   -3.9759   -3.0663   -0.0376 N   0  0  0  0  0  0  0  0  0  0  0  0
    1.7880   -1.5333    0.1091 C   0  0  0  0  0  0  0  0  0  0  0  0
    4.0511    0.0980    0.1261 C   0  0  0  0  0  0  0  0  0  0  0  0
   -3.2458    1.2984   -0.2003 C   0  0  0  0  0  0  0  0  0  0  0  0
   -0.7020   -2.0813    0.0363 C   0  0  0  0  0  0  0  0  0  0  0  0
    2.9879   -1.9995   -0.4280 C   0  0  0  0  0  0  0  0  0  0  0  0
    1.7197   -0.2514    0.6546 C   0  0  0  0  0  0  0  0  0  0  0  0
    4.1193   -1.1839   -0.4196 C   0  0  0  0  0  0  0  0  0  0  0  0
    2.8512    0.5643    0.6632 C   0  0  0  0  0  0  0  0  0  0  0  0
   -3.9878    2.3489    0.2823 C   0  0  0  0  0  0  0  0  0  0  0  0
   -3.5297   -0.1514   -0.1329 C   0  0  0  0  0  0  0  0  0  0  0  0
   -2.7400   -2.5157   -0.0196 C   0  0  0  0  0  0  0  0  0  0  0  0
   -3.3677    3.6034    0.0143 C   0  0  0  0  0  0  0  0  0  0  0  0
   -5.2794    2.2123    0.9979 C   0  0  0  0  0  0  0  0  0  0  0  0
   -2.1767    3.4579   -0.6623 C   0  0  0  0  0  0  0  0  0  0  0  0
    0.8978   -3.3415    0.0366 H   0  0  0  0  0  0  0  0  0  0  0  0
    3.0540   -2.9953   -0.8588 H   0  0  0  0  0  0  0  0  0  0  0  0
    0.8119    0.1353    1.1068 H   0  0  0  0  0  0  0  0  0  0  0  0
    5.0414   -1.5648   -0.8495 H   0  0  0  0  0  0  0  0  0  0  0  0
    2.7752    1.5592    1.0928 H   0  0  0  0  0  0  0  0  0  0  0  0
   -3.7690    4.5675    0.3002 H   0  0  0  0  0  0  0  0  0  0  0  0
   -5.6029    3.1682    1.4234 H   0  0  0  0  0  0  0  0  0  0  0  0
   -6.0639    1.8699    0.3151 H   0  0  0  0  0  0  0  0  0  0  0  0
   -5.1966    1.4975    1.8233 H   0  0  0  0  0  0  0  0  0  0  0  0
   -1.5041    4.2382   -0.9896 H   0  0  0  0  0  0  0  0  0  0  0  0
    5.0477    2.9210   -1.3416 H   0  0  0  0  0  0  0  0  0  0  0  0
    5.9512    1.6755   -2.1142 H   0  0  0  0  0  0  0  0  0  0  0  0
   -4.8272   -2.5173   -0.0968 H   0  0  0  0  0  0  0  0  0  0  0  0
   -4.1054   -4.0720    0.0069 H   0  0  0  0  0  0  0  0  0  0  0  0
  1  4  2  0  0  0  0
  1  5  2  0  0  0  0
  1 10  1  0  0  0  0
  1 13  1  0  0  0  0
  2 14  1  0  0  0  0
  2 25  1  0  0  0  0
  3 21  2  0  0  0  0
  6  8  1  0  0  0  0
  6 21  1  0  0  0  0
  6 22  1  0  0  0  0
  7 12  1  0  0  0  0
  7 15  1  0  0  0  0
  7 26  1  0  0  0  0
  8 15  2  0  0  0  0
  9 15  1  0  0  0  0
  9 22  2  0  0  0  0
 10 36  1  0  0  0  0
 10 37  1  0  0  0  0
 11 22  1  0  0  0  0
 11 38  1  0  0  0  0
 11 39  1  0  0  0  0
 12 16  2  0  0  0  0
 12 17  1  0  0  0  0
 13 18  2  0  0  0  0
 13 19  1  0  0  0  0
 14 20  2  0  0  0  0
 14 21  1  0  0  0  0
 16 18  1  0  0  0  0
 16 27  1  0  0  0  0
 17 19  2  0  0  0  0
 17 28  1  0  0  0  0
 18 29  1  0  0  0  0
 19 30  1  0  0  0  0
 20 23  1  0  0  0  0
 20 24  1  0  0  0  0
 23 25  2  0  0  0  0
 23 31  1  0  0  0  0
 24 32  1  0  0  0  0
 24 33  1  0  0  0  0
 24 34  1  0  0  0  0
 25 35  1  0  0  0  0
M  END
> <PUBCHEM_COMPOUND_CID>
5330804

> <PUBCHEM_CONFORMER_RMSD>
0.8

> <PUBCHEM_CONFORMER_DIVERSEORDER>
1
69
147
148
161
56
151
67
41
160
139
121
76
154
23
48
143
34
116
152
20
63
125
114
29
43
21
25
108
85
103
132
142
158
75
136
38
126
87
64
12
52
106
66
57
84
58
100
10
73
86
141
3
156
107
70
129
46
42
149
35
155
99
59
61
19
14
47
90
82
131
62
94
162
2
113
39
95
16
78
97
79
102
117
127
83
36
50
53
13
32
165
40
111
31
60
93
55
153
15
134
163
6
27
17
144
28
145
37
24
164
159
124
101
137
112
120
65
54
45
5
128
88
4
135
167
33
51
98
110
68
80
9
119
166
104
89
150
22
138
7
130
74
81
72
49
18
133
118
71
140
8
109
146
96
44
157
122
77
91
123
92
105
30
11
115
26

> <PUBCHEM_MMFF94_PARTIAL_CHARGES>
36
1 1.45
10 -0.98
11 -0.88
12 0.1
13 -0.01
14 -0.05
15 0.6
16 -0.15
17 -0.15
18 -0.15
19 -0.15
2 -0.08
20 -0.18
21 0.66
22 0.27
23 -0.15
24 0.18
25 -0.11
26 0.4
27 0.15
28 0.15
29 0.15
3 -0.57
30 0.15
31 0.15
35 0.15
36 0.42
37 0.42
38 0.4
39 0.4
4 -0.65
5 -0.65
6 0.56
7 -0.58
8 -0.71
9 -0.57

> <PUBCHEM_EFFECTIVE_ROTOR_COUNT>
5

> <PUBCHEM_PHARMACOPHORE_FEATURES>
10
1 10 donor
1 11 donor
1 3 acceptor
1 4 acceptor
1 5 acceptor
1 7 donor
4 7 8 9 15 cation
5 2 14 20 23 25 rings
5 6 8 9 15 22 rings
6 12 13 16 17 18 19 rings

> <PUBCHEM_HEAVY_ATOM_COUNT>
25

> <PUBCHEM_ATOM_DEF_STEREO_COUNT>
0

> <PUBCHEM_ATOM_UDEF_STEREO_COUNT>
0

> <PUBCHEM_BOND_DEF_STEREO_COUNT>
0

> <PUBCHEM_BOND_UDEF_STEREO_COUNT>
0

> <PUBCHEM_ISOTOPIC_ATOM_COUNT>
0

> <PUBCHEM_COMPONENT_COUNT>
1

> <PUBCHEM_CACTVS_TAUTO_COUNT>
5

> <PUBCHEM_CONFORMER_ID>
0051577400000001

> <PUBCHEM_MMFF94_ENERGY>
45.6001

> <PUBCHEM_FEATURE_SELFOVERLAP>
50.764

> <PUBCHEM_SHAPE_FINGERPRINT>
10087517 78 18337102492734069844
10411042 1 18050286174646754579
10493431 412 18339083679627868529
10498660 4 18262228916056994445
10615611 76 17531826756414523476
10670039 82 18262527000205158076
10871710 139 18411131438338128567
11014199 57 18049163563998363499
11135609 187 18191570979532970957
11595378 159 17822275891011661728
12107183 9 18046614626132652970
12173636 292 18410288095281371599
12390115 104 18271255936570086097
12596602 18 16950561133728139352
12788726 201 18261663891529374723
12978246 48 18334017164011644100
13402501 40 18342173371119786704
138480 1 16609131609369442983
14251764 75 17983021038055948913
14363568 33 17253729676633999481
14739800 52 18265876086726771178
14765038 42 18129678395588253393
14790565 3 17981331080094005417
15196674 1 18339642243791692770
15604295 49 18125720339551777544
21033650 10 18190767348027551726
21279426 13 18272094851727226774
21734292 116 18338796715060610793
23227448 37 18411699859599791605
283562 15 18336259133183382411
469060 322 16877660167190675135
508706 21 18269822246311393968
5104073 3 18334290959813371626
5283173 99 18412825789982777586
5895379 119 18261970617114184244
6700243 42 17550992429455812094
7064713 232 18334295349238292836
7288768 16 18041282071719737651
7808743 9 18410009914216899073

> <PUBCHEM_SHAPE_MULTIPOLES>
474.69
13.45
4.36
0.87
13.48
0.01
-0.02
8.39
1.03
-4.62
-0.26
0.31
0.48
0.02

> <PUBCHEM_SHAPE_SELFOVERLAP>
1006.69

> <PUBCHEM_SHAPE_VOLUME>
266.2

> <PUBCHEM_COORDINATE_TYPE>
2
5
10

$$$$
