24905152
  -OEChem-10052115143D

 39 42  0     0  0  0  0  0  0999 V2000
    2.6464    1.0377   -0.0480 N   0  0  0  0  0  0  0  0  0  0  0  0
    1.3621    1.4002    0.1275 N   0  0  0  0  0  0  0  0  0  0  0  0
    3.9895   -0.9633   -0.2822 N   0  0  0  0  0  0  0  0  0  0  0  0
    2.6259   -2.9829   -0.1710 N   0  0  0  0  0  0  0  0  0  0  0  0
    0.2591   -2.9262    0.1321 N   0  0  0  0  0  0  0  0  0  0  0  0
   -4.8407    0.1662    0.9217 N   0  0  0  0  0  0  0  0  0  0  0  0
    3.6662    2.0549   -0.1467 C   0  0  0  0  0  0  0  0  0  0  0  0
    1.5712   -0.8735    0.0298 C   0  0  0  0  0  0  0  0  0  0  0  0
    2.8278   -0.3119   -0.1133 C   0  0  0  0  0  0  0  0  0  0  0  0
    0.7124    0.2320    0.1741 C   0  0  0  0  0  0  0  0  0  0  0  0
   -0.7114    0.2144    0.3557 C   0  0  0  0  0  0  0  0  0  0  0  0
    3.7631    2.8814    1.1381 C   0  0  0  0  0  0  0  0  0  0  0  0
    3.4433    2.9595   -1.3612 C   0  0  0  0  0  0  0  0  0  0  0  0
    1.4914   -2.2618   -0.0034 C   0  0  0  0  0  0  0  0  0  0  0  0
   -1.5587    0.2443   -0.7482 C   0  0  0  0  0  0  0  0  0  0  0  0
   -1.2526    0.1687    1.6345 C   0  0  0  0  0  0  0  0  0  0  0  0
   -2.9530    0.2286   -0.5750 C   0  0  0  0  0  0  0  0  0  0  0  0
   -3.5095    0.1823    0.7204 C   0  0  0  0  0  0  0  0  0  0  0  0
   -2.6389    0.1531    1.8065 C   0  0  0  0  0  0  0  0  0  0  0  0
    3.7879   -2.2986   -0.2980 C   0  0  0  0  0  0  0  0  0  0  0  0
   -3.8289    0.2579   -1.6686 C   0  0  0  0  0  0  0  0  0  0  0  0
   -5.2011    0.2414   -1.4643 C   0  0  0  0  0  0  0  0  0  0  0  0
   -5.6516    0.1956   -0.1606 C   0  0  0  0  0  0  0  0  0  0  0  0
    4.6261    1.5430   -0.2855 H   0  0  0  0  0  0  0  0  0  0  0  0
    2.8471    3.4535    1.3221 H   0  0  0  0  0  0  0  0  0  0  0  0
    4.5961    3.5901    1.0799 H   0  0  0  0  0  0  0  0  0  0  0  0
    3.9309    2.2341    2.0061 H   0  0  0  0  0  0  0  0  0  0  0  0
    2.5149    3.5347   -1.2732 H   0  0  0  0  0  0  0  0  0  0  0  0
    3.3822    2.3681   -2.2816 H   0  0  0  0  0  0  0  0  0  0  0  0
    4.2697    3.6698   -1.4707 H   0  0  0  0  0  0  0  0  0  0  0  0
   -1.1400    0.2798   -1.7532 H   0  0  0  0  0  0  0  0  0  0  0  0
   -0.6121    0.1444    2.5130 H   0  0  0  0  0  0  0  0  0  0  0  0
   -3.0379    0.1171    2.8186 H   0  0  0  0  0  0  0  0  0  0  0  0
    4.6764   -2.9065   -0.4307 H   0  0  0  0  0  0  0  0  0  0  0  0
   -3.4464    0.2938   -2.6861 H   0  0  0  0  0  0  0  0  0  0  0  0
   -0.6026   -2.4159    0.2571 H   0  0  0  0  0  0  0  0  0  0  0  0
    0.2458   -3.9369    0.1015 H   0  0  0  0  0  0  0  0  0  0  0  0
   -5.8926    0.2636   -2.2983 H   0  0  0  0  0  0  0  0  0  0  0  0
   -6.7138    0.1807    0.0604 H   0  0  0  0  0  0  0  0  0  0  0  0
  1  2  1  0  0  0  0
  1  7  1  0  0  0  0
  1  9  1  0  0  0  0
  2 10  2  0  0  0  0
  3  9  2  0  0  0  0
  3 20  1  0  0  0  0
  4 14  1  0  0  0  0
  4 20  2  0  0  0  0
  5 14  1  0  0  0  0
  5 36  1  0  0  0  0
  5 37  1  0  0  0  0
  6 18  1  0  0  0  0
  6 23  2  0  0  0  0
  7 12  1  0  0  0  0
  7 13  1  0  0  0  0
  7 24  1  0  0  0  0
  8  9  1  0  0  0  0
  8 10  1  0  0  0  0
  8 14  2  0  0  0  0
 10 11  1  0  0  0  0
 11 15  2  0  0  0  0
 11 16  1  0  0  0  0
 12 25  1  0  0  0  0
 12 26  1  0  0  0  0
 12 27  1  0  0  0  0
 13 28  1  0  0  0  0
 13 29  1  0  0  0  0
 13 30  1  0  0  0  0
 15 17  1  0  0  0  0
 15 31  1  0  0  0  0
 16 19  2  0  0  0  0
 16 32  1  0  0  0  0
 17 18  2  0  0  0  0
 17 21  1  0  0  0  0
 18 19  1  0  0  0  0
 19 33  1  0  0  0  0
 20 34  1  0  0  0  0
 21 22  2  0  0  0  0
 21 35  1  0  0  0  0
 22 23  1  0  0  0  0
 22 38  1  0  0  0  0
 23 39  1  0  0  0  0
M  END
> <PUBCHEM_COMPOUND_CID>
24905152

> <PUBCHEM_CONFORMER_RMSD>
0.6

> <PUBCHEM_CONFORMER_DIVERSEORDER>
2
5
4
3
6
1

> <PUBCHEM_MMFF94_PARTIAL_CHARGES>
28
1 0.31
10 0.23
11 0.05
14 0.41
15 -0.15
16 -0.15
18 0.31
19 -0.15
2 -0.71
20 0.47
21 -0.15
22 -0.15
23 0.16
3 -0.57
31 0.15
32 0.15
33 0.15
34 0.15
35 0.15
36 0.4
37 0.4
38 0.15
39 0.15
4 -0.62
5 -0.9
6 -0.62
7 0.26
9 0.11

> <PUBCHEM_EFFECTIVE_ROTOR_COUNT>
2

> <PUBCHEM_PHARMACOPHORE_FEATURES>
11
1 2 acceptor
1 5 cation
1 5 donor
1 6 acceptor
3 1 3 9 cation
3 3 4 20 cation
3 7 12 13 hydrophobe
5 1 2 8 9 10 rings
6 11 15 16 17 18 19 rings
6 3 4 8 9 14 20 rings
6 6 17 18 21 22 23 rings

> <PUBCHEM_HEAVY_ATOM_COUNT>
23

> <PUBCHEM_ATOM_DEF_STEREO_COUNT>
0

> <PUBCHEM_ATOM_UDEF_STEREO_COUNT>
0

> <PUBCHEM_BOND_DEF_STEREO_COUNT>
0

> <PUBCHEM_BOND_UDEF_STEREO_COUNT>
0

> <PUBCHEM_ISOTOPIC_ATOM_COUNT>
0

> <PUBCHEM_COMPONENT_COUNT>
1

> <PUBCHEM_CACTVS_TAUTO_COUNT>
5

> <PUBCHEM_CONFORMER_ID>
017C05C000000002

> <PUBCHEM_MMFF94_ENERGY>
60.5824

> <PUBCHEM_FEATURE_SELFOVERLAP>
56.131

> <PUBCHEM_SHAPE_FINGERPRINT>
10366900 7 17896047554657349334
11582403 64 17680397199580815384
11725454 13 17677874889815487033
12236239 1 17632014165368436851
12403259 415 17821736026697340681
12616971 3 17988648463135781473
12730499 353 18337116764472362809
13009979 54 17344917304253934850
13140716 1 18338799035160342690
13533116 47 18342741810605440497
13631057 29 17769363152651475279
13911987 19 18120385499077083701
13955234 65 18411697682046240914
15375358 24 17749105617081878761
15842332 3 17703243805754843865
15961568 22 16733272360049924748
16752209 62 16486969566927481309
17138139 8 17557113384986395791
17818456 19 17271457785640632513
17844677 252 18337112272527733413
1813 80 17914348874731896550
18222031 100 18199185084321965282
200 152 18272367517229946187
20369508 70 17968651610659678778
204376 136 18265054806695083376
20511986 3 17631996594805175337
20554085 129 17702086162494264328
20600515 1 16153706578583386189
20612939 158 18412544301446107069
20645477 70 18335421253007130898
21033648 29 17748823004017969293
21065201 7 16587749728618464163
21709351 56 18270400464799381021
2255824 54 18342743988064513470
23557571 272 17167874053860718215
23559900 14 16660649522756716386
312423 11 18130801009739112329
341906 21 15719389529893114781
4340502 62 18341608282240652571
4409770 3 15463849481113456967
469060 322 17758684729897668939
474 4 18270960258226367336
495365 180 18408318908520526856
5281201 14 18260829254834673157
6034566 193 17828493800839190892
633830 44 18057629653239992809
70251023 43 18269274560497363627
7471813 234 18059290951138338848
7615 1 17917717846588158009
77492 1 17704076161789930899
8272917 22 18412268315495551509

> <PUBCHEM_SHAPE_MULTIPOLES>
443.44
10.57
2.88
1.36
9.63
0.64
0.13
-2.95
-2.02
-6.12
-0.28
1.26
-0.53
0.23

> <PUBCHEM_SHAPE_SELFOVERLAP>
993.971

> <PUBCHEM_SHAPE_VOLUME>
232.3

> <PUBCHEM_COORDINATE_TYPE>
2
5
10

$$$$
