44375702
  -OEChem-10052115143D

 55 59  0     0  0  0  0  0  0999 V2000
    1.2138   -0.8924    0.9512 S   0  0  0  0  0  0  0  0  0  0  0  0
    3.6981    2.6137   -0.2492 O   0  0  0  0  0  0  0  0  0  0  0  0
   -3.1236   -1.6564   -2.2904 O   0  0  0  0  0  0  0  0  0  0  0  0
   -3.9106   -3.7112    1.7295 O   0  0  0  0  0  0  0  0  0  0  0  0
    4.2149    2.2775    1.9632 O   0  0  0  0  0  0  0  0  0  0  0  0
   -0.4556    1.8210   -0.6377 N   0  0  0  0  0  0  0  0  0  0  0  0
   -3.6745   -2.9994   -0.4744 N   0  0  0  0  0  0  0  0  0  0  0  0
    5.1486    0.9743    0.2860 N   0  0  0  0  0  0  0  0  0  0  0  0
   -2.2926   -0.7761    3.5053 N   0  0  0  0  0  0  0  0  0  0  0  0
   -0.6696    0.4814   -0.4523 C   0  0  0  0  0  0  0  0  0  0  0  0
   -2.0179    0.2911   -0.2555 C   0  0  0  0  0  0  0  0  0  0  0  0
   -1.6471    2.5067   -0.5642 C   0  0  0  0  0  0  0  0  0  0  0  0
   -2.6495    1.5645   -0.3237 C   0  0  0  0  0  0  0  0  0  0  0  0
    0.8323    2.4410   -0.8804 C   0  0  0  0  0  0  0  0  0  0  0  0
    0.3815   -0.4746   -0.4766 C   0  0  0  0  0  0  0  0  0  0  0  0
    1.4351    3.1129    0.3552 C   0  0  0  0  0  0  0  0  0  0  0  0
   -2.6664   -1.0006   -0.0202 C   0  0  0  0  0  0  0  0  0  0  0  0
   -1.9116    3.8750   -0.6909 C   0  0  0  0  0  0  0  0  0  0  0  0
   -3.9818    2.0074   -0.2036 C   0  0  0  0  0  0  0  0  0  0  0  0
    0.8564   -1.1598   -1.5695 C   0  0  0  0  0  0  0  0  0  0  0  0
    2.8299    3.6791    0.1154 C   0  0  0  0  0  0  0  0  0  0  0  0
   -2.9022   -1.6142    1.1499 C   0  0  0  0  0  0  0  0  0  0  0  0
   -3.2403    4.2908   -0.5679 C   0  0  0  0  0  0  0  0  0  0  0  0
   -4.2611    3.3732   -0.3281 C   0  0  0  0  0  0  0  0  0  0  0  0
    1.9303   -2.0550   -1.2445 C   0  0  0  0  0  0  0  0  0  0  0  0
   -3.1649   -1.8957   -1.0954 C   0  0  0  0  0  0  0  0  0  0  0  0
    2.2326   -2.0081    0.1200 C   0  0  0  0  0  0  0  0  0  0  0  0
   -3.5588   -2.9091    0.8817 C   0  0  0  0  0  0  0  0  0  0  0  0
    2.6823   -2.9282   -2.0672 C   0  0  0  0  0  0  0  0  0  0  0  0
    3.2550   -2.8021    0.6756 C   0  0  0  0  0  0  0  0  0  0  0  0
    3.6972   -3.7172   -1.5192 C   0  0  0  0  0  0  0  0  0  0  0  0
    3.9788   -3.6532   -0.1619 C   0  0  0  0  0  0  0  0  0  0  0  0
   -2.5674   -1.1539    2.4434 C   0  0  0  0  0  0  0  0  0  0  0  0
    4.3447    1.9798    0.7802 C   0  0  0  0  0  0  0  0  0  0  0  0
    5.9638    0.1179    1.1163 C   0  0  0  0  0  0  0  0  0  0  0  0
    0.6927    3.1784   -1.6803 H   0  0  0  0  0  0  0  0  0  0  0  0
    1.5156    1.6912   -1.2898 H   0  0  0  0  0  0  0  0  0  0  0  0
    1.4747    2.3829    1.1725 H   0  0  0  0  0  0  0  0  0  0  0  0
    0.7804    3.9235    0.6949 H   0  0  0  0  0  0  0  0  0  0  0  0
   -1.1256    4.5983   -0.8790 H   0  0  0  0  0  0  0  0  0  0  0  0
   -4.7894    1.3054   -0.0166 H   0  0  0  0  0  0  0  0  0  0  0  0
    0.4589   -1.0351   -2.5702 H   0  0  0  0  0  0  0  0  0  0  0  0
    3.1948    4.2233    0.9940 H   0  0  0  0  0  0  0  0  0  0  0  0
    2.8114    4.3914   -0.7163 H   0  0  0  0  0  0  0  0  0  0  0  0
   -3.4799    5.3470   -0.6614 H   0  0  0  0  0  0  0  0  0  0  0  0
   -5.2869    3.7205   -0.2364 H   0  0  0  0  0  0  0  0  0  0  0  0
   -4.0906   -3.7857   -0.9603 H   0  0  0  0  0  0  0  0  0  0  0  0
    2.4734   -2.9893   -3.1324 H   0  0  0  0  0  0  0  0  0  0  0  0
    3.4834   -2.7574    1.7367 H   0  0  0  0  0  0  0  0  0  0  0  0
    4.2675   -4.3829   -2.1609 H   0  0  0  0  0  0  0  0  0  0  0  0
    4.7704   -4.2699    0.2552 H   0  0  0  0  0  0  0  0  0  0  0  0
    5.1864    0.8432   -0.7202 H   0  0  0  0  0  0  0  0  0  0  0  0
    6.9545    0.5700    1.2075 H   0  0  0  0  0  0  0  0  0  0  0  0
    6.0475   -0.8573    0.6316 H   0  0  0  0  0  0  0  0  0  0  0  0
    5.5168    0.0085    2.1074 H   0  0  0  0  0  0  0  0  0  0  0  0
  1 15  1  0  0  0  0
  1 27  1  0  0  0  0
  2 21  1  0  0  0  0
  2 34  1  0  0  0  0
  3 26  2  0  0  0  0
  4 28  2  0  0  0  0
  5 34  2  0  0  0  0
  6 10  1  0  0  0  0
  6 12  1  0  0  0  0
  6 14  1  0  0  0  0
  7 26  1  0  0  0  0
  7 28  1  0  0  0  0
  7 47  1  0  0  0  0
  8 34  1  0  0  0  0
  8 35  1  0  0  0  0
  8 52  1  0  0  0  0
  9 33  3  0  0  0  0
 10 11  2  0  0  0  0
 10 15  1  0  0  0  0
 11 13  1  0  0  0  0
 11 17  1  0  0  0  0
 12 13  1  0  0  0  0
 12 18  2  0  0  0  0
 13 19  2  0  0  0  0
 14 16  1  0  0  0  0
 14 36  1  0  0  0  0
 14 37  1  0  0  0  0
 15 20  2  0  0  0  0
 16 21  1  0  0  0  0
 16 38  1  0  0  0  0
 16 39  1  0  0  0  0
 17 22  2  0  0  0  0
 17 26  1  0  0  0  0
 18 23  1  0  0  0  0
 18 40  1  0  0  0  0
 19 24  1  0  0  0  0
 19 41  1  0  0  0  0
 20 25  1  0  0  0  0
 20 42  1  0  0  0  0
 21 43  1  0  0  0  0
 21 44  1  0  0  0  0
 22 28  1  0  0  0  0
 22 33  1  0  0  0  0
 23 24  2  0  0  0  0
 23 45  1  0  0  0  0
 24 46  1  0  0  0  0
 25 27  1  0  0  0  0
 25 29  2  0  0  0  0
 27 30  2  0  0  0  0
 29 31  1  0  0  0  0
 29 48  1  0  0  0  0
 30 32  1  0  0  0  0
 30 49  1  0  0  0  0
 31 32  2  0  0  0  0
 31 50  1  0  0  0  0
 32 51  1  0  0  0  0
 35 53  1  0  0  0  0
 35 54  1  0  0  0  0
 35 55  1  0  0  0  0
M  END
> <PUBCHEM_COMPOUND_CID>
44375702

> <PUBCHEM_CONFORMER_RMSD>
1

> <PUBCHEM_CONFORMER_DIVERSEORDER>
1
128
60
97
66
131
35
7
33
55
100
74
98
51
104
28
18
59
23
63
61
82
105
91
37
101
125
69
123
25
130
119
22
11
30
81
108
75
10
54
93
52
39
58
34
32
36
124
92
121
8
27
45
129
21
77
56
48
113
87
46
117
94
43
62
20
44
70
9
13
42
102
65
107
110
109
29
57
31
126
118
84
72
53
106
24
5
88
49
47
99
103
16
17
95
2
96
3
4
79
12
111
19
132
127
15
40
114
14
122
38
112
76
64
80
6
116
71
86
26
68
78
67
89
41
73
90
83
115
50
85
120

> <PUBCHEM_MMFF94_PARTIAL_CHARGES>
43
1 -0.08
10 -0.15
11 -0.05
12 -0.15
14 0.26
15 0.04
17 0.06
18 -0.15
19 -0.15
2 -0.43
20 -0.15
21 0.28
22 0.08
23 -0.15
24 -0.15
26 0.62
27 0.04
28 0.62
29 -0.15
3 -0.57
30 -0.15
31 -0.15
32 -0.15
33 0.49
34 0.78
35 0.3
4 -0.57
40 0.15
41 0.15
42 0.15
45 0.15
46 0.15
47 0.37
48 0.15
49 0.15
5 -0.57
50 0.15
51 0.15
52 0.37
6 0.05
7 -0.49
8 -0.73
9 -0.56

> <PUBCHEM_EFFECTIVE_ROTOR_COUNT>
8.2

> <PUBCHEM_PHARMACOPHORE_FEATURES>
12
1 3 acceptor
1 4 acceptor
1 5 acceptor
1 6 cation
1 7 donor
1 8 donor
1 9 acceptor
5 1 15 20 25 27 rings
5 6 10 11 12 13 rings
5 7 17 22 26 28 rings
6 12 13 18 19 23 24 rings
6 25 27 29 30 31 32 rings

> <PUBCHEM_HEAVY_ATOM_COUNT>
35

> <PUBCHEM_ATOM_DEF_STEREO_COUNT>
0

> <PUBCHEM_ATOM_UDEF_STEREO_COUNT>
0

> <PUBCHEM_BOND_DEF_STEREO_COUNT>
0

> <PUBCHEM_BOND_UDEF_STEREO_COUNT>
0

> <PUBCHEM_ISOTOPIC_ATOM_COUNT>
0

> <PUBCHEM_COMPONENT_COUNT>
1

> <PUBCHEM_CACTVS_TAUTO_COUNT>
6

> <PUBCHEM_CONFORMER_ID>
02A51E9600000001

> <PUBCHEM_MMFF94_ENERGY>
64.759

> <PUBCHEM_FEATURE_SELFOVERLAP>
61.05

> <PUBCHEM_SHAPE_FINGERPRINT>
10305334 12 17681795615394639960
10675989 125 15529099651082656598
1100329 8 18121778331264052421
11578080 2 18201167580726615481
12422481 6 18200046168949593089
13140716 1 18266178335848693526
13911987 19 17758673738812368237
13965767 371 17624186794273511929
140371 6 18262232339420684421
15775530 1 18337687350972932765
16112460 7 18127419956082130457
19301679 30 18190469444647914299
19319366 153 17100039507480547498
20028762 73 17118058750792676031
21133410 52 17407109337360815926
23559900 14 18055064372770246598
3380486 77 17547577432270849013
4015057 19 18127112096577384316
42626532 9 18191606171972897850
4403749 210 18125133143969744600
5081480 168 17344094900016307630
5171179 24 18412832365235179814
5309563 4 18048316935955769483
56638632 33 18055332666186397112
57527585 103 17458356277139483489

> <PUBCHEM_SHAPE_MULTIPOLES>
680.73
9.91
6.38
1.95
7.12
1.67
1.03
0.3
1.26
-0.75
-0.25
-0.41
-1.55
3.6

> <PUBCHEM_SHAPE_SELFOVERLAP>
1500.051

> <PUBCHEM_SHAPE_VOLUME>
370.6

> <PUBCHEM_COORDINATE_TYPE>
2
5
10

$$$$
