135524085
  -OEChem-10062122013D

 53 56  0     0  0  0  0  0  0999 V2000
    6.5124    1.1444   -0.6344 O   0  0  0  0  0  0  0  0  0  0  0  0
   -6.7263    3.3869    0.6212 O   0  0  0  0  0  0  0  0  0  0  0  0
   -5.7764   -0.9909   -0.3177 N   0  0  0  0  0  0  0  0  0  0  0  0
    9.9742    0.5123    0.4563 N   0  0  0  0  0  0  0  0  0  0  0  0
   -8.0517   -0.3209   -0.7016 N   0  0  0  0  0  0  0  0  0  0  0  0
   -8.4135    1.9906   -0.1709 N   0  0  0  0  0  0  0  0  0  0  0  0
   -0.9943   -2.5884    0.4405 N   0  0  0  0  0  0  0  0  0  0  0  0
   -4.6148   -0.4063    0.1270 C   0  0  0  0  0  0  0  0  0  0  0  0
   -6.2447    1.1321    0.1357 C   0  0  0  0  0  0  0  0  0  0  0  0
   -6.7777   -0.0595   -0.3159 C   0  0  0  0  0  0  0  0  0  0  0  0
   -3.3816   -1.1490    0.2334 C   0  0  0  0  0  0  0  0  0  0  0  0
   -4.8784    0.9173    0.4165 C   0  0  0  0  0  0  0  0  0  0  0  0
    8.7833    1.2777    0.1190 C   0  0  0  0  0  0  0  0  0  0  0  0
   -2.1610   -0.5037    0.0693 C   0  0  0  0  0  0  0  0  0  0  0  0
    7.6620    0.3551   -0.3314 C   0  0  0  0  0  0  0  0  0  0  0  0
   -7.1071    2.2889    0.2329 C   0  0  0  0  0  0  0  0  0  0  0  0
   -3.4101   -2.5132    0.5010 C   0  0  0  0  0  0  0  0  0  0  0  0
   -1.0064   -1.2616    0.1814 C   0  0  0  0  0  0  0  0  0  0  0  0
    5.2962    0.5581   -0.4630 C   0  0  0  0  0  0  0  0  0  0  0  0
    2.8026   -0.6428   -0.1133 C   0  0  0  0  0  0  0  0  0  0  0  0
    0.2946   -0.6329    0.0180 C   0  0  0  0  0  0  0  0  0  0  0  0
   -8.8144    0.7277   -0.6092 C   0  0  0  0  0  0  0  0  0  0  0  0
   -2.1997   -3.1812    0.5939 C   0  0  0  0  0  0  0  0  0  0  0  0
   10.8474    1.2788    1.3485 C   0  0  0  0  0  0  0  0  0  0  0  0
   10.7026    0.1265   -0.7547 C   0  0  0  0  0  0  0  0  0  0  0  0
    1.4850   -1.2768    0.0697 C   0  0  0  0  0  0  0  0  0  0  0  0
    4.1895    1.3355   -0.1213 C   0  0  0  0  0  0  0  0  0  0  0  0
    5.1561   -0.8197   -0.6298 C   0  0  0  0  0  0  0  0  0  0  0  0
    2.9428    0.7350    0.0535 C   0  0  0  0  0  0  0  0  0  0  0  0
    3.9093   -1.4201   -0.4548 C   0  0  0  0  0  0  0  0  0  0  0  0
   -4.1723    1.6459    0.7917 H   0  0  0  0  0  0  0  0  0  0  0  0
   -5.8837   -1.9511   -0.6151 H   0  0  0  0  0  0  0  0  0  0  0  0
    8.9802    2.0519   -0.6346 H   0  0  0  0  0  0  0  0  0  0  0  0
    8.4125    1.8212    0.9994 H   0  0  0  0  0  0  0  0  0  0  0  0
   -2.1081    0.5595   -0.1477 H   0  0  0  0  0  0  0  0  0  0  0  0
    7.4574   -0.3550    0.4815 H   0  0  0  0  0  0  0  0  0  0  0  0
    7.9388   -0.1979   -1.2350 H   0  0  0  0  0  0  0  0  0  0  0  0
   -4.3325   -3.0645    0.6506 H   0  0  0  0  0  0  0  0  0  0  0  0
   -9.1040    2.7352   -0.1422 H   0  0  0  0  0  0  0  0  0  0  0  0
    0.2593    0.4336   -0.1858 H   0  0  0  0  0  0  0  0  0  0  0  0
   -9.8800    0.6900   -0.8834 H   0  0  0  0  0  0  0  0  0  0  0  0
   11.7309    0.6909    1.6214 H   0  0  0  0  0  0  0  0  0  0  0  0
   11.1834    2.2164    0.8910 H   0  0  0  0  0  0  0  0  0  0  0  0
   10.3301    1.5157    2.2850 H   0  0  0  0  0  0  0  0  0  0  0  0
   11.0219    0.9959   -1.3413 H   0  0  0  0  0  0  0  0  0  0  0  0
   11.5964   -0.4513   -0.4920 H   0  0  0  0  0  0  0  0  0  0  0  0
   10.1026   -0.5242   -1.3980 H   0  0  0  0  0  0  0  0  0  0  0  0
   -2.1668   -4.2452    0.8042 H   0  0  0  0  0  0  0  0  0  0  0  0
    1.5168   -2.3500    0.2443 H   0  0  0  0  0  0  0  0  0  0  0  0
    4.2943    2.4085    0.0145 H   0  0  0  0  0  0  0  0  0  0  0  0
    5.9849   -1.4571   -0.9228 H   0  0  0  0  0  0  0  0  0  0  0  0
    2.1151    1.3769    0.3399 H   0  0  0  0  0  0  0  0  0  0  0  0
    3.8167   -2.4942   -0.5961 H   0  0  0  0  0  0  0  0  0  0  0  0
  1 15  1  0  0  0  0
  1 19  1  0  0  0  0
  2 16  2  0  0  0  0
  3  8  1  0  0  0  0
  3 10  1  0  0  0  0
  3 32  1  0  0  0  0
  4 13  1  0  0  0  0
  4 24  1  0  0  0  0
  4 25  1  0  0  0  0
  5 10  1  0  0  0  0
  5 22  2  0  0  0  0
  6 16  1  0  0  0  0
  6 22  1  0  0  0  0
  6 39  1  0  0  0  0
  7 18  2  0  0  0  0
  7 23  1  0  0  0  0
  8 11  1  0  0  0  0
  8 12  2  0  0  0  0
  9 10  2  0  0  0  0
  9 12  1  0  0  0  0
  9 16  1  0  0  0  0
 11 14  2  0  0  0  0
 11 17  1  0  0  0  0
 12 31  1  0  0  0  0
 13 15  1  0  0  0  0
 13 33  1  0  0  0  0
 13 34  1  0  0  0  0
 14 18  1  0  0  0  0
 14 35  1  0  0  0  0
 15 36  1  0  0  0  0
 15 37  1  0  0  0  0
 17 23  2  0  0  0  0
 17 38  1  0  0  0  0
 18 21  1  0  0  0  0
 19 27  2  0  0  0  0
 19 28  1  0  0  0  0
 20 26  1  0  0  0  0
 20 29  2  0  0  0  0
 20 30  1  0  0  0  0
 21 26  2  0  0  0  0
 21 40  1  0  0  0  0
 22 41  1  0  0  0  0
 23 48  1  0  0  0  0
 24 42  1  0  0  0  0
 24 43  1  0  0  0  0
 24 44  1  0  0  0  0
 25 45  1  0  0  0  0
 25 46  1  0  0  0  0
 25 47  1  0  0  0  0
 26 49  1  0  0  0  0
 27 29  1  0  0  0  0
 27 50  1  0  0  0  0
 28 30  2  0  0  0  0
 28 51  1  0  0  0  0
 29 52  1  0  0  0  0
 30 53  1  0  0  0  0
M  END
> <PUBCHEM_COMPOUND_CID>
135524085

> <PUBCHEM_CONFORMER_RMSD>
0.8

> <PUBCHEM_CONFORMER_DIVERSEORDER>
1
77
134
60
32
109
37
26
120
138
69
55
84
106
46
94
100
67
62
110
58
29
71
63
9
96
66
143
112
85
128
4
118
79
78
155
52
17
99
24
13
105
73
43
72
81
49
83
57
39
89
125
111
18
97
2
33
139
11
31
157
123
7
5
87
47
122
51
16
95
104
14
141
145
151
88
42
8
74
80
135
44
35
137
121
131
41
101
82
136
108
50
150
114
129
54
19
92
6
119
86
127
102
15
91
64
133
3
113
34
68
10
65
75
28
12
117
61
140
153
21
90
36
30
48
23
59
40
146
142
144
53
70
148
38
159
116
126
147
20
25
132
98
93
152
124
158
103
27
156
56
76
22
107
45
149
130
154
115

> <PUBCHEM_MMFF94_PARTIAL_CHARGES>
43
1 -0.36
10 -0.03
11 0.05
12 -0.15
13 0.27
14 -0.15
15 0.28
16 0.72
17 -0.15
18 0.34
19 0.08
2 -0.57
20 0.03
21 -0.18
22 0.45
23 0.16
24 0.27
25 0.27
26 -0.18
27 -0.15
28 -0.15
29 -0.15
3 0.03
30 -0.15
31 0.15
32 0.27
35 0.15
38 0.15
39 0.37
4 -0.81
40 0.15
41 0.06
48 0.15
49 0.15
5 -0.58
50 0.15
51 0.15
52 0.15
53 0.15
6 -0.49
7 -0.62
8 -0.2
9 -0.09

> <PUBCHEM_EFFECTIVE_ROTOR_COUNT>
7

> <PUBCHEM_PHARMACOPHORE_FEATURES>
11
1 1 acceptor
1 2 acceptor
1 3 cation
1 3 donor
1 4 cation
1 6 donor
1 7 acceptor
5 3 8 9 10 12 rings
6 19 20 27 28 29 30 rings
6 5 6 9 10 16 22 rings
6 7 11 14 17 18 23 rings

> <PUBCHEM_HEAVY_ATOM_COUNT>
30

> <PUBCHEM_ATOM_DEF_STEREO_COUNT>
0

> <PUBCHEM_ATOM_UDEF_STEREO_COUNT>
0

> <PUBCHEM_BOND_DEF_STEREO_COUNT>
1

> <PUBCHEM_BOND_UDEF_STEREO_COUNT>
0

> <PUBCHEM_ISOTOPIC_ATOM_COUNT>
0

> <PUBCHEM_COMPONENT_COUNT>
1

> <PUBCHEM_CACTVS_TAUTO_COUNT>
-1

> <PUBCHEM_CONFORMER_ID>
0813EEF500000001

> <PUBCHEM_MMFF94_ENERGY>
84.6095

> <PUBCHEM_FEATURE_SELFOVERLAP>
55.944

> <PUBCHEM_SHAPE_FINGERPRINT>
10674148 151 18114177567065258008
10835480 77 18341618109305602622
11061554 47 18410851063074265612
11135609 99 9367051268771029761
11181472 205 18186527614506701132
11315181 36 17418099835957187115
11409948 41 15841005360876342244
11421887 21 18128822941525223529
11421887 45 18339629054639587409
12013929 2 18342460340841698706
12144603 126 18040152929835090984
13248334 5 17975976467241845923
14344974 52 17917424375941609103
14556957 393 15338850797724794777
14671636 106 9439400225201030640
15061470 23 18409730700023481956
15065858 18 18060419149728319318
15183329 4 18272373049210977723
15347591 1 18046069526199755008
15461852 350 17632574998188156030
155225 1 18408322173165345461
15604295 49 18272082851293819944
1577012 14 18408318874498729707
16087824 20 18408886200533585628
16992752 21 10159704598550228715
16992779 147 13986098590893613390
1818759 1 8214145162159963384
20609170 92 17632866330247070399
21150785 3 14405189478249936474
21362267 2 17202475771868922432
21362267 313 18408600354877729280
21585481 151 8142078767581318453
21585482 111 18188489048271542317
23523787 8 16343407412052946887
24771293 8 18335987489243770765
306946 40 17489297621615541120
3178227 256 13695868147761971390
3552219 110 13984662547541046430
4073 2 18114188570049244978
44280117 145 18196371639750384526
4461854 278 11530486623114876840
44802255 64 17418373589204945703
4516262 110 18040989614891855175
4874694 18 18343865524627929758
54039377 194 9943805594794376800
57303763 39 11386668316564062248
5937810 71 17632022940699299601
6057620 51 11815905565804252502
636775 72 18411420609422096953
636775 8 12679456513354223173
6673363 416 18201718458445111865
9663363 56 10303816476192411491
9962374 69 10952043447214453270
9980921 7 18041556950677059309
9995097 26 9223230750591762562

> <PUBCHEM_SHAPE_MULTIPOLES>
580.74
37.19
2.62
0.81
55.96
0.3
-0.06
-25.35
0.41
-4.99
-0.62
0.78
-0.05
0.6

> <PUBCHEM_SHAPE_SELFOVERLAP>
1266.413

> <PUBCHEM_SHAPE_VOLUME>
313

> <PUBCHEM_COORDINATE_TYPE>
2
5
10

$$$$
