49830848
  -OEChem-10052120443D

 61 64  0     0  0  0  0  0  0999 V2000
    2.8941    0.7899   -0.2628 O   0  0  0  0  0  0  0  0  0  0  0  0
   -3.0353    3.6623    1.4313 O   0  0  0  0  0  0  0  0  0  0  0  0
   -1.0562    4.5353    0.7327 O   0  0  0  0  0  0  0  0  0  0  0  0
   -2.5127    1.2423    0.2820 N   0  0  0  0  0  0  0  0  0  0  0  0
   -0.5285    1.8265   -0.5235 C   0  0  0  0  0  0  0  0  0  0  0  0
   -0.7763    0.4738   -0.8894 C   0  0  0  0  0  0  0  0  0  0  0  0
    0.6801    2.6102   -0.8572 C   0  0  0  0  0  0  0  0  0  0  0  0
   -2.0275    0.1321   -0.3716 C   0  0  0  0  0  0  0  0  0  0  0  0
   -1.6137    2.2714    0.1957 C   0  0  0  0  0  0  0  0  0  0  0  0
    1.6468    2.7459    0.3320 C   0  0  0  0  0  0  0  0  0  0  0  0
   -2.5946   -1.1358   -0.5425 C   0  0  0  0  0  0  0  0  0  0  0  0
   -0.0541   -0.4954   -1.6136 C   0  0  0  0  0  0  0  0  0  0  0  0
    2.1836    1.4021    0.8047 C   0  0  0  0  0  0  0  0  0  0  0  0
   -3.8913   -1.4496    0.0082 C   0  0  0  0  0  0  0  0  0  0  0  0
   -1.8599   -2.0809   -1.2640 C   0  0  0  0  0  0  0  0  0  0  0  0
   -0.6092   -1.7679   -1.7923 C   0  0  0  0  0  0  0  0  0  0  0  0
   -1.8349    3.5586    0.7774 C   0  0  0  0  0  0  0  0  0  0  0  0
   -5.0567   -1.2376   -0.7282 C   0  0  0  0  0  0  0  0  0  0  0  0
    3.9211   -0.0510    0.0799 C   0  0  0  0  0  0  0  0  0  0  0  0
   -3.9674   -1.9731    1.2988 C   0  0  0  0  0  0  0  0  0  0  0  0
    5.0268   -0.2063   -0.7559 C   0  0  0  0  0  0  0  0  0  0  0  0
    6.0627   -1.0657   -0.3898 C   0  0  0  0  0  0  0  0  0  0  0  0
   -6.2983   -1.5491   -0.1741 C   0  0  0  0  0  0  0  0  0  0  0  0
    3.8511   -0.7552    1.2820 C   0  0  0  0  0  0  0  0  0  0  0  0
   -5.0140   -0.6784   -2.1144 C   0  0  0  0  0  0  0  0  0  0  0  0
    4.8869   -1.6146    1.6482 C   0  0  0  0  0  0  0  0  0  0  0  0
   -5.2090   -2.2846    1.8530 C   0  0  0  0  0  0  0  0  0  0  0  0
    5.9927   -1.7698    0.8124 C   0  0  0  0  0  0  0  0  0  0  0  0
   -6.3744   -2.0727    1.1166 C   0  0  0  0  0  0  0  0  0  0  0  0
    5.0973    0.5531   -2.0423 C   0  0  0  0  0  0  0  0  0  0  0  0
    7.2576   -1.2489   -1.2669 C   0  0  0  0  0  0  0  0  0  0  0  0
    4.8130   -2.3671    2.9337 C   0  0  0  0  0  0  0  0  0  0  0  0
    1.2055    2.1626   -1.7095 H   0  0  0  0  0  0  0  0  0  0  0  0
    0.3922    3.6125   -1.1975 H   0  0  0  0  0  0  0  0  0  0  0  0
    2.4859    3.3755    0.0108 H   0  0  0  0  0  0  0  0  0  0  0  0
    1.1627    3.2526    1.1734 H   0  0  0  0  0  0  0  0  0  0  0  0
   -3.4041    1.2903    0.7563 H   0  0  0  0  0  0  0  0  0  0  0  0
    0.9207   -0.2709   -2.0363 H   0  0  0  0  0  0  0  0  0  0  0  0
    1.3765    0.7452    1.1453 H   0  0  0  0  0  0  0  0  0  0  0  0
    2.8460    1.6125    1.6550 H   0  0  0  0  0  0  0  0  0  0  0  0
   -2.2594   -3.0806   -1.4240 H   0  0  0  0  0  0  0  0  0  0  0  0
   -0.0568   -2.5191   -2.3506 H   0  0  0  0  0  0  0  0  0  0  0  0
   -3.0695   -2.1449    1.8881 H   0  0  0  0  0  0  0  0  0  0  0  0
   -7.2168   -1.3906   -0.7330 H   0  0  0  0  0  0  0  0  0  0  0  0
    2.9924   -0.6784    1.9429 H   0  0  0  0  0  0  0  0  0  0  0  0
   -6.0173   -0.5883   -2.5457 H   0  0  0  0  0  0  0  0  0  0  0  0
   -4.4388   -1.3310   -2.7792 H   0  0  0  0  0  0  0  0  0  0  0  0
   -4.5748    0.3244   -2.1155 H   0  0  0  0  0  0  0  0  0  0  0  0
   -5.2684   -2.6921    2.8580 H   0  0  0  0  0  0  0  0  0  0  0  0
    6.7991   -2.4393    1.1025 H   0  0  0  0  0  0  0  0  0  0  0  0
   -7.3411   -2.3152    1.5483 H   0  0  0  0  0  0  0  0  0  0  0  0
    5.9562    1.2325   -2.0369 H   0  0  0  0  0  0  0  0  0  0  0  0
    4.2093    1.1650   -2.2286 H   0  0  0  0  0  0  0  0  0  0  0  0
    5.1863   -0.1354   -2.8893 H   0  0  0  0  0  0  0  0  0  0  0  0
    7.9839   -1.9397   -0.8245 H   0  0  0  0  0  0  0  0  0  0  0  0
    7.7743   -0.2960   -1.4211 H   0  0  0  0  0  0  0  0  0  0  0  0
    6.9647   -1.6662   -2.2357 H   0  0  0  0  0  0  0  0  0  0  0  0
   -3.1597    4.5546    1.8197 H   0  0  0  0  0  0  0  0  0  0  0  0
    5.4163   -3.2806    2.8971 H   0  0  0  0  0  0  0  0  0  0  0  0
    3.7837   -2.6724    3.1507 H   0  0  0  0  0  0  0  0  0  0  0  0
    5.1768   -1.7427    3.7558 H   0  0  0  0  0  0  0  0  0  0  0  0
  1 13  1  0  0  0  0
  1 19  1  0  0  0  0
  2 17  1  0  0  0  0
  2 58  1  0  0  0  0
  3 17  2  0  0  0  0
  4  8  1  0  0  0  0
  4  9  1  0  0  0  0
  4 37  1  0  0  0  0
  5  6  1  0  0  0  0
  5  7  1  0  0  0  0
  5  9  2  0  0  0  0
  6  8  2  0  0  0  0
  6 12  1  0  0  0  0
  7 10  1  0  0  0  0
  7 33  1  0  0  0  0
  7 34  1  0  0  0  0
  8 11  1  0  0  0  0
  9 17  1  0  0  0  0
 10 13  1  0  0  0  0
 10 35  1  0  0  0  0
 10 36  1  0  0  0  0
 11 14  1  0  0  0  0
 11 15  2  0  0  0  0
 12 16  2  0  0  0  0
 12 38  1  0  0  0  0
 13 39  1  0  0  0  0
 13 40  1  0  0  0  0
 14 18  1  0  0  0  0
 14 20  2  0  0  0  0
 15 16  1  0  0  0  0
 15 41  1  0  0  0  0
 16 42  1  0  0  0  0
 18 23  2  0  0  0  0
 18 25  1  0  0  0  0
 19 21  1  0  0  0  0
 19 24  2  0  0  0  0
 20 27  1  0  0  0  0
 20 43  1  0  0  0  0
 21 22  2  0  0  0  0
 21 30  1  0  0  0  0
 22 28  1  0  0  0  0
 22 31  1  0  0  0  0
 23 29  1  0  0  0  0
 23 44  1  0  0  0  0
 24 26  1  0  0  0  0
 24 45  1  0  0  0  0
 25 46  1  0  0  0  0
 25 47  1  0  0  0  0
 25 48  1  0  0  0  0
 26 28  2  0  0  0  0
 26 32  1  0  0  0  0
 27 29  2  0  0  0  0
 27 49  1  0  0  0  0
 28 50  1  0  0  0  0
 29 51  1  0  0  0  0
 30 52  1  0  0  0  0
 30 53  1  0  0  0  0
 30 54  1  0  0  0  0
 31 55  1  0  0  0  0
 31 56  1  0  0  0  0
 31 57  1  0  0  0  0
 32 59  1  0  0  0  0
 32 60  1  0  0  0  0
 32 61  1  0  0  0  0
M  END
> <PUBCHEM_COMPOUND_CID>
49830848

> <PUBCHEM_CONFORMER_RMSD>
1

> <PUBCHEM_CONFORMER_DIVERSEORDER>
4
116
5
108
213
208
250
222
21
163
164
129
80
62
86
110
117
237
218
165
141
236
30
198
52
27
41
152
197
168
53
191
38
105
145
227
121
114
71
134
229
235
160
81
156
173
167
33
93
228
220
183
175
202
128
190
226
221
199
101
45
72
29
159
88
124
189
3
123
136
231
112
99
113
214
50
31
204
184
203
170
146
24
149
46
205
162
188
201
103
76
244
217
94
77
100
182
119
43
106
140
127
111
61
216
206
85
37
240
200
150
192
224
154
223
131
178
10
64
120
96
28
233
82
211
97
125
151
9
161
126
16
92
84
143
187
69
207
22
1
19
47
210
63
65
35
7
139
79
238
243
12
179
144
249
26
142
242
185
57
148
186
158
248
34
55
67
180
14
95
49
196
195
172
36
15
11
230
8
212
245
118
153
73
83
209
246
40
51
2
234
232
13
194
23
133
25
166
6
215
135
171
18
225
239
147
87
59
181
32
219
78
109
60
68
58
39
89
54
137
115
247
104
98
193
155
176
102
17
70
174
91
177
130
132
56
42
122
48
138
74
44
66
20
169
90
107
241
157
75

> <PUBCHEM_MMFF94_PARTIAL_CHARGES>
39
1 -0.36
12 -0.15
13 0.28
15 -0.15
16 -0.15
17 0.81
18 -0.14
19 0.08
2 -0.65
20 -0.15
21 -0.14
22 -0.14
23 -0.15
24 -0.15
25 0.14
26 -0.14
27 -0.15
28 -0.15
29 -0.15
3 -0.57
30 0.14
31 0.14
32 0.14
37 0.27
38 0.15
4 0.03
41 0.15
42 0.15
43 0.15
44 0.15
45 0.15
49 0.15
5 -0.18
50 0.15
51 0.15
58 0.5
7 0.18
8 -0.15
9 -0.24

> <PUBCHEM_EFFECTIVE_ROTOR_COUNT>
7

> <PUBCHEM_PHARMACOPHORE_FEATURES>
10
1 1 acceptor
1 2 acceptor
1 3 acceptor
1 4 cation
1 4 donor
3 2 3 17 anion
5 4 5 6 8 9 rings
6 14 18 20 23 27 29 rings
6 19 21 22 24 26 28 rings
6 6 8 11 12 15 16 rings

> <PUBCHEM_HEAVY_ATOM_COUNT>
32

> <PUBCHEM_ATOM_DEF_STEREO_COUNT>
0

> <PUBCHEM_ATOM_UDEF_STEREO_COUNT>
0

> <PUBCHEM_BOND_DEF_STEREO_COUNT>
0

> <PUBCHEM_BOND_UDEF_STEREO_COUNT>
0

> <PUBCHEM_ISOTOPIC_ATOM_COUNT>
0

> <PUBCHEM_COMPONENT_COUNT>
1

> <PUBCHEM_CACTVS_TAUTO_COUNT>
6

> <PUBCHEM_CONFORMER_ID>
02F85BC000000004

> <PUBCHEM_MMFF94_ENERGY>
89.0478

> <PUBCHEM_FEATURE_SELFOVERLAP>
50.896

> <PUBCHEM_SHAPE_FINGERPRINT>
10305334 12 17757820139742752275
10622 236 17751345197977566210
10928967 22 18336815464444377610
11456790 92 18340784732218169675
11578080 2 17058661651597502283
117089 54 18193844743630442586
11991303 11 18043807577115443845
12422481 6 17560812030390210301
12633257 1 17203046399566491178
12760667 363 18411135857495511623
12788726 201 18410298008054827810
13383661 66 16735263622936356995
13726171 33 18129965420380309928
13782708 43 17489583438065709534
14705955 166 16845014507358051826
14955137 171 18268434714630337515
19301679 30 18340776948746112823
19319366 153 17830743410446414940
20775530 9 18337099151122867628
208703 8 18261387798927465482
21033648 29 16987984004470368656
21703447 108 18339634650817801240
23559900 14 17313664988068227503
2838139 119 13398641515394755875
345986 75 18412823616228503945
3886686 26 17616813236631537339
404807 14 16662878133894751906
439807 62 17676483943203219474
44880168 125 17561362851683835022
497634 4 17676204645769445470
513202 73 18343028756895966259
56633871 153 18130507538913872231
6697151 62 18267566070458615053
9896288 288 18197783202099807490

> <PUBCHEM_SHAPE_MULTIPOLES>
635.96
16.48
4.08
2.04
9.5
4.86
0.27
-15.55
1.14
-2.57
2.26
0.9
-1.1
-1.44

> <PUBCHEM_SHAPE_SELFOVERLAP>
1394.455

> <PUBCHEM_SHAPE_VOLUME>
347.8

> <PUBCHEM_COORDINATE_TYPE>
2
5
10

$$$$
