49831022
  -OEChem-10052115183D

 22 23  0     0  0  0  0  0  0999 V2000
    2.3815    1.8529    0.0006 O   0  0  0  0  0  0  0  0  0  0  0  0
    1.4030   -0.1960    0.0000 N   0  0  0  0  0  0  0  0  0  0  0  0
    1.5757   -1.5409    0.0003 N   0  0  0  0  0  0  0  0  0  0  0  0
   -4.1280    0.2409   -0.0003 N   0  0  0  0  0  0  0  0  0  0  0  0
    0.0596    0.1597    0.0001 C   0  0  0  0  0  0  0  0  0  0  0  0
   -0.6493   -1.0408    0.0001 C   0  0  0  0  0  0  0  0  0  0  0  0
   -0.5974    1.4001   -0.0001 C   0  0  0  0  0  0  0  0  0  0  0  0
   -2.0553   -1.0245    0.0003 C   0  0  0  0  0  0  0  0  0  0  0  0
    0.3413   -2.0375   -0.0001 C   0  0  0  0  0  0  0  0  0  0  0  0
   -2.7162    0.2073    0.0000 C   0  0  0  0  0  0  0  0  0  0  0  0
   -1.9966    1.3997   -0.0001 C   0  0  0  0  0  0  0  0  0  0  0  0
    2.5268    0.6393   -0.0003 C   0  0  0  0  0  0  0  0  0  0  0  0
    3.8550   -0.0602   -0.0004 C   0  0  0  0  0  0  0  0  0  0  0  0
   -0.0560    2.3393   -0.0003 H   0  0  0  0  0  0  0  0  0  0  0  0
   -2.6134   -1.9569    0.0003 H   0  0  0  0  0  0  0  0  0  0  0  0
    0.2140   -3.1108   -0.0003 H   0  0  0  0  0  0  0  0  0  0  0  0
   -2.5179    2.3548   -0.0003 H   0  0  0  0  0  0  0  0  0  0  0  0
    3.9675   -0.6720   -0.8997 H   0  0  0  0  0  0  0  0  0  0  0  0
    3.9682   -0.6707    0.8996 H   0  0  0  0  0  0  0  0  0  0  0  0
    4.6508    0.6913   -0.0014 H   0  0  0  0  0  0  0  0  0  0  0  0
   -4.6131    1.1283   -0.0002 H   0  0  0  0  0  0  0  0  0  0  0  0
   -4.6546   -0.6226    0.0000 H   0  0  0  0  0  0  0  0  0  0  0  0
  1 12  2  0  0  0  0
  2  3  1  0  0  0  0
  2  5  1  0  0  0  0
  2 12  1  0  0  0  0
  3  9  2  0  0  0  0
  4 10  1  0  0  0  0
  4 21  1  0  0  0  0
  4 22  1  0  0  0  0
  5  6  2  0  0  0  0
  5  7  1  0  0  0  0
  6  8  1  0  0  0  0
  6  9  1  0  0  0  0
  7 11  2  0  0  0  0
  7 14  1  0  0  0  0
  8 10  2  0  0  0  0
  8 15  1  0  0  0  0
  9 16  1  0  0  0  0
 10 11  1  0  0  0  0
 11 17  1  0  0  0  0
 12 13  1  0  0  0  0
 13 18  1  0  0  0  0
 13 19  1  0  0  0  0
 13 20  1  0  0  0  0
M  END
> <PUBCHEM_COMPOUND_CID>
49831022

> <PUBCHEM_CONFORMER_RMSD>
0.4

> <PUBCHEM_CONFORMER_DIVERSEORDER>
1
5
2
4
3

> <PUBCHEM_MMFF94_PARTIAL_CHARGES>
18
1 -0.57
10 0.1
11 -0.15
12 0.52
13 0.06
14 0.15
15 0.15
16 0.15
17 0.15
2 0.56
21 0.4
22 0.4
3 -0.71
4 -0.9
5 -0.15
7 -0.15
8 -0.15
9 0.14

> <PUBCHEM_EFFECTIVE_ROTOR_COUNT>
1

> <PUBCHEM_PHARMACOPHORE_FEATURES>
6
1 1 acceptor
1 3 acceptor
1 4 cation
1 4 donor
5 2 3 5 6 9 rings
6 5 6 7 8 10 11 rings

> <PUBCHEM_HEAVY_ATOM_COUNT>
13

> <PUBCHEM_ATOM_DEF_STEREO_COUNT>
0

> <PUBCHEM_ATOM_UDEF_STEREO_COUNT>
0

> <PUBCHEM_BOND_DEF_STEREO_COUNT>
0

> <PUBCHEM_BOND_UDEF_STEREO_COUNT>
0

> <PUBCHEM_ISOTOPIC_ATOM_COUNT>
0

> <PUBCHEM_COMPONENT_COUNT>
1

> <PUBCHEM_CACTVS_TAUTO_COUNT>
1

> <PUBCHEM_CONFORMER_ID>
02F85C6E00000001

> <PUBCHEM_MMFF94_ENERGY>
38.0286

> <PUBCHEM_FEATURE_SELFOVERLAP>
30.534

> <PUBCHEM_SHAPE_FINGERPRINT>
10608611 8 18337106778668456085
10967382 1 18410575067520204454
11132069 177 18341043107499531232
11471102 20 18338793421178897301
12897270 3 18411136930857468941
13380535 76 18410011026613811779
13897977 150 18410853300049937653
14325111 11 18410574023980431488
15536298 74 18272088236860366790
15775835 57 18413110567103653200
16945 1 18410573955165918279
17846911 113 18412537730109253393
193761 8 17906453221012210244
19973954 147 18195528086692610737
20201158 50 18410293592654257171
20645476 183 17678756741385925318
20645477 70 18268142059985579079
21028194 46 18334577944958386916
21501502 16 18194682562271904649
21524375 3 18410573989599659098
23235685 24 18408879642049179605
2334 1 17978511158631541696
23402539 116 18271515468273837166
23402655 69 18269542872290888549
23463225 33 18334292046392039296
23552423 10 18192993725396944667
2748010 2 18122627424733639406
369184 2 16515677862124610281
449060 62 18341334409820272993
5084963 1 18202284710320535392
528886 8 18411132554291069179
53812653 166 18343016713723188096
7364860 26 18198061383016281246

> <PUBCHEM_SHAPE_MULTIPOLES>
246.72
5.43
1.84
0.59
0.23
0.21
0
-1.16
0
0.3
0
-0.01
0
0

> <PUBCHEM_SHAPE_SELFOVERLAP>
537.152

> <PUBCHEM_SHAPE_VOLUME>
136.8

> <PUBCHEM_COORDINATE_TYPE>
2
5
10

$$$$
