6620116
  -OEChem-10052115143D

 38 41  0     0  0  0  0  0  0999 V2000
   -7.7671    0.7235    0.0443 Cl  0  0  0  0  0  0  0  0  0  0  0  0
    2.1220   -1.1671    0.0028 N   0  0  0  0  0  0  0  0  0  0  0  0
   -1.4074   -1.1826   -0.0323 N   0  0  0  0  0  0  0  0  0  0  0  0
    0.8616   -0.6676   -0.0124 N   0  0  0  0  0  0  0  0  0  0  0  0
    4.3117   -1.2750    0.0252 N   0  0  0  0  0  0  0  0  0  0  0  0
    3.8168   -2.5633    0.0268 N   0  0  0  0  0  0  0  0  0  0  0  0
    3.2858   -0.4543    0.0109 C   0  0  0  0  0  0  0  0  0  0  0  0
   -1.7892    0.1924   -0.0428 C   0  0  0  0  0  0  0  0  0  0  0  0
    2.5030   -2.4877    0.0130 C   0  0  0  0  0  0  0  0  0  0  0  0
   -0.0882   -1.5747   -0.0178 C   0  0  0  0  0  0  0  0  0  0  0  0
    3.3485    0.9874    0.0039 C   0  0  0  0  0  0  0  0  0  0  0  0
   -3.2867    0.3240   -0.0212 C   0  0  0  0  0  0  0  0  0  0  0  0
    1.4806   -3.4543    0.0074 C   0  0  0  0  0  0  0  0  0  0  0  0
    0.2052   -3.0514   -0.0078 C   0  0  0  0  0  0  0  0  0  0  0  0
    3.3906    1.6782   -1.2070 C   0  0  0  0  0  0  0  0  0  0  0  0
    3.3680    1.6892    1.2088 C   0  0  0  0  0  0  0  0  0  0  0  0
   -3.9881    0.3710   -1.2188 C   0  0  0  0  0  0  0  0  0  0  0  0
   -3.9505    0.3983    1.1966 C   0  0  0  0  0  0  0  0  0  0  0  0
   -5.3774    0.4945   -1.1985 C   0  0  0  0  0  0  0  0  0  0  0  0
   -5.3397    0.5216    1.2170 C   0  0  0  0  0  0  0  0  0  0  0  0
    3.4523    3.0718   -1.2128 C   0  0  0  0  0  0  0  0  0  0  0  0
    3.4296    3.0827    1.2031 C   0  0  0  0  0  0  0  0  0  0  0  0
   -6.0532    0.5698    0.0194 C   0  0  0  0  0  0  0  0  0  0  0  0
    3.4718    3.7739   -0.0078 C   0  0  0  0  0  0  0  0  0  0  0  0
   -1.3916    0.6962   -0.9332 H   0  0  0  0  0  0  0  0  0  0  0  0
   -1.3668    0.7185    0.8231 H   0  0  0  0  0  0  0  0  0  0  0  0
   -2.1394   -1.8883   -0.0398 H   0  0  0  0  0  0  0  0  0  0  0  0
    1.7330   -4.5084    0.0151 H   0  0  0  0  0  0  0  0  0  0  0  0
   -0.6208   -3.7521   -0.0127 H   0  0  0  0  0  0  0  0  0  0  0  0
   -3.4718    0.3114   -2.1729 H   0  0  0  0  0  0  0  0  0  0  0  0
   -3.4046    0.3601    2.1352 H   0  0  0  0  0  0  0  0  0  0  0  0
    3.3761    1.1451   -2.1547 H   0  0  0  0  0  0  0  0  0  0  0  0
    3.3357    1.1648    2.1610 H   0  0  0  0  0  0  0  0  0  0  0  0
   -5.9204    0.5305   -2.1395 H   0  0  0  0  0  0  0  0  0  0  0  0
   -5.8530    0.5789    2.1735 H   0  0  0  0  0  0  0  0  0  0  0  0
    3.4851    3.6101   -2.1555 H   0  0  0  0  0  0  0  0  0  0  0  0
    3.4447    3.6296    2.1413 H   0  0  0  0  0  0  0  0  0  0  0  0
    3.5197    4.8589   -0.0123 H   0  0  0  0  0  0  0  0  0  0  0  0
  1 23  1  0  0  0  0
  2  4  1  0  0  0  0
  2  7  1  0  0  0  0
  2  9  1  0  0  0  0
  3  8  1  0  0  0  0
  3 10  1  0  0  0  0
  3 27  1  0  0  0  0
  4 10  2  0  0  0  0
  5  6  1  0  0  0  0
  5  7  2  0  0  0  0
  6  9  2  0  0  0  0
  7 11  1  0  0  0  0
  8 12  1  0  0  0  0
  8 25  1  0  0  0  0
  8 26  1  0  0  0  0
  9 13  1  0  0  0  0
 10 14  1  0  0  0  0
 11 15  2  0  0  0  0
 11 16  1  0  0  0  0
 12 17  2  0  0  0  0
 12 18  1  0  0  0  0
 13 14  2  0  0  0  0
 13 28  1  0  0  0  0
 14 29  1  0  0  0  0
 15 21  1  0  0  0  0
 15 32  1  0  0  0  0
 16 22  2  0  0  0  0
 16 33  1  0  0  0  0
 17 19  1  0  0  0  0
 17 30  1  0  0  0  0
 18 20  2  0  0  0  0
 18 31  1  0  0  0  0
 19 23  2  0  0  0  0
 19 34  1  0  0  0  0
 20 23  1  0  0  0  0
 20 35  1  0  0  0  0
 21 24  2  0  0  0  0
 21 36  1  0  0  0  0
 22 24  1  0  0  0  0
 22 37  1  0  0  0  0
 24 38  1  0  0  0  0
M  END
> <PUBCHEM_COMPOUND_CID>
6620116

> <PUBCHEM_CONFORMER_RMSD>
0.8

> <PUBCHEM_CONFORMER_DIVERSEORDER>
1
16
12
2
18
6
10
7
17
13
19
14
11
8
15
3
9
4
5

> <PUBCHEM_MMFF94_PARTIAL_CHARGES>
36
1 -0.18
10 0.49
11 0.05
12 -0.14
13 -0.11
14 -0.14
15 -0.15
16 -0.15
17 -0.15
18 -0.15
19 -0.15
2 0.51
20 -0.15
21 -0.15
22 -0.15
23 0.18
24 -0.15
27 0.4
28 0.15
29 0.15
3 -0.82
30 0.15
31 0.15
32 0.15
33 0.15
34 0.15
35 0.15
36 0.15
37 0.15
38 0.15
4 -0.65
5 -0.34
6 -0.34
7 0.13
8 0.51
9 0.14

> <PUBCHEM_EFFECTIVE_ROTOR_COUNT>
4

> <PUBCHEM_PHARMACOPHORE_FEATURES>
8
1 3 donor
3 2 5 7 cation
3 2 6 9 cation
3 3 4 10 cation
5 2 5 6 7 9 rings
6 11 15 16 21 22 24 rings
6 12 17 18 19 20 23 rings
6 2 4 9 10 13 14 rings

> <PUBCHEM_HEAVY_ATOM_COUNT>
24

> <PUBCHEM_ATOM_DEF_STEREO_COUNT>
0

> <PUBCHEM_ATOM_UDEF_STEREO_COUNT>
0

> <PUBCHEM_BOND_DEF_STEREO_COUNT>
0

> <PUBCHEM_BOND_UDEF_STEREO_COUNT>
0

> <PUBCHEM_ISOTOPIC_ATOM_COUNT>
0

> <PUBCHEM_COMPONENT_COUNT>
1

> <PUBCHEM_CACTVS_TAUTO_COUNT>
2

> <PUBCHEM_CONFORMER_ID>
006503D400000001

> <PUBCHEM_MMFF94_ENERGY>
60.5532

> <PUBCHEM_FEATURE_SELFOVERLAP>
43.212

> <PUBCHEM_SHAPE_FINGERPRINT>
10162869 55 18341598327303169191
10165383 225 18261119608062731260
10411042 1 17906453230204401998
10483366 6 18263101997890264364
10615611 76 17774460278140980977
10937287 8 18194965381805519940
1200032 147 17968668241047757924
12035758 1 18191280777213401800
12166972 35 18201155430206197162
12236239 1 17702941432047817803
12616971 3 18130780128051049191
13533116 47 18411702067408478709
13583140 156 16879043339527580091
13878862 14 18263346067163181645
13955234 65 18336824195722286147
13965767 371 17971171854841285500
14170010 4 18412542094571330178
14251764 75 18120659286194196652
14429380 56 18337660959216342973
14528608 73 18343020008548510517
14848178 96 18340205296835080152
14849402 71 18410858759290974576
151778 21 18335707195103556132
15322687 12 18341614862436836816
15342168 16 18336265751189103501
1768 85 18410299150732588361
17810953 82 18409729594776749596
17844677 252 18338239241965653157
19427546 62 18409449193916636659
1979834 28 18186803608082210565
20157964 124 18410011031530848981
21033648 29 17676758795767231581
21033650 10 15697460856829840811
21049683 118 17968361455474981347
21133410 127 17967810612871792300
21344244 78 17974830801704986634
21860390 5 18200597995259803094
22122407 14 18199481982805792105
23559900 14 18408604734188715363
23845131 108 18262519311417723587
3178227 256 18334862675763349674
335352 9 18411703184627379686
397830 11 17968955183954900817
44317340 157 18412823586812331959
44555599 121 18128543666030568393
474 4 18411135857068172187
5104073 3 18334856147471082387
513532 50 17632301190055070884
53794403 172 18335987579116258996
57359948 33 13110965314393131115
57527573 199 17487313071335478464
6034566 193 17900549178747730077
7808743 9 17831304174593869532
9849439 229 18124588940936276696
9999458 23 18334577919347326166

> <PUBCHEM_SHAPE_MULTIPOLES>
470.87
14.79
4.11
1.11
29.31
0.34
0
-8.5
0.11
-8.32
0.01
0.29
-0.71
-0.06

> <PUBCHEM_SHAPE_SELFOVERLAP>
1031.193

> <PUBCHEM_SHAPE_VOLUME>
255.4

> <PUBCHEM_COORDINATE_TYPE>
2
5
10

$$$$
