49830872
  -OEChem-10052115183D

 23 25  0     0  0  0  0  0  0999 V2000
    5.3200   -0.2549   -0.0668 F   0  0  0  0  0  0  0  0  0  0  0  0
   -2.2965   -0.6158   -0.1065 N   0  0  0  0  0  0  0  0  0  0  0  0
   -0.9600   -0.8651   -0.1369 N   0  0  0  0  0  0  0  0  0  0  0  0
   -4.2262    0.4872    0.0572 N   0  0  0  0  0  0  0  0  0  0  0  0
    3.4298    1.0079   -0.4283 N   0  0  0  0  0  0  0  0  0  0  0  0
   -0.2176    0.1899    0.0406 C   0  0  0  0  0  0  0  0  0  0  0  0
   -2.9142    0.6037    0.0923 C   0  0  0  0  0  0  0  0  0  0  0  0
    1.2611    0.0395    0.0231 C   0  0  0  0  0  0  0  0  0  0  0  0
   -0.7478    1.5676    0.2840 C   0  0  0  0  0  0  0  0  0  0  0  0
   -2.0772    1.7220    0.2983 C   0  0  0  0  0  0  0  0  0  0  0  0
   -3.2872   -1.5469   -0.2745 C   0  0  0  0  0  0  0  0  0  0  0  0
    1.8658   -1.1483    0.4193 C   0  0  0  0  0  0  0  0  0  0  0  0
   -4.4634   -0.8440   -0.1703 C   0  0  0  0  0  0  0  0  0  0  0  0
    2.0802    1.0783   -0.3885 C   0  0  0  0  0  0  0  0  0  0  0  0
    3.2516   -1.2591    0.3925 C   0  0  0  0  0  0  0  0  0  0  0  0
    3.9818   -0.1621   -0.0357 C   0  0  0  0  0  0  0  0  0  0  0  0
   -0.0940    2.4074    0.4770 H   0  0  0  0  0  0  0  0  0  0  0  0
   -2.5202    2.6944    0.4820 H   0  0  0  0  0  0  0  0  0  0  0  0
   -3.0735   -2.5923   -0.4484 H   0  0  0  0  0  0  0  0  0  0  0  0
    1.2772   -1.9963    0.7583 H   0  0  0  0  0  0  0  0  0  0  0  0
   -5.4695   -1.2296   -0.2475 H   0  0  0  0  0  0  0  0  0  0  0  0
    1.6924    2.0266   -0.7448 H   0  0  0  0  0  0  0  0  0  0  0  0
    3.7445   -2.1747    0.6983 H   0  0  0  0  0  0  0  0  0  0  0  0
  1 16  1  0  0  0  0
  2  3  1  0  0  0  0
  2  7  1  0  0  0  0
  2 11  1  0  0  0  0
  3  6  2  0  0  0  0
  4  7  2  0  0  0  0
  4 13  1  0  0  0  0
  5 14  1  0  0  0  0
  5 16  2  0  0  0  0
  6  8  1  0  0  0  0
  6  9  1  0  0  0  0
  7 10  1  0  0  0  0
  8 12  1  0  0  0  0
  8 14  2  0  0  0  0
  9 10  2  0  0  0  0
  9 17  1  0  0  0  0
 10 18  1  0  0  0  0
 11 13  2  0  0  0  0
 11 19  1  0  0  0  0
 12 15  2  0  0  0  0
 12 20  1  0  0  0  0
 13 21  1  0  0  0  0
 14 22  1  0  0  0  0
 15 16  1  0  0  0  0
 15 23  1  0  0  0  0
M  END
> <PUBCHEM_COMPOUND_CID>
49830872

> <PUBCHEM_CONFORMER_RMSD>
0.6

> <PUBCHEM_CONFORMER_DIVERSEORDER>
1
3
2
4

> <PUBCHEM_MMFF94_PARTIAL_CHARGES>
23
1 -0.19
10 -0.11
11 -0.3
12 -0.15
13 0.08
14 0.16
15 -0.15
16 0.5
17 0.15
18 0.15
19 0.15
2 0.51
20 0.15
21 0.15
22 0.15
23 0.15
3 -0.65
4 -0.57
5 -0.62
6 0.35
7 0.14
8 0.09
9 -0.14

> <PUBCHEM_EFFECTIVE_ROTOR_COUNT>
1

> <PUBCHEM_PHARMACOPHORE_FEATURES>
6
1 3 acceptor
1 5 acceptor
3 2 4 7 cation
5 2 4 7 11 13 rings
6 2 3 6 7 9 10 rings
6 5 8 12 14 15 16 rings

> <PUBCHEM_HEAVY_ATOM_COUNT>
16

> <PUBCHEM_ATOM_DEF_STEREO_COUNT>
0

> <PUBCHEM_ATOM_UDEF_STEREO_COUNT>
0

> <PUBCHEM_BOND_DEF_STEREO_COUNT>
0

> <PUBCHEM_BOND_UDEF_STEREO_COUNT>
0

> <PUBCHEM_ISOTOPIC_ATOM_COUNT>
0

> <PUBCHEM_COMPONENT_COUNT>
1

> <PUBCHEM_CACTVS_TAUTO_COUNT>
1

> <PUBCHEM_CONFORMER_ID>
02F85BD800000001

> <PUBCHEM_MMFF94_ENERGY>
39.0668

> <PUBCHEM_FEATURE_SELFOVERLAP>
30.582

> <PUBCHEM_SHAPE_FINGERPRINT>
10616163 171 18412826910373967671
11046707 91 18202561813178930631
11806522 49 18335420175397464498
12107183 9 17688870830721427322
12236239 1 18333732407779275396
13167823 11 18408885126843943786
13288520 33 18342740702023882158
13760787 5 18408605894346375557
14144814 61 18410292480268218600
14576447 43 18335699459914824726
15196674 1 18411138064713140677
15242433 33 18408886230803441703
15442244 35 18120935010419966962
15536298 74 18341893038920861800
17802600 8 18410289211930364776
17804303 29 18202563999338370377
17834072 33 18408608080495337332
17862501 102 18334851697916144018
18186145 218 17313379054350726835
18522853 276 18412543206509112248
19050596 39 18410012134762457264
19422 9 18410577266527609851
200 152 18409727365503580435
20279233 1 16200153192192532493
20510252 161 18059577927862667169
20645477 70 18261388910395541410
21267235 1 18410302414390709898
221490 88 18190186873800187730
2255824 54 17967536779094274746
22646028 1 18334573534005816466
22646028 28 18410009931402140202
2297311 6 18060149725612118380
23402539 116 18342168973162589263
23402655 69 18261109630130918156
23463225 33 18410573963798031503
23557571 272 17988931028749718872
23559900 14 18341324574182011800
26918003 58 18040154032708132875
2871803 45 18333726914173465790
3312278 4 18409168826851032315
4214541 1 18410855421484284989
474 4 17605000389193698164
5104073 3 18411418414413585088
57096353 35 18335987561772580212
67856867 119 18263359351819086228
7364860 26 18270397329737460240
77779 3 18410013229936874094
8809292 202 18262240027121844299
9709674 26 18410863143962473518
9981440 41 17325211122696293592

> <PUBCHEM_SHAPE_MULTIPOLES>
302.07
9.13
1.6
0.65
2.71
0.17
0.01
-1.91
-0.47
-0.59
0.07
0.06
0.01
-0.56

> <PUBCHEM_SHAPE_SELFOVERLAP>
674.453

> <PUBCHEM_SHAPE_VOLUME>
161.3

> <PUBCHEM_COORDINATE_TYPE>
2
5
10

$$$$
