25167971
  -OEChem-10052120443D

 47 51  0     0  0  0  0  0  0999 V2000
    1.3933    2.8108    1.7323 F   0  0  0  0  0  0  0  0  0  0  0  0
   -2.0813    4.5788   -0.9439 F   0  0  0  0  0  0  0  0  0  0  0  0
   -2.6058    0.9486    0.4665 O   0  0  0  0  0  0  0  0  0  0  0  0
    3.0214   -1.0014    0.0563 N   0  0  0  0  0  0  0  0  0  0  0  0
    3.2920    1.1905   -0.0021 N   0  0  0  0  0  0  0  0  0  0  0  0
   -1.6435   -1.6956   -0.0404 N   0  0  0  0  0  0  0  0  0  0  0  0
   -0.5887   -0.8613    0.1351 N   0  0  0  0  0  0  0  0  0  0  0  0
   -3.6868   -2.4889   -0.0386 N   0  0  0  0  0  0  0  0  0  0  0  0
   -2.8539   -3.4459   -0.5825 N   0  0  0  0  0  0  0  0  0  0  0  0
    3.6454   -2.2961    0.2178 C   0  0  0  0  0  0  0  0  0  0  0  0
    5.0250   -1.9111    0.7881 C   0  0  0  0  0  0  0  0  0  0  0  0
    5.2719   -0.4377    0.3676 C   0  0  0  0  0  0  0  0  0  0  0  0
    3.8949    0.0383    0.1387 C   0  0  0  0  0  0  0  0  0  0  0  0
    1.7778   -0.5344   -0.1380 C   0  0  0  0  0  0  0  0  0  0  0  0
    1.9625    0.8383   -0.1764 C   0  0  0  0  0  0  0  0  0  0  0  0
    0.5460   -1.3551   -0.2726 C   0  0  0  0  0  0  0  0  0  0  0  0
    0.9211    1.8030   -0.3699 C   0  0  0  0  0  0  0  0  0  0  0  0
   -3.4028   -0.1891    0.8909 C   0  0  0  0  0  0  0  0  0  0  0  0
   -2.9470   -1.4509    0.2801 C   0  0  0  0  0  0  0  0  0  0  0  0
    0.7130   -2.7226   -0.8627 C   0  0  0  0  0  0  0  0  0  0  0  0
   -1.6304   -2.9610   -0.5796 C   0  0  0  0  0  0  0  0  0  0  0  0
   -0.3866   -3.4754   -0.9959 C   0  0  0  0  0  0  0  0  0  0  0  0
   -4.8617    0.1759    0.4990 C   0  0  0  0  0  0  0  0  0  0  0  0
   -3.2939   -0.1973    2.4412 C   0  0  0  0  0  0  0  0  0  0  0  0
    0.6695    2.7695    0.6039 C   0  0  0  0  0  0  0  0  0  0  0  0
    0.1582    1.7739   -1.5372 C   0  0  0  0  0  0  0  0  0  0  0  0
   -0.3451    3.7069    0.4102 C   0  0  0  0  0  0  0  0  0  0  0  0
   -0.8563    2.7113   -1.7308 C   0  0  0  0  0  0  0  0  0  0  0  0
   -1.1080    3.6778   -0.7570 C   0  0  0  0  0  0  0  0  0  0  0  0
    3.7503   -2.7536   -0.7693 H   0  0  0  0  0  0  0  0  0  0  0  0
    3.0656   -2.9164    0.9043 H   0  0  0  0  0  0  0  0  0  0  0  0
    5.8217   -2.5818    0.4522 H   0  0  0  0  0  0  0  0  0  0  0  0
    4.9891   -1.9686    1.8841 H   0  0  0  0  0  0  0  0  0  0  0  0
    5.8526   -0.3918   -0.5590 H   0  0  0  0  0  0  0  0  0  0  0  0
    5.7899    0.1210    1.1510 H   0  0  0  0  0  0  0  0  0  0  0  0
    1.6610   -3.0785   -1.2332 H   0  0  0  0  0  0  0  0  0  0  0  0
   -0.3348   -4.4626   -1.4406 H   0  0  0  0  0  0  0  0  0  0  0  0
   -5.1602    1.1383    0.9301 H   0  0  0  0  0  0  0  0  0  0  0  0
   -5.5697   -0.5901    0.8331 H   0  0  0  0  0  0  0  0  0  0  0  0
   -4.9519    0.2760   -0.5892 H   0  0  0  0  0  0  0  0  0  0  0  0
   -3.6239    0.7563    2.8687 H   0  0  0  0  0  0  0  0  0  0  0  0
   -2.2526   -0.3396    2.7536 H   0  0  0  0  0  0  0  0  0  0  0  0
   -3.8942   -1.0038    2.8757 H   0  0  0  0  0  0  0  0  0  0  0  0
    0.3419    1.0339   -2.3127 H   0  0  0  0  0  0  0  0  0  0  0  0
   -2.9508    1.7430    0.9087 H   0  0  0  0  0  0  0  0  0  0  0  0
   -0.5415    4.4591    1.1683 H   0  0  0  0  0  0  0  0  0  0  0  0
   -1.4500    2.6896   -2.6398 H   0  0  0  0  0  0  0  0  0  0  0  0
  1 25  1  0  0  0  0
  2 29  1  0  0  0  0
  3 18  1  0  0  0  0
  3 45  1  0  0  0  0
  4 10  1  0  0  0  0
  4 13  1  0  0  0  0
  4 14  1  0  0  0  0
  5 13  2  0  0  0  0
  5 15  1  0  0  0  0
  6  7  1  0  0  0  0
  6 19  1  0  0  0  0
  6 21  1  0  0  0  0
  7 16  2  0  0  0  0
  8  9  1  0  0  0  0
  8 19  2  0  0  0  0
  9 21  2  0  0  0  0
 10 11  1  0  0  0  0
 10 30  1  0  0  0  0
 10 31  1  0  0  0  0
 11 12  1  0  0  0  0
 11 32  1  0  0  0  0
 11 33  1  0  0  0  0
 12 13  1  0  0  0  0
 12 34  1  0  0  0  0
 12 35  1  0  0  0  0
 14 15  2  0  0  0  0
 14 16  1  0  0  0  0
 15 17  1  0  0  0  0
 16 20  1  0  0  0  0
 17 25  2  0  0  0  0
 17 26  1  0  0  0  0
 18 19  1  0  0  0  0
 18 23  1  0  0  0  0
 18 24  1  0  0  0  0
 20 22  2  0  0  0  0
 20 36  1  0  0  0  0
 21 22  1  0  0  0  0
 22 37  1  0  0  0  0
 23 38  1  0  0  0  0
 23 39  1  0  0  0  0
 23 40  1  0  0  0  0
 24 41  1  0  0  0  0
 24 42  1  0  0  0  0
 24 43  1  0  0  0  0
 25 27  1  0  0  0  0
 26 28  2  0  0  0  0
 26 44  1  0  0  0  0
 27 29  2  0  0  0  0
 27 46  1  0  0  0  0
 28 29  1  0  0  0  0
 28 47  1  0  0  0  0
M  END
> <PUBCHEM_COMPOUND_CID>
25167971

> <PUBCHEM_CONFORMER_RMSD>
0.8

> <PUBCHEM_CONFORMER_DIVERSEORDER>
1
35
8
27
9
33
38
36
28
31
30
32
10
2
7
12
26
14
23
37
11
34
17
29
4
39
15
25
3
6
20
16
19
13
22
21
5
24
18

> <PUBCHEM_MMFF94_PARTIAL_CHARGES>
32
1 -0.19
10 0.26
12 0.18
13 0.01
14 -0.24
15 0.17
16 0.52
17 0.05
18 0.46
19 0.01
2 -0.19
20 -0.14
21 0.14
22 -0.11
25 0.19
26 -0.15
27 -0.15
28 -0.15
29 0.19
3 -0.68
36 0.15
37 0.15
4 0.05
44 0.15
45 0.4
46 0.15
47 0.15
5 -0.57
6 0.51
7 -0.65
8 -0.34
9 -0.34

> <PUBCHEM_EFFECTIVE_ROTOR_COUNT>
3.6

> <PUBCHEM_PHARMACOPHORE_FEATURES>
12
1 3 acceptor
1 3 donor
1 7 acceptor
3 18 23 24 hydrophobe
3 4 5 13 cation
3 6 8 19 cation
3 6 9 21 cation
5 4 10 11 12 13 rings
5 4 5 13 14 15 rings
5 6 8 9 19 21 rings
6 17 25 26 27 28 29 rings
6 6 7 16 20 21 22 rings

> <PUBCHEM_HEAVY_ATOM_COUNT>
29

> <PUBCHEM_ATOM_DEF_STEREO_COUNT>
0

> <PUBCHEM_ATOM_UDEF_STEREO_COUNT>
0

> <PUBCHEM_BOND_DEF_STEREO_COUNT>
0

> <PUBCHEM_BOND_UDEF_STEREO_COUNT>
0

> <PUBCHEM_ISOTOPIC_ATOM_COUNT>
0

> <PUBCHEM_COMPONENT_COUNT>
1

> <PUBCHEM_CACTVS_TAUTO_COUNT>
1

> <PUBCHEM_CONFORMER_ID>
0180086300000001

> <PUBCHEM_MMFF94_ENERGY>
71.9557

> <PUBCHEM_FEATURE_SELFOVERLAP>
63.815

> <PUBCHEM_SHAPE_FINGERPRINT>
10688039 33 18113626655345965197
10708813 3 18126010609222525377
11578080 2 17916280884081000392
12156800 1 17543576012972168713
12166972 35 18197773513392449103
12422481 6 17976002880809759545
12633257 1 18130518482279032601
12788726 201 18333444336208045938
13004483 165 18334292050370950360
13140716 1 18410293635688728890
13402501 40 18263641771651522989
13692114 37 17978201908534487773
138480 1 15745000076007556740
13965767 371 17983601635570501635
14068700 675 17844513595551969871
14117953 113 18341055121208698303
14790565 3 17615693268649764364
14955137 171 18051449349899032563
15420108 30 17626936831720707822
15927050 60 17548128936321237589
16728300 4 17463395127886041803
17980427 23 17917996126488975799
19591789 44 17979642238733693350
20587220 46 14499837774950707992
20600515 1 17845392044764341984
20715895 44 17978773938618407479
20764821 26 17546732551730863019
2132832 1 17769917293178839311
22113638 7 18340772641025049703
22182313 1 17983017743942295510
23419403 2 17487306413713708112
23559900 14 17760076711328536091
3380486 145 18408610253632711823
350125 39 18125447651180602139
352729 6 17907291062358662804
4409770 3 18263914441364605916
474 4 17256234372664684150
6992083 37 18340497758491095363
7097593 13 18122348135948510718
9862522 239 18269546144217509390

> <PUBCHEM_SHAPE_MULTIPOLES>
546.5
7.86
5.43
1.33
4.75
2.82
0.3
-4.18
3.06
-3.05
-1.72
-0.82
0.49
0.21

> <PUBCHEM_SHAPE_SELFOVERLAP>
1225.21

> <PUBCHEM_SHAPE_VOLUME>
293.2

> <PUBCHEM_COORDINATE_TYPE>
2
5
10

$$$$
