49830491
  -OEChem-10052115183D

 42 45  0     0  0  0  0  0  0999 V2000
    3.1632    2.4178   -0.0580 O   0  0  0  0  0  0  0  0  0  0  0  0
   -5.5176   -2.1025    0.3383 N   0  0  0  0  0  0  0  0  0  0  0  0
    2.3595    0.5900   -1.2371 N   0  0  0  0  0  0  0  0  0  0  0  0
   -4.7088    0.0179    1.1464 N   0  0  0  0  0  0  0  0  0  0  0  0
   -2.5573    0.6614    0.1857 C   0  0  0  0  0  0  0  0  0  0  0  0
   -1.4966    1.6407    0.1231 C   0  0  0  0  0  0  0  0  0  0  0  0
   -3.5550   -1.4145   -0.4754 C   0  0  0  0  0  0  0  0  0  0  0  0
   -2.4928   -0.5021   -0.5791 C   0  0  0  0  0  0  0  0  0  0  0  0
   -4.5976   -1.0886    0.3872 C   0  0  0  0  0  0  0  0  0  0  0  0
    0.8349    2.1823   -0.2066 C   0  0  0  0  0  0  0  0  0  0  0  0
   -0.1890    1.2369   -0.1474 C   0  0  0  0  0  0  0  0  0  0  0  0
   -1.7801    2.9900    0.3344 C   0  0  0  0  0  0  0  0  0  0  0  0
   -3.6592    0.8606    1.0066 C   0  0  0  0  0  0  0  0  0  0  0  0
   -3.8773   -2.6706   -1.0538 C   0  0  0  0  0  0  0  0  0  0  0  0
    3.6479    0.0313   -1.5791 C   0  0  0  0  0  0  0  0  0  0  0  0
    0.5513    3.5317    0.0047 C   0  0  0  0  0  0  0  0  0  0  0  0
    2.1982    1.7619   -0.4891 C   0  0  0  0  0  0  0  0  0  0  0  0
   -0.7562    3.9354    0.2755 C   0  0  0  0  0  0  0  0  0  0  0  0
    4.1348   -0.9362   -0.5395 C   0  0  0  0  0  0  0  0  0  0  0  0
   -5.0903   -3.0691   -0.5349 C   0  0  0  0  0  0  0  0  0  0  0  0
    4.9083   -0.4815    0.5284 C   0  0  0  0  0  0  0  0  0  0  0  0
    3.8136   -2.2898   -0.6416 C   0  0  0  0  0  0  0  0  0  0  0  0
    5.3607   -1.3804    1.4944 C   0  0  0  0  0  0  0  0  0  0  0  0
    4.2660   -3.1888    0.3244 C   0  0  0  0  0  0  0  0  0  0  0  0
    5.0394   -2.7339    1.3926 C   0  0  0  0  0  0  0  0  0  0  0  0
   -1.6806   -0.7185   -1.2650 H   0  0  0  0  0  0  0  0  0  0  0  0
    0.0446    0.1807   -0.2448 H   0  0  0  0  0  0  0  0  0  0  0  0
   -2.7872    3.3540    0.5188 H   0  0  0  0  0  0  0  0  0  0  0  0
   -3.7497    1.7331    1.6489 H   0  0  0  0  0  0  0  0  0  0  0  0
   -3.2901   -3.2266   -1.7717 H   0  0  0  0  0  0  0  0  0  0  0  0
    3.5443   -0.4671   -2.5497 H   0  0  0  0  0  0  0  0  0  0  0  0
    4.3726    0.8427   -1.7152 H   0  0  0  0  0  0  0  0  0  0  0  0
   -6.3794   -2.1322    0.8651 H   0  0  0  0  0  0  0  0  0  0  0  0
    1.3339    4.2844   -0.0431 H   0  0  0  0  0  0  0  0  0  0  0  0
   -0.9779    4.9871    0.4325 H   0  0  0  0  0  0  0  0  0  0  0  0
    1.5486    0.1066   -1.6083 H   0  0  0  0  0  0  0  0  0  0  0  0
   -5.6863   -3.9538   -0.7092 H   0  0  0  0  0  0  0  0  0  0  0  0
    5.1697    0.5692    0.6193 H   0  0  0  0  0  0  0  0  0  0  0  0
    3.2100   -2.6560   -1.4679 H   0  0  0  0  0  0  0  0  0  0  0  0
    5.9637   -1.0266    2.3256 H   0  0  0  0  0  0  0  0  0  0  0  0
    4.0156   -4.2426    0.2453 H   0  0  0  0  0  0  0  0  0  0  0  0
    5.3916   -3.4338    2.1447 H   0  0  0  0  0  0  0  0  0  0  0  0
  1 17  2  0  0  0  0
  2  9  1  0  0  0  0
  2 20  1  0  0  0  0
  2 33  1  0  0  0  0
  3 15  1  0  0  0  0
  3 17  1  0  0  0  0
  3 36  1  0  0  0  0
  4  9  2  0  0  0  0
  4 13  1  0  0  0  0
  5  6  1  0  0  0  0
  5  8  1  0  0  0  0
  5 13  2  0  0  0  0
  6 11  2  0  0  0  0
  6 12  1  0  0  0  0
  7  8  2  0  0  0  0
  7  9  1  0  0  0  0
  7 14  1  0  0  0  0
  8 26  1  0  0  0  0
 10 11  1  0  0  0  0
 10 16  2  0  0  0  0
 10 17  1  0  0  0  0
 11 27  1  0  0  0  0
 12 18  2  0  0  0  0
 12 28  1  0  0  0  0
 13 29  1  0  0  0  0
 14 20  2  0  0  0  0
 14 30  1  0  0  0  0
 15 19  1  0  0  0  0
 15 31  1  0  0  0  0
 15 32  1  0  0  0  0
 16 18  1  0  0  0  0
 16 34  1  0  0  0  0
 18 35  1  0  0  0  0
 19 21  2  0  0  0  0
 19 22  1  0  0  0  0
 20 37  1  0  0  0  0
 21 23  1  0  0  0  0
 21 38  1  0  0  0  0
 22 24  2  0  0  0  0
 22 39  1  0  0  0  0
 23 25  2  0  0  0  0
 23 40  1  0  0  0  0
 24 25  1  0  0  0  0
 24 41  1  0  0  0  0
 25 42  1  0  0  0  0
M  END
> <PUBCHEM_COMPOUND_CID>
49830491

> <PUBCHEM_CONFORMER_RMSD>
0.8

> <PUBCHEM_CONFORMER_DIVERSEORDER>
11
22
47
46
7
10
28
45
21
38
44
25
34
35
23
43
41
29
39
26
33
14
2
37
48
27
9
8
18
6
13
42
36
1
31
24
15
19
16
5
17
20
40
12
3
32
4
30

> <PUBCHEM_MMFF94_PARTIAL_CHARGES>
37
1 -0.57
10 0.09
11 -0.15
12 -0.15
13 0.16
14 -0.15
15 0.44
16 -0.15
17 0.54
18 -0.15
19 -0.14
2 0.03
20 -0.3
21 -0.15
22 -0.15
23 -0.15
24 -0.15
25 -0.15
26 0.15
27 0.15
28 0.15
29 0.15
3 -0.73
30 0.15
33 0.27
34 0.15
35 0.15
36 0.37
37 0.15
38 0.15
39 0.15
4 -0.57
40 0.15
41 0.15
42 0.15
8 -0.15
9 0.11

> <PUBCHEM_EFFECTIVE_ROTOR_COUNT>
5

> <PUBCHEM_PHARMACOPHORE_FEATURES>
8
1 1 acceptor
1 2 donor
1 3 donor
3 2 4 9 cation
5 2 7 9 14 20 rings
6 19 21 22 23 24 25 rings
6 4 5 7 8 9 13 rings
6 6 10 11 12 16 18 rings

> <PUBCHEM_HEAVY_ATOM_COUNT>
25

> <PUBCHEM_ATOM_DEF_STEREO_COUNT>
0

> <PUBCHEM_ATOM_UDEF_STEREO_COUNT>
0

> <PUBCHEM_BOND_DEF_STEREO_COUNT>
0

> <PUBCHEM_BOND_UDEF_STEREO_COUNT>
0

> <PUBCHEM_ISOTOPIC_ATOM_COUNT>
0

> <PUBCHEM_COMPONENT_COUNT>
1

> <PUBCHEM_CACTVS_TAUTO_COUNT>
4

> <PUBCHEM_CONFORMER_ID>
02F85A5B0000000B

> <PUBCHEM_MMFF94_ENERGY>
67.6618

> <PUBCHEM_FEATURE_SELFOVERLAP>
40.71

> <PUBCHEM_SHAPE_FINGERPRINT>
10074138 170 17842562838206558433
10319688 67 16988016981719911147
10622 236 17969216742599073562
10928967 22 18338253607877228518
12107183 9 18270698506303989153
12174731 88 17973718069819849810
12422481 6 17987812795380481707
12553582 1 18342466927849739124
12990986 174 18339358557260265540
13383661 66 16813508285412112803
13692114 37 17981604871590735209
13828863 39 16055165078453520984
14251751 18 18412258411506786442
14347332 77 18410572920791099471
14394314 77 18410859862691706369
14429380 30 18335139778621803330
14844126 61 18192711137738907313
14848178 5 18261384516954818278
14866123 147 18268151951327079073
14910700 183 17765982180187467208
15250474 111 18341051920941559143
15537594 2 18264790825273059382
17492 89 18338518530719653086
17857418 61 18410011052520655215
19319366 153 17974857469245948548
1979834 28 17560814220444353655
20567600 70 18337668732463654370
20775530 9 18341897436756142869
20843269 155 18408880716239851418
21033648 29 14835862676654269465
21478907 32 18410575080785349757
23366157 5 18049167962409397933
314194 84 18264216970318610745
3421961 26 18269555107824714689
345986 75 17916880122144540065
44062 13 18041556910692492069
444735 79 18339905105403386794
463206 1 18334861657423700723
5104073 3 18130800009438935865
56633871 153 18270129993856131659
59025328 239 17095240294471284334
613672 6 18272363135862093079
66674814 147 17313386674108514130
6697151 62 18058154189887108013
7970288 3 18409445903502189747
79837 15 17551239467073655600

> <PUBCHEM_SHAPE_MULTIPOLES>
493.68
13.34
4.93
1.17
2.54
1.69
0.03
-15.5
2.76
-0.86
0.13
0.87
-0.43
-2.14

> <PUBCHEM_SHAPE_SELFOVERLAP>
1101.024

> <PUBCHEM_SHAPE_VOLUME>
261.3

> <PUBCHEM_COORDINATE_TYPE>
2
5
10

$$$$
