22337591
  -OEChem-10052115183D

 34 36  0     0  0  0  0  0  0999 V2000
   -6.3681   -0.1113    2.4481 Cl  0  0  0  0  0  0  0  0  0  0  0  0
   -0.2904    1.5739   -1.0538 O   0  0  0  0  0  0  0  0  0  0  0  0
    1.1007   -0.2937   -0.7235 N   0  0  0  0  0  0  0  0  0  0  0  0
    5.4030   -0.9717    0.8437 N   0  0  0  0  0  0  0  0  0  0  0  0
   -1.0379   -0.5528   -1.5660 N   0  0  0  0  0  0  0  0  0  0  0  0
    4.9179   -2.1842    0.5281 N   0  0  0  0  0  0  0  0  0  0  0  0
    3.3790   -0.5406    0.1182 C   0  0  0  0  0  0  0  0  0  0  0  0
    2.2755    0.2619   -0.2165 C   0  0  0  0  0  0  0  0  0  0  0  0
    4.5288    0.0578    0.6212 C   0  0  0  0  0  0  0  0  0  0  0  0
   -2.3512   -0.1624   -2.0245 C   0  0  0  0  0  0  0  0  0  0  0  0
    2.3739    1.6463   -0.0297 C   0  0  0  0  0  0  0  0  0  0  0  0
    4.6477    1.4357    0.8153 C   0  0  0  0  0  0  0  0  0  0  0  0
   -3.3552   -0.1494   -0.9082 C   0  0  0  0  0  0  0  0  0  0  0  0
    3.6864   -1.9178    0.0871 C   0  0  0  0  0  0  0  0  0  0  0  0
    3.5406    2.2212    0.4776 C   0  0  0  0  0  0  0  0  0  0  0  0
   -0.0867    0.3633   -1.1055 C   0  0  0  0  0  0  0  0  0  0  0  0
   -4.0856   -1.3006   -0.6134 C   0  0  0  0  0  0  0  0  0  0  0  0
   -3.5561    1.0136   -0.1647 C   0  0  0  0  0  0  0  0  0  0  0  0
   -5.0169   -1.2889    0.4248 C   0  0  0  0  0  0  0  0  0  0  0  0
   -4.4874    1.0254    0.8735 C   0  0  0  0  0  0  0  0  0  0  0  0
   -5.2179   -0.1258    1.1682 C   0  0  0  0  0  0  0  0  0  0  0  0
   -2.2950    0.8243   -2.4993 H   0  0  0  0  0  0  0  0  0  0  0  0
   -2.6519   -0.8724   -2.8033 H   0  0  0  0  0  0  0  0  0  0  0  0
    1.5783    2.3423   -0.2579 H   0  0  0  0  0  0  0  0  0  0  0  0
    1.1028   -1.3047   -0.8313 H   0  0  0  0  0  0  0  0  0  0  0  0
    5.5546    1.8806    1.2093 H   0  0  0  0  0  0  0  0  0  0  0  0
    3.0642   -2.7394   -0.2388 H   0  0  0  0  0  0  0  0  0  0  0  0
    3.5921    3.2988    0.6137 H   0  0  0  0  0  0  0  0  0  0  0  0
    6.3453   -0.9145    1.2093 H   0  0  0  0  0  0  0  0  0  0  0  0
   -0.8063   -1.5414   -1.5580 H   0  0  0  0  0  0  0  0  0  0  0  0
   -3.9365   -2.2134   -1.1842 H   0  0  0  0  0  0  0  0  0  0  0  0
   -2.9970    1.9188   -0.3849 H   0  0  0  0  0  0  0  0  0  0  0  0
   -5.5787   -2.1934    0.6435 H   0  0  0  0  0  0  0  0  0  0  0  0
   -4.6343    1.9390    1.4439 H   0  0  0  0  0  0  0  0  0  0  0  0
  1 21  1  0  0  0  0
  2 16  2  0  0  0  0
  3  8  1  0  0  0  0
  3 16  1  0  0  0  0
  3 25  1  0  0  0  0
  4  6  1  0  0  0  0
  4  9  1  0  0  0  0
  4 29  1  0  0  0  0
  5 10  1  0  0  0  0
  5 16  1  0  0  0  0
  5 30  1  0  0  0  0
  6 14  2  0  0  0  0
  7  8  1  0  0  0  0
  7  9  2  0  0  0  0
  7 14  1  0  0  0  0
  8 11  2  0  0  0  0
  9 12  1  0  0  0  0
 10 13  1  0  0  0  0
 10 22  1  0  0  0  0
 10 23  1  0  0  0  0
 11 15  1  0  0  0  0
 11 24  1  0  0  0  0
 12 15  2  0  0  0  0
 12 26  1  0  0  0  0
 13 17  2  0  0  0  0
 13 18  1  0  0  0  0
 14 27  1  0  0  0  0
 15 28  1  0  0  0  0
 17 19  1  0  0  0  0
 17 31  1  0  0  0  0
 18 20  2  0  0  0  0
 18 32  1  0  0  0  0
 19 21  2  0  0  0  0
 19 33  1  0  0  0  0
 20 21  1  0  0  0  0
 20 34  1  0  0  0  0
M  END
> <PUBCHEM_COMPOUND_CID>
22337591

> <PUBCHEM_CONFORMER_RMSD>
0.8

> <PUBCHEM_CONFORMER_DIVERSEORDER>
2
25
11
31
23
21
24
28
19
5
30
17
18
15
26
4
22
27
29
10
35
16
32
3
36
33
1
34
7
20
13
14
37
6
38
8
12
9

> <PUBCHEM_MMFF94_PARTIAL_CHARGES>
31
1 -0.18
10 0.44
11 -0.15
12 -0.15
13 -0.14
14 0.14
15 -0.15
16 0.69
17 -0.15
18 -0.15
19 -0.15
2 -0.57
20 -0.15
21 0.18
24 0.15
25 0.37
26 0.15
27 0.15
28 0.15
29 0.27
3 -0.55
30 0.37
31 0.15
32 0.15
33 0.15
34 0.15
4 0.3
5 -0.73
6 -0.71
8 0.12
9 -0.15

> <PUBCHEM_EFFECTIVE_ROTOR_COUNT>
5

> <PUBCHEM_PHARMACOPHORE_FEATURES>
8
1 2 acceptor
1 3 donor
1 4 donor
1 5 donor
1 6 acceptor
5 4 6 7 9 14 rings
6 13 17 18 19 20 21 rings
6 7 8 9 11 12 15 rings

> <PUBCHEM_HEAVY_ATOM_COUNT>
21

> <PUBCHEM_ATOM_DEF_STEREO_COUNT>
0

> <PUBCHEM_ATOM_UDEF_STEREO_COUNT>
0

> <PUBCHEM_BOND_DEF_STEREO_COUNT>
0

> <PUBCHEM_BOND_UDEF_STEREO_COUNT>
0

> <PUBCHEM_ISOTOPIC_ATOM_COUNT>
0

> <PUBCHEM_COMPONENT_COUNT>
1

> <PUBCHEM_CACTVS_TAUTO_COUNT>
8

> <PUBCHEM_CONFORMER_ID>
0154D83700000002

> <PUBCHEM_MMFF94_ENERGY>
45.0417

> <PUBCHEM_FEATURE_SELFOVERLAP>
40.736

> <PUBCHEM_SHAPE_FINGERPRINT>
105312 117 14333406757576377757
10912923 1 17774430693757301871
10981352 41 17169285921596984419
11089746 13 11887955441337400892
11370993 144 18408602531133716687
11545043 162 17749100059024946005
11552529 35 17984411112462879303
11796584 16 16301173989050254386
12107183 9 17984424031644806163
12596602 18 18272089426655985547
12616971 3 18131630088576820893
12633257 1 17203888578571943625
12670546 177 8070033272059522701
13103583 49 18342462543141868435
13675066 3 18260540117472691701
13914758 101 18336256874425307949
13955234 65 18040997397472757412
14251732 14 14996291313923772083
14251758 9 17274827908969817052
14251764 30 16805609157232129891
14341114 176 18411985753807874649
14341114 328 17917716824728540099
14849402 71 18270112561096119760
14950920 106 18413393150714696299
15238133 3 16630806621242222618
15348495 7 18408325514433273473
15463212 79 13398626126790730533
15475509 84 17917146083847642592
15880784 105 18334294301329127651
17844677 252 18335136479495875028
17870717 6 14779262012948269967
1813 80 17167580496618895140
18222031 100 15719393953593320071
19078846 21 16844998113425515264
193927 3 16805608079353444607
20621476 21 17312829251171392995
20739085 24 18411421713381387348
21065198 48 18201716301463694031
21315759 148 17749107785634324520
21623969 137 18114177541026162226
23016692 55 15068624898797748183
23402655 69 8574435352362060750
23559900 14 13696148570054983407
268830 7 17703495692670657996
2748736 6 16558480665237778969
2838139 119 13542187130740455459
312425 54 18261683636021165467
314173 85 16805317799773087157
341906 21 15482669099916901614
351380 3 14779269726450915121
3737641 26 17897442796422211882
38570 142 18053116291785760748
5104073 3 18059849610055454058
5352402 22 18186238433039726311
5758199 1 18198898301145595768
5924683 9 18201151178732243903
602551 16 16443061716396030824
8863177 126 18113900455395771650
960060 61 11169910597630418374

> <PUBCHEM_SHAPE_MULTIPOLES>
408.25
15.48
1.9
1.63
6.12
0.06
-0.1
-1.69
-9.7
-2.34
-0.23
2.49
-0.06
-0.92

> <PUBCHEM_SHAPE_SELFOVERLAP>
881.657

> <PUBCHEM_SHAPE_VOLUME>
224.3

> <PUBCHEM_COORDINATE_TYPE>
2
5
10

$$$$
