49830712
  -OEChem-10052120443D

 36 39  0     0  0  0  0  0  0999 V2000
    2.5481    3.3176   -0.4593 O   0  0  0  0  0  0  0  0  0  0  0  0
   -4.9049   -1.8799   -0.6074 O   0  0  0  0  0  0  0  0  0  0  0  0
    1.3140   -0.0383    0.0482 N   0  0  0  0  0  0  0  0  0  0  0  0
    3.6984    1.3436   -0.2510 N   0  0  0  0  0  0  0  0  0  0  0  0
    1.3135    1.3317   -0.1346 C   0  0  0  0  0  0  0  0  0  0  0  0
    2.5154   -0.7758    0.0884 C   0  0  0  0  0  0  0  0  0  0  0  0
   -0.8157    0.6154    0.0636 C   0  0  0  0  0  0  0  0  0  0  0  0
    0.0177   -0.4770    0.1696 C   0  0  0  0  0  0  0  0  0  0  0  0
   -0.0010    1.7551   -0.1277 C   0  0  0  0  0  0  0  0  0  0  0  0
    3.7115   -0.0563   -0.0652 C   0  0  0  0  0  0  0  0  0  0  0  0
    2.5308    2.0989   -0.2955 C   0  0  0  0  0  0  0  0  0  0  0  0
   -2.2432    0.5144    0.1478 C   0  0  0  0  0  0  0  0  0  0  0  0
    2.5365   -2.1590    0.2715 C   0  0  0  0  0  0  0  0  0  0  0  0
    4.9339   -0.7293   -0.0353 C   0  0  0  0  0  0  0  0  0  0  0  0
   -2.8870   -0.6483   -0.2758 C   0  0  0  0  0  0  0  0  0  0  0  0
    3.7646   -2.8231    0.3001 C   0  0  0  0  0  0  0  0  0  0  0  0
   -2.9883    1.5794    0.6541 C   0  0  0  0  0  0  0  0  0  0  0  0
    4.9572   -2.1126    0.1474 C   0  0  0  0  0  0  0  0  0  0  0  0
   -4.2760   -0.7461   -0.1930 C   0  0  0  0  0  0  0  0  0  0  0  0
   -4.3773    1.4817    0.7366 C   0  0  0  0  0  0  0  0  0  0  0  0
   -5.0212    0.3189    0.3133 C   0  0  0  0  0  0  0  0  0  0  0  0
   -6.3270   -1.9112   -0.4957 C   0  0  0  0  0  0  0  0  0  0  0  0
   -0.2059   -1.5230    0.3323 H   0  0  0  0  0  0  0  0  0  0  0  0
   -0.3245    2.7802   -0.2526 H   0  0  0  0  0  0  0  0  0  0  0  0
    4.5900    1.8190   -0.3575 H   0  0  0  0  0  0  0  0  0  0  0  0
    1.6310   -2.7440    0.3931 H   0  0  0  0  0  0  0  0  0  0  0  0
    5.8706   -0.1910   -0.1525 H   0  0  0  0  0  0  0  0  0  0  0  0
   -2.3363   -1.4893   -0.6904 H   0  0  0  0  0  0  0  0  0  0  0  0
    3.7929   -3.8999    0.4419 H   0  0  0  0  0  0  0  0  0  0  0  0
   -2.5126    2.4943    0.9984 H   0  0  0  0  0  0  0  0  0  0  0  0
    5.9070   -2.6394    0.1711 H   0  0  0  0  0  0  0  0  0  0  0  0
   -4.9567    2.3108    1.1325 H   0  0  0  0  0  0  0  0  0  0  0  0
   -6.1018    0.3103    0.4058 H   0  0  0  0  0  0  0  0  0  0  0  0
   -6.6592   -2.8850   -0.8701 H   0  0  0  0  0  0  0  0  0  0  0  0
   -6.7971   -1.1491   -1.1264 H   0  0  0  0  0  0  0  0  0  0  0  0
   -6.6502   -1.8432    0.5486 H   0  0  0  0  0  0  0  0  0  0  0  0
  1 11  2  0  0  0  0
  2 19  1  0  0  0  0
  2 22  1  0  0  0  0
  3  5  1  0  0  0  0
  3  6  1  0  0  0  0
  3  8  1  0  0  0  0
  4 10  1  0  0  0  0
  4 11  1  0  0  0  0
  4 25  1  0  0  0  0
  5  9  2  0  0  0  0
  5 11  1  0  0  0  0
  6 10  1  0  0  0  0
  6 13  2  0  0  0  0
  7  8  2  0  0  0  0
  7  9  1  0  0  0  0
  7 12  1  0  0  0  0
  8 23  1  0  0  0  0
  9 24  1  0  0  0  0
 10 14  2  0  0  0  0
 12 15  2  0  0  0  0
 12 17  1  0  0  0  0
 13 16  1  0  0  0  0
 13 26  1  0  0  0  0
 14 18  1  0  0  0  0
 14 27  1  0  0  0  0
 15 19  1  0  0  0  0
 15 28  1  0  0  0  0
 16 18  2  0  0  0  0
 16 29  1  0  0  0  0
 17 20  2  0  0  0  0
 17 30  1  0  0  0  0
 18 31  1  0  0  0  0
 19 21  2  0  0  0  0
 20 21  1  0  0  0  0
 20 32  1  0  0  0  0
 21 33  1  0  0  0  0
 22 34  1  0  0  0  0
 22 35  1  0  0  0  0
 22 36  1  0  0  0  0
M  END
> <PUBCHEM_COMPOUND_CID>
49830712

> <PUBCHEM_CONFORMER_RMSD>
0.6

> <PUBCHEM_CONFORMER_DIVERSEORDER>
1
3
4
2

> <PUBCHEM_MMFF94_PARTIAL_CHARGES>
33
1 -0.57
10 0.12
11 0.71
12 0.05
13 -0.15
14 -0.15
15 -0.15
16 -0.15
17 -0.15
18 -0.15
19 0.08
2 -0.36
20 -0.15
21 -0.15
22 0.28
23 0.15
24 0.15
25 0.37
26 0.15
27 0.15
28 0.15
29 0.15
3 0.33
30 0.15
31 0.15
32 0.15
33 0.15
4 -0.55
5 -0.24
6 -0.02
7 -0.05
8 -0.3
9 -0.15

> <PUBCHEM_EFFECTIVE_ROTOR_COUNT>
2

> <PUBCHEM_PHARMACOPHORE_FEATURES>
8
1 1 acceptor
1 2 acceptor
1 3 cation
1 4 donor
5 3 5 7 8 9 rings
6 12 15 17 19 20 21 rings
6 3 4 5 6 10 11 rings
6 6 10 13 14 16 18 rings

> <PUBCHEM_HEAVY_ATOM_COUNT>
22

> <PUBCHEM_ATOM_DEF_STEREO_COUNT>
0

> <PUBCHEM_ATOM_UDEF_STEREO_COUNT>
0

> <PUBCHEM_BOND_DEF_STEREO_COUNT>
0

> <PUBCHEM_BOND_UDEF_STEREO_COUNT>
0

> <PUBCHEM_ISOTOPIC_ATOM_COUNT>
0

> <PUBCHEM_COMPONENT_COUNT>
1

> <PUBCHEM_CACTVS_TAUTO_COUNT>
2

> <PUBCHEM_CONFORMER_ID>
02F85B3800000001

> <PUBCHEM_MMFF94_ENERGY>
67.5038

> <PUBCHEM_FEATURE_SELFOVERLAP>
40.723

> <PUBCHEM_SHAPE_FINGERPRINT>
10595046 47 18340770446386704877
10616163 171 18342741857655545119
10622 236 18200290209372186983
11405975 8 18341336613228524265
11806522 49 18408323255211949002
12107183 9 18052826845138128609
12236239 1 18201721738639160913
12403259 226 18409443670140424605
12553582 1 18191014613093974818
12596602 18 17632576041791122330
12839892 36 17632858620753951599
12916754 54 18409446990677080437
13009979 54 18059301967386587841
13073987 5 18343021120802894841
13167823 11 18341894099835591783
13533116 47 18340486776597004691
13862211 1 18334854975113782602
13955234 65 18268428117085895712
14341114 176 18342182120057573153
14347332 77 18411978066596915895
14576447 43 18410293610098026382
14767858 380 18188227429154825422
14790565 3 18047200923639454524
15196674 1 18411700976233253027
15250474 111 18343015627545374855
15442244 35 18339083679005441377
15788980 27 18187086122424623353
15927050 60 18053102015629985796
17492 89 18411419531559229459
17818456 19 17986400992322797977
17834072 33 18411139147329515029
17844677 252 18411706478297518209
17857418 61 18412542102808005615
1813 80 17531252716607500332
18222031 100 18337953385958718354
18681886 176 18272649065363636178
19141452 34 18267869385069673513
200 152 18343019999673726297
20028762 73 18343297054919177838
20281475 54 18411980247955128801
20612939 158 18260833717105298316
20645477 70 18260824933891558674
21065198 48 18342742927223402633
21267235 1 18412270527377633823
21709351 56 18409725141064085861
221490 88 18334584580514099898
22224240 67 18340759451824406552
22393880 68 17895460463325545711
22950370 63 18338802191512924926
23522609 53 18120970280713241364
23559900 14 18340759391024782337
23622692 118 18342451548094045631
25147074 1 18342752818543764865
3004659 81 18333725827995067835
312423 11 18412553123688753941
314194 84 18261682471552453330
335352 9 18266179431524419965
3421961 26 18410290290315159976
4073 2 18114468962988927123
4214541 1 18411982425762121201
46194498 28 17458622371294884805
465052 167 18343586239351057286
5104073 3 18273501186901374561
559249 180 18340765945529926087
602551 16 15769484443347958501
6025842 7 18263926708129047428
633830 44 17240208716112856225
67856867 119 18341893025772345865
7495541 125 17632292415077857753
7970288 3 18192989310255844050
9709674 26 18334582364580078483
9981440 41 17761210320817804792

> <PUBCHEM_SHAPE_MULTIPOLES>
431.05
12.87
2.96
0.71
9.86
0.27
-0.03
-7.61
0.37
-1.91
0.21
0.28
0.02
-1.52

> <PUBCHEM_SHAPE_SELFOVERLAP>
971.97

> <PUBCHEM_SHAPE_VOLUME>
227.5

> <PUBCHEM_COORDINATE_TYPE>
2
5
10

$$$$
