766949
  -OEChem-10052120443D

 40 43  0     0  0  0  0  0  0999 V2000
    2.0621   -1.5076    0.4539 S   0  0  0  0  0  0  0  0  0  0  0  0
   -0.6572   -1.9469    0.9729 O   0  0  0  0  0  0  0  0  0  0  0  0
    0.0919    0.2283    0.4592 N   0  0  0  0  0  0  0  0  0  0  0  0
    1.9382    3.5015   -0.4383 N   0  0  0  0  0  0  0  0  0  0  0  0
    6.2155    0.1919   -0.1421 C   0  0  0  0  0  0  0  0  0  0  0  0
    6.0237   -1.2666   -0.5831 C   0  0  0  0  0  0  0  0  0  0  0  0
    4.9966    1.0566   -0.5000 C   0  0  0  0  0  0  0  0  0  0  0  0
    4.8122   -1.9159    0.1046 C   0  0  0  0  0  0  0  0  0  0  0  0
    3.7102    0.3748   -0.1499 C   0  0  0  0  0  0  0  0  0  0  0  0
    3.6420   -0.9828    0.0997 C   0  0  0  0  0  0  0  0  0  0  0  0
    2.4244    0.9861   -0.0527 C   0  0  0  0  0  0  0  0  0  0  0  0
    1.4397    0.0771    0.2698 C   0  0  0  0  0  0  0  0  0  0  0  0
   -0.8743   -0.7536    0.7920 C   0  0  0  0  0  0  0  0  0  0  0  0
   -2.2791   -0.2808    0.9038 C   0  0  0  0  0  0  0  0  0  0  0  0
    2.1559    2.3754   -0.2657 C   0  0  0  0  0  0  0  0  0  0  0  0
   -3.1333   -0.2749   -0.1933 C   0  0  0  0  0  0  0  0  0  0  0  0
   -4.4577    0.1894   -0.0113 C   0  0  0  0  0  0  0  0  0  0  0  0
   -2.6746    0.1483    2.1582 C   0  0  0  0  0  0  0  0  0  0  0  0
   -2.7272   -0.7112   -1.4650 C   0  0  0  0  0  0  0  0  0  0  0  0
   -4.8640    0.6256    1.2604 C   0  0  0  0  0  0  0  0  0  0  0  0
   -3.9771    0.6045    2.3373 C   0  0  0  0  0  0  0  0  0  0  0  0
   -5.3371    0.2038   -1.1062 C   0  0  0  0  0  0  0  0  0  0  0  0
   -3.6141   -0.6899   -2.5417 C   0  0  0  0  0  0  0  0  0  0  0  0
   -4.9166   -0.2332   -2.3627 C   0  0  0  0  0  0  0  0  0  0  0  0
    7.1118    0.6110   -0.6130 H   0  0  0  0  0  0  0  0  0  0  0  0
    6.3801    0.2194    0.9428 H   0  0  0  0  0  0  0  0  0  0  0  0
    6.9254   -1.8477   -0.3591 H   0  0  0  0  0  0  0  0  0  0  0  0
    5.8866   -1.2955   -1.6718 H   0  0  0  0  0  0  0  0  0  0  0  0
    5.0017    1.2600   -1.5781 H   0  0  0  0  0  0  0  0  0  0  0  0
    5.0767    2.0201    0.0160 H   0  0  0  0  0  0  0  0  0  0  0  0
    5.0709   -2.1542    1.1437 H   0  0  0  0  0  0  0  0  0  0  0  0
    4.5684   -2.8573   -0.4006 H   0  0  0  0  0  0  0  0  0  0  0  0
   -0.2533    1.1779    0.3386 H   0  0  0  0  0  0  0  0  0  0  0  0
   -1.9916    0.1357    3.0029 H   0  0  0  0  0  0  0  0  0  0  0  0
   -1.7194   -1.0762   -1.6479 H   0  0  0  0  0  0  0  0  0  0  0  0
   -5.8774    0.9864    1.4234 H   0  0  0  0  0  0  0  0  0  0  0  0
   -4.3041    0.9447    3.3156 H   0  0  0  0  0  0  0  0  0  0  0  0
   -6.3597    0.5566   -0.9893 H   0  0  0  0  0  0  0  0  0  0  0  0
   -3.2877   -1.0301   -3.5201 H   0  0  0  0  0  0  0  0  0  0  0  0
   -5.6066   -0.2169   -3.2014 H   0  0  0  0  0  0  0  0  0  0  0  0
  1 10  1  0  0  0  0
  1 12  1  0  0  0  0
  2 13  2  0  0  0  0
  3 12  1  0  0  0  0
  3 13  1  0  0  0  0
  3 33  1  0  0  0  0
  4 15  3  0  0  0  0
  5  6  1  0  0  0  0
  5  7  1  0  0  0  0
  5 25  1  0  0  0  0
  5 26  1  0  0  0  0
  6  8  1  0  0  0  0
  6 27  1  0  0  0  0
  6 28  1  0  0  0  0
  7  9  1  0  0  0  0
  7 29  1  0  0  0  0
  7 30  1  0  0  0  0
  8 10  1  0  0  0  0
  8 31  1  0  0  0  0
  8 32  1  0  0  0  0
  9 10  2  0  0  0  0
  9 11  1  0  0  0  0
 11 12  2  0  0  0  0
 11 15  1  0  0  0  0
 13 14  1  0  0  0  0
 14 16  1  0  0  0  0
 14 18  2  0  0  0  0
 16 17  1  0  0  0  0
 16 19  2  0  0  0  0
 17 20  1  0  0  0  0
 17 22  2  0  0  0  0
 18 21  1  0  0  0  0
 18 34  1  0  0  0  0
 19 23  1  0  0  0  0
 19 35  1  0  0  0  0
 20 21  2  0  0  0  0
 20 36  1  0  0  0  0
 21 37  1  0  0  0  0
 22 24  1  0  0  0  0
 22 38  1  0  0  0  0
 23 24  2  0  0  0  0
 23 39  1  0  0  0  0
 24 40  1  0  0  0  0
M  END
> <PUBCHEM_COMPOUND_CID>
766949

> <PUBCHEM_CONFORMER_RMSD>
0.6

> <PUBCHEM_CONFORMER_DIVERSEORDER>
2
9
11
5
13
14
6
12
8
1
10
3
7
4

> <PUBCHEM_MMFF94_PARTIAL_CHARGES>
28
1 -0.08
10 -0.14
11 0.02
12 0.1
13 0.54
14 0.09
15 0.54
18 -0.15
19 -0.15
2 -0.57
20 -0.15
21 -0.15
22 -0.15
23 -0.15
24 -0.15
3 -0.49
33 0.37
34 0.15
35 0.15
36 0.15
37 0.15
38 0.15
39 0.15
4 -0.56
40 0.15
7 0.18
8 0.18
9 -0.18

> <PUBCHEM_EFFECTIVE_ROTOR_COUNT>
3.8

> <PUBCHEM_PHARMACOPHORE_FEATURES>
7
1 2 acceptor
1 3 donor
1 4 acceptor
5 1 9 10 11 12 rings
6 14 16 17 18 20 21 rings
6 16 17 19 22 23 24 rings
6 5 6 7 8 9 10 rings

> <PUBCHEM_HEAVY_ATOM_COUNT>
24

> <PUBCHEM_ATOM_DEF_STEREO_COUNT>
0

> <PUBCHEM_ATOM_UDEF_STEREO_COUNT>
0

> <PUBCHEM_BOND_DEF_STEREO_COUNT>
0

> <PUBCHEM_BOND_UDEF_STEREO_COUNT>
0

> <PUBCHEM_ISOTOPIC_ATOM_COUNT>
0

> <PUBCHEM_COMPONENT_COUNT>
1

> <PUBCHEM_CACTVS_TAUTO_COUNT>
3

> <PUBCHEM_CONFORMER_ID>
000BB3E500000002

> <PUBCHEM_MMFF94_ENERGY>
63.6428

> <PUBCHEM_FEATURE_SELFOVERLAP>
35.605

> <PUBCHEM_SHAPE_FINGERPRINT>
10366900 7 17458332031890796453
11089746 13 17917994997271123840
11315181 36 17275383209359727987
11497681 19 17828218910326945683
11545043 162 16660652881220669153
11796584 16 15769506326639049454
12166972 35 18059569221869122937
12236239 1 17917993867130332650
12390115 104 16226601867848980405
12403259 415 17458065984014574073
12596602 18 16630520739972171826
12616971 3 18060146457120939697
13134695 92 18408324397863537340
13402501 40 17530959172661762269
13583140 156 17458346372586359035
13590594 115 18411421678937726904
13782708 43 17386018294166444155
14251751 18 15769768078545830630
14347329 18 16443893977820934669
15081414 286 18334023804610923092
15183329 4 18341610404413757838
15788980 27 17418377995234709418
15806764 133 17240490233738429861
17349148 13 17989209256530596282
17357779 13 18186516592587021428
17844677 252 15575008290031126356
19489759 90 16056881308197611147
200 152 18202281402937313099
20511986 3 17774710983592102866
20645477 70 18260830363274111674
21033648 144 18337388374067690652
21033648 29 17458337580556253405
21033650 10 16700366103339703368
21641784 216 17823440214250284236
21728266 224 16702296836962434255
21792961 116 17458911440771065778
221357 26 18261100855460089228
2297311 6 15647066953653132459
23402539 116 18272937102464689288
23557571 272 16009040444734441091
23559900 14 18338232769164997848
23569914 2 15650398632661844252
23569943 247 18125444103496216746
24771293 8 18202279248035440392
3004659 81 17703777154946700231
4169191 19 18266462195376889352
5326457 24 17346320341304974086
559249 180 17203327771828107207
57724786 102 18041573532158470341
59755656 520 18409455786881184683
602551 16 15985100825217551607
67856867 119 17203319074424524168
6823239 73 16153427285291826060
7471813 234 17988640813583457864
7808743 9 14851878124053250959
9849439 229 14565307924966584159
9862886 166 15410892967923368335
9971528 1 18342453755823631240

> <PUBCHEM_SHAPE_MULTIPOLES>
481.93
14.55
1.97
1.9
7.13
0.55
-0.24
-2.75
-2.44
-0.02
-0.71
-1.63
0.25
-3.65

> <PUBCHEM_SHAPE_SELFOVERLAP>
1055.894

> <PUBCHEM_SHAPE_VOLUME>
260.8

> <PUBCHEM_COORDINATE_TYPE>
2
5
10

$$$$
