49830624
  -OEChem-10062121543D

 32 34  0     0  0  0  0  0  0999 V2000
   -2.6757    3.3351   -0.0026 I   0  0  0  0  0  0  0  0  0  0  0  0
    5.6833   -0.2959   -0.0115 O   0  0  0  0  0  0  0  0  0  0  0  0
   -0.0108    0.2080    0.0011 N   0  0  0  0  0  0  0  0  0  0  0  0
   -0.3091    1.5206    0.0006 N   0  0  0  0  0  0  0  0  0  0  0  0
   -1.1226   -1.9428    0.0010 N   0  0  0  0  0  0  0  0  0  0  0  0
   -3.5502   -1.7034   -0.0006 N   0  0  0  0  0  0  0  0  0  0  0  0
   -4.6461    0.4067   -0.0023 N   0  0  0  0  0  0  0  0  0  0  0  0
    1.4428   -0.2291    0.0023 C   0  0  0  0  0  0  0  0  0  0  0  0
    2.1805    0.2334   -1.2668 C   0  0  0  0  0  0  0  0  0  0  0  0
    2.1795    0.2358    1.2710 C   0  0  0  0  0  0  0  0  0  0  0  0
    3.6385   -0.2187   -1.2589 C   0  0  0  0  0  0  0  0  0  0  0  0
    3.6379   -0.2150    1.2653 C   0  0  0  0  0  0  0  0  0  0  0  0
    4.3654    0.2421    0.0022 C   0  0  0  0  0  0  0  0  0  0  0  0
   -1.1085   -0.6004    0.0006 C   0  0  0  0  0  0  0  0  0  0  0  0
   -2.2048    0.2440   -0.0003 C   0  0  0  0  0  0  0  0  0  0  0  0
   -1.6465    1.5360   -0.0004 C   0  0  0  0  0  0  0  0  0  0  0  0
   -3.4617   -0.3515   -0.0009 C   0  0  0  0  0  0  0  0  0  0  0  0
   -2.3917   -2.4050    0.0002 C   0  0  0  0  0  0  0  0  0  0  0  0
    1.4027   -1.3261    0.0033 H   0  0  0  0  0  0  0  0  0  0  0  0
    2.1417    1.3271   -1.3492 H   0  0  0  0  0  0  0  0  0  0  0  0
    1.6771   -0.1640   -2.1565 H   0  0  0  0  0  0  0  0  0  0  0  0
    2.1401    1.3296    1.3514 H   0  0  0  0  0  0  0  0  0  0  0  0
    1.6757   -0.1602    2.1610 H   0  0  0  0  0  0  0  0  0  0  0  0
    3.6897   -1.3125   -1.3380 H   0  0  0  0  0  0  0  0  0  0  0  0
    4.1555    0.1665   -2.1460 H   0  0  0  0  0  0  0  0  0  0  0  0
    4.1530    0.1741    2.1519 H   0  0  0  0  0  0  0  0  0  0  0  0
    3.6909   -1.3084    1.3479 H   0  0  0  0  0  0  0  0  0  0  0  0
    4.4506    1.3353   -0.0045 H   0  0  0  0  0  0  0  0  0  0  0  0
    6.1331    0.0104    0.7943 H   0  0  0  0  0  0  0  0  0  0  0  0
   -2.4988   -3.4844    0.0004 H   0  0  0  0  0  0  0  0  0  0  0  0
   -5.5368   -0.0716   -0.0028 H   0  0  0  0  0  0  0  0  0  0  0  0
   -4.6086    1.4167   -0.0027 H   0  0  0  0  0  0  0  0  0  0  0  0
  1 16  1  0  0  0  0
  2 13  1  0  0  0  0
  2 29  1  0  0  0  0
  3  4  1  0  0  0  0
  3  8  1  0  0  0  0
  3 14  1  0  0  0  0
  4 16  2  0  0  0  0
  5 14  2  0  0  0  0
  5 18  1  0  0  0  0
  6 17  1  0  0  0  0
  6 18  2  0  0  0  0
  7 17  1  0  0  0  0
  7 31  1  0  0  0  0
  7 32  1  0  0  0  0
  8  9  1  0  0  0  0
  8 10  1  0  0  0  0
  8 19  1  0  0  0  0
  9 11  1  0  0  0  0
  9 20  1  0  0  0  0
  9 21  1  0  0  0  0
 10 12  1  0  0  0  0
 10 22  1  0  0  0  0
 10 23  1  0  0  0  0
 11 13  1  0  0  0  0
 11 24  1  0  0  0  0
 11 25  1  0  0  0  0
 12 13  1  0  0  0  0
 12 26  1  0  0  0  0
 12 27  1  0  0  0  0
 13 28  1  0  0  0  0
 14 15  1  0  0  0  0
 15 16  1  0  0  0  0
 15 17  2  0  0  0  0
 18 30  1  0  0  0  0
M  END
> <PUBCHEM_COMPOUND_CID>
49830624

> <PUBCHEM_CONFORMER_RMSD>
0.6

> <PUBCHEM_CONFORMER_DIVERSEORDER>
1
8
7
3
6
4
2
5

> <PUBCHEM_MMFF94_PARTIAL_CHARGES>
17
1 -0.03
13 0.28
14 0.11
16 0.32
17 0.41
18 0.47
2 -0.68
29 0.4
3 0.31
30 0.15
31 0.4
32 0.4
4 -0.71
5 -0.57
6 -0.62
7 -0.9
8 0.26

> <PUBCHEM_EFFECTIVE_ROTOR_COUNT>
2.2

> <PUBCHEM_PHARMACOPHORE_FEATURES>
11
1 1 hydrophobe
1 2 acceptor
1 2 donor
1 4 acceptor
1 7 cation
1 7 donor
3 3 5 14 cation
3 5 6 18 cation
5 3 4 14 15 16 rings
6 5 6 14 15 17 18 rings
6 8 9 10 11 12 13 rings

> <PUBCHEM_HEAVY_ATOM_COUNT>
18

> <PUBCHEM_ATOM_DEF_STEREO_COUNT>
0

> <PUBCHEM_ATOM_UDEF_STEREO_COUNT>
0

> <PUBCHEM_BOND_DEF_STEREO_COUNT>
0

> <PUBCHEM_BOND_UDEF_STEREO_COUNT>
0

> <PUBCHEM_ISOTOPIC_ATOM_COUNT>
0

> <PUBCHEM_COMPONENT_COUNT>
1

> <PUBCHEM_CACTVS_TAUTO_COUNT>
5

> <PUBCHEM_CONFORMER_ID>
02F85AE000000001

> <PUBCHEM_MMFF94_ENERGY>
31.1234

> <PUBCHEM_FEATURE_SELFOVERLAP>
56.099

> <PUBCHEM_SHAPE_FINGERPRINT>
10319926 262 18269253722296998864
10366900 7 17988917877369649202
10411042 1 18194402432184979595
11132069 177 18343868826998155511
11315181 36 18187083958309771332
12107183 9 17757824529836891642
12173636 292 18194401087406503301
12236239 1 17676488341523439180
12390115 104 18056489357062275449
12403814 3 17385438813484669533
12500047 106 18340482249548721220
12553582 1 18336262452817906179
13140716 1 18266182910500242025
13538477 17 18186800309219746354
13862211 1 18338515343991329223
14386348 63 17775289374079657710
15042514 8 18337115665499305411
15375358 24 17988927781516923582
16752209 62 18336255765574756313
16945 1 18410575085201214049
1741750 31 18196091045141378473
17804303 29 18342174509512609737
18186145 218 15213295378441426734
19049666 15 17773886298310486206
19141452 34 17774725372049504015
200 152 16515399673029970156
20279233 1 17703796933207963470
20510252 161 18271807865642967129
20645477 56 18340491058268455313
21065201 7 18341332210950095650
21267235 1 18335989769660531291
22094290 60 18411420617974400224
2297311 6 18341622533269162382
23175994 123 17060624399595013712
23366157 5 17754454882595247421
23402539 116 18412820296255434407
23557571 272 18273217461214548620
23559900 14 18343588417463478486
23598291 2 17532366453309255424
2748010 2 17978238162653580997
350125 39 18050293557372802187
4214541 1 18410855422053906208
474 4 17024602307405432636
559249 180 18191020102383958434
573450 72 18261104141631894032
6049 1 17917709119457322512
67856867 119 18116154562002494908
7364860 26 17620478343189827181
77492 1 17676207961710725920
81228 2 18411709781095798481
84936 182 17191216436336941689
9709674 26 18272097054438937830

> <PUBCHEM_SHAPE_MULTIPOLES>
351.59
9.11
2.54
0.98
8.29
1.14
0
0.17
-0.01
-4.44
0
1.07
0.09
0

> <PUBCHEM_SHAPE_SELFOVERLAP>
732.025

> <PUBCHEM_SHAPE_VOLUME>
206.8

> <PUBCHEM_COORDINATE_TYPE>
2
5
10

$$$$
