11453012
  -OEChem-10062122033D

 56 61  0     0  0  0  0  0  0999 V2000
    0.3394    3.9429   -1.0070 O   0  0  0  0  0  0  0  0  0  0  0  0
   -3.6485    2.0607   -2.2356 O   0  0  0  0  0  0  0  0  0  0  0  0
    2.4936    0.0634    0.2496 N   0  0  0  0  0  0  0  0  0  0  0  0
    5.7090   -1.8924   -1.8004 N   0  0  0  0  0  0  0  0  0  0  0  0
   -1.7711    3.3469   -1.7718 N   0  0  0  0  0  0  0  0  0  0  0  0
   -2.5763   -2.3251   -1.3550 N   0  0  0  0  0  0  0  0  0  0  0  0
    3.7381   -0.6606   -0.0291 C   0  0  0  0  0  0  0  0  0  0  0  0
    4.7398    0.1729   -0.8438 C   0  0  0  0  0  0  0  0  0  0  0  0
    3.4954   -2.0201   -0.7032 C   0  0  0  0  0  0  0  0  0  0  0  0
    6.0106   -0.6273   -1.1293 C   0  0  0  0  0  0  0  0  0  0  0  0
    4.8181   -2.7286   -0.9948 C   0  0  0  0  0  0  0  0  0  0  0  0
    2.0279    0.4022    1.5000 C   0  0  0  0  0  0  0  0  0  0  0  0
    1.6216    0.4966   -0.7127 C   0  0  0  0  0  0  0  0  0  0  0  0
    0.5734    1.1262   -0.0819 C   0  0  0  0  0  0  0  0  0  0  0  0
    0.8170    1.0742    1.3192 C   0  0  0  0  0  0  0  0  0  0  0  0
   -0.5405    1.7144   -0.7583 C   0  0  0  0  0  0  0  0  0  0  0  0
    2.5801    0.1678    2.7642 C   0  0  0  0  0  0  0  0  0  0  0  0
   -1.7174    1.1641   -1.1093 C   0  0  0  0  0  0  0  0  0  0  0  0
    0.1215    1.5357    2.4543 C   0  0  0  0  0  0  0  0  0  0  0  0
   -2.1818   -0.1776   -0.9387 C   0  0  0  0  0  0  0  0  0  0  0  0
   -0.5607    3.1384   -1.1800 C   0  0  0  0  0  0  0  0  0  0  0  0
    1.8725    0.6348    3.8755 C   0  0  0  0  0  0  0  0  0  0  0  0
    0.6620    1.3085    3.7252 C   0  0  0  0  0  0  0  0  0  0  0  0
   -2.8930   -0.7256    0.1678 C   0  0  0  0  0  0  0  0  0  0  0  0
   -2.5300    2.2142   -1.7750 C   0  0  0  0  0  0  0  0  0  0  0  0
   -3.1275   -2.0721   -0.1191 C   0  0  0  0  0  0  0  0  0  0  0  0
   -2.0031   -1.1879   -1.8580 C   0  0  0  0  0  0  0  0  0  0  0  0
   -3.3603   -0.2011    1.3892 C   0  0  0  0  0  0  0  0  0  0  0  0
   -3.8085   -2.9237    0.7580 C   0  0  0  0  0  0  0  0  0  0  0  0
   -2.5953   -3.5996   -2.0397 C   0  0  0  0  0  0  0  0  0  0  0  0
   -4.0431   -1.0412    2.2763 C   0  0  0  0  0  0  0  0  0  0  0  0
   -4.2627   -2.3812    1.9635 C   0  0  0  0  0  0  0  0  0  0  0  0
    4.2094   -0.8659    0.9382 H   0  0  0  0  0  0  0  0  0  0  0  0
    4.9970    1.0890   -0.2981 H   0  0  0  0  0  0  0  0  0  0  0  0
    4.2922    0.4909   -1.7942 H   0  0  0  0  0  0  0  0  0  0  0  0
    2.9406   -1.8904   -1.6415 H   0  0  0  0  0  0  0  0  0  0  0  0
    2.8736   -2.6530   -0.0583 H   0  0  0  0  0  0  0  0  0  0  0  0
    6.6770   -0.0371   -1.7677 H   0  0  0  0  0  0  0  0  0  0  0  0
    6.5577   -0.8201   -0.1986 H   0  0  0  0  0  0  0  0  0  0  0  0
    5.3156   -3.0091   -0.0586 H   0  0  0  0  0  0  0  0  0  0  0  0
    4.6207   -3.6604   -1.5361 H   0  0  0  0  0  0  0  0  0  0  0  0
    5.2569   -1.6929   -2.6931 H   0  0  0  0  0  0  0  0  0  0  0  0
    1.8136    0.3235   -1.7637 H   0  0  0  0  0  0  0  0  0  0  0  0
    3.5201   -0.3538    2.9033 H   0  0  0  0  0  0  0  0  0  0  0  0
   -0.8226    2.0637    2.3550 H   0  0  0  0  0  0  0  0  0  0  0  0
    2.2737    0.4693    4.8722 H   0  0  0  0  0  0  0  0  0  0  0  0
    0.1299    1.6624    4.6043 H   0  0  0  0  0  0  0  0  0  0  0  0
   -2.0695    4.2337   -2.1616 H   0  0  0  0  0  0  0  0  0  0  0  0
   -1.5162   -1.1889   -2.8249 H   0  0  0  0  0  0  0  0  0  0  0  0
   -3.1990    0.8414    1.6480 H   0  0  0  0  0  0  0  0  0  0  0  0
   -3.9827   -3.9678    0.5206 H   0  0  0  0  0  0  0  0  0  0  0  0
   -2.0778   -4.3334   -1.4165 H   0  0  0  0  0  0  0  0  0  0  0  0
   -3.6368   -3.8905   -2.1983 H   0  0  0  0  0  0  0  0  0  0  0  0
   -2.0862   -3.5076   -3.0025 H   0  0  0  0  0  0  0  0  0  0  0  0
   -4.4058   -0.6420    3.2198 H   0  0  0  0  0  0  0  0  0  0  0  0
   -4.7954   -3.0157    2.6673 H   0  0  0  0  0  0  0  0  0  0  0  0
  1 21  2  0  0  0  0
  2 25  2  0  0  0  0
  3  7  1  0  0  0  0
  3 12  1  0  0  0  0
  3 13  1  0  0  0  0
  4 10  1  0  0  0  0
  4 11  1  0  0  0  0
  4 42  1  0  0  0  0
  5 21  1  0  0  0  0
  5 25  1  0  0  0  0
  5 48  1  0  0  0  0
  6 26  1  0  0  0  0
  6 27  1  0  0  0  0
  6 30  1  0  0  0  0
  7  8  1  0  0  0  0
  7  9  1  0  0  0  0
  7 33  1  0  0  0  0
  8 10  1  0  0  0  0
  8 34  1  0  0  0  0
  8 35  1  0  0  0  0
  9 11  1  0  0  0  0
  9 36  1  0  0  0  0
  9 37  1  0  0  0  0
 10 38  1  0  0  0  0
 10 39  1  0  0  0  0
 11 40  1  0  0  0  0
 11 41  1  0  0  0  0
 12 15  1  0  0  0  0
 12 17  2  0  0  0  0
 13 14  2  0  0  0  0
 13 43  1  0  0  0  0
 14 15  1  0  0  0  0
 14 16  1  0  0  0  0
 15 19  2  0  0  0  0
 16 18  2  0  0  0  0
 16 21  1  0  0  0  0
 17 22  1  0  0  0  0
 17 44  1  0  0  0  0
 18 20  1  0  0  0  0
 18 25  1  0  0  0  0
 19 23  1  0  0  0  0
 19 45  1  0  0  0  0
 20 24  1  0  0  0  0
 20 27  2  0  0  0  0
 22 23  2  0  0  0  0
 22 46  1  0  0  0  0
 23 47  1  0  0  0  0
 24 26  1  0  0  0  0
 24 28  2  0  0  0  0
 26 29  2  0  0  0  0
 27 49  1  0  0  0  0
 28 31  1  0  0  0  0
 28 50  1  0  0  0  0
 29 32  1  0  0  0  0
 29 51  1  0  0  0  0
 30 52  1  0  0  0  0
 30 53  1  0  0  0  0
 30 54  1  0  0  0  0
 31 32  2  0  0  0  0
 31 55  1  0  0  0  0
 32 56  1  0  0  0  0
M  END
> <PUBCHEM_COMPOUND_CID>
11453012

> <PUBCHEM_CONFORMER_RMSD>
0.8

> <PUBCHEM_CONFORMER_DIVERSEORDER>
1
13
14
3
15
9
4
11
5
12
8
6
10
2
7

> <PUBCHEM_MMFF94_PARTIAL_CHARGES>
40
1 -0.57
10 0.27
11 0.27
12 -0.15
13 -0.3
14 -0.05
16 0.06
17 -0.15
18 0.06
19 -0.15
2 -0.57
20 -0.05
21 0.62
22 -0.15
23 -0.15
25 0.62
26 -0.15
27 -0.3
28 -0.15
29 -0.15
3 0.05
30 0.26
31 -0.15
32 -0.15
4 -0.9
42 0.36
43 0.15
44 0.15
45 0.15
46 0.15
47 0.15
48 0.37
49 0.15
5 -0.49
50 0.15
51 0.15
55 0.15
56 0.15
6 0.05
7 0.26

> <PUBCHEM_EFFECTIVE_ROTOR_COUNT>
4.4

> <PUBCHEM_PHARMACOPHORE_FEATURES>
13
1 1 acceptor
1 2 acceptor
1 3 cation
1 4 cation
1 4 donor
1 5 donor
1 6 cation
5 3 12 13 14 15 rings
5 5 16 18 21 25 rings
5 6 20 24 26 27 rings
6 12 15 17 19 22 23 rings
6 24 26 28 29 31 32 rings
6 4 7 8 9 10 11 rings

> <PUBCHEM_HEAVY_ATOM_COUNT>
32

> <PUBCHEM_ATOM_DEF_STEREO_COUNT>
0

> <PUBCHEM_ATOM_UDEF_STEREO_COUNT>
0

> <PUBCHEM_BOND_DEF_STEREO_COUNT>
0

> <PUBCHEM_BOND_UDEF_STEREO_COUNT>
0

> <PUBCHEM_ISOTOPIC_ATOM_COUNT>
0

> <PUBCHEM_COMPONENT_COUNT>
1

> <PUBCHEM_CACTVS_TAUTO_COUNT>
3

> <PUBCHEM_CONFORMER_ID>
00AEC25400000001

> <PUBCHEM_MMFF94_ENERGY>
60.6288

> <PUBCHEM_FEATURE_SELFOVERLAP>
66.157

> <PUBCHEM_SHAPE_FINGERPRINT>
107951 10 17752488651225635271
10928967 22 18342170077302643334
11049842 53 17179659486875683472
11387372 6 16478848385114387318
11578080 2 18130210666527040593
12156800 1 15728744016119738721
12160290 23 17972288786524046597
12363563 72 17537396925217599195
12403259 327 17059511758394696827
12553582 1 18041830839685944059
12633046 712 17632295713333341220
12633257 1 16702037403889924419
12655364 131 15552154919885299602
12714826 92 18341609287505605910
12788726 201 17676757692092745057
13103583 49 16916803897478102330
13583140 156 16557896995813202833
14932701 244 17313679234121073596
15815584 197 16666242957403377481
15911013 46 17630036307159819646
17909252 39 18189631578148706364
17974551 9 16988007222679183171
1813 80 18335426827879825838
19319366 153 16082491042743121961
20505436 4 16807581543648625180
20775530 9 18128808819034366638
4058900 60 17321823054929936533
469060 322 17973761066911061626
484985 159 17772482200424306438
70251023 43 18044094781509227599
7097593 13 16987435506686519427

> <PUBCHEM_SHAPE_MULTIPOLES>
626.88
9.69
3.98
3.46
9.88
0.67
-2.86
9.5
1.21
-1.63
2.21
-1.02
-2.27
3.12

> <PUBCHEM_SHAPE_SELFOVERLAP>
1415.318

> <PUBCHEM_SHAPE_VOLUME>
331.6

> <PUBCHEM_COORDINATE_TYPE>
2
5
10

$$$$
