10141037
  -OEChem-10062121593D

 61 66  0     0  0  0  0  0  0999 V2000
    2.6873   -2.3037   -1.3693 O   0  0  0  0  0  0  0  0  0  0  0  0
    2.6868    2.3030    1.3707 O   0  0  0  0  0  0  0  0  0  0  0  0
   -4.5568   -2.2931    0.0529 O   0  0  0  0  0  0  0  0  0  0  0  0
   -4.5566    2.2941   -0.0528 O   0  0  0  0  0  0  0  0  0  0  0  0
    3.6072    0.0004    0.0001 O   0  0  0  0  0  0  0  0  0  0  0  0
   -0.0684   -2.9335   -0.5824 N   0  0  0  0  0  0  0  0  0  0  0  0
   -0.0688    2.9335    0.5824 N   0  0  0  0  0  0  0  0  0  0  0  0
   -4.9592    0.0004   -0.0009 N   0  0  0  0  0  0  0  0  0  0  0  0
    1.3210   -2.9789    1.4014 N   0  0  0  0  0  0  0  0  0  0  0  0
    1.3235    2.9785   -1.3993 N   0  0  0  0  0  0  0  0  0  0  0  0
   -1.6687   -1.5385    0.0722 C   0  0  0  0  0  0  0  0  0  0  0  0
   -1.6686    1.5392   -0.0746 C   0  0  0  0  0  0  0  0  0  0  0  0
   -2.7871   -0.6707    0.0186 C   0  0  0  0  0  0  0  0  0  0  0  0
   -2.7871    0.6715   -0.0221 C   0  0  0  0  0  0  0  0  0  0  0  0
   -0.7435   -1.6843    1.1437 C   0  0  0  0  0  0  0  0  0  0  0  0
   -0.7416    1.6846   -1.1445 C   0  0  0  0  0  0  0  0  0  0  0  0
    0.2391   -2.5704    0.7070 C   0  0  0  0  0  0  0  0  0  0  0  0
    0.2406    2.5705   -0.7065 C   0  0  0  0  0  0  0  0  0  0  0  0
   -1.2502   -2.3469   -0.9629 C   0  0  0  0  0  0  0  0  0  0  0  0
   -1.2515    2.3480    0.9610 C   0  0  0  0  0  0  0  0  0  0  0  0
    0.7678   -3.7443   -1.4570 C   0  0  0  0  0  0  0  0  0  0  0  0
    0.7670    3.7431    1.4587 C   0  0  0  0  0  0  0  0  0  0  0  0
   -4.1925   -1.1302    0.0242 C   0  0  0  0  0  0  0  0  0  0  0  0
   -4.1925    1.1312   -0.0261 C   0  0  0  0  0  0  0  0  0  0  0  0
   -0.6045   -1.1537    2.4389 C   0  0  0  0  0  0  0  0  0  0  0  0
   -0.6007    1.1537   -2.4395 C   0  0  0  0  0  0  0  0  0  0  0  0
    1.7345   -2.8805   -2.2622 C   0  0  0  0  0  0  0  0  0  0  0  0
    1.7330    2.8782    2.2634 C   0  0  0  0  0  0  0  0  0  0  0  0
    0.4962   -1.5476    3.1950 C   0  0  0  0  0  0  0  0  0  0  0  0
    0.5009    1.5475   -3.1942 C   0  0  0  0  0  0  0  0  0  0  0  0
    1.4002   -2.4387    2.6376 C   0  0  0  0  0  0  0  0  0  0  0  0
    1.4044    2.4383   -2.6355 C   0  0  0  0  0  0  0  0  0  0  0  0
    3.4869   -1.3069   -2.0025 C   0  0  0  0  0  0  0  0  0  0  0  0
    3.4868    1.3063    2.0034 C   0  0  0  0  0  0  0  0  0  0  0  0
    4.4077   -0.6956   -0.9574 C   0  0  0  0  0  0  0  0  0  0  0  0
    4.4077    0.6955    0.9582 C   0  0  0  0  0  0  0  0  0  0  0  0
   -1.6578   -2.5090   -1.9525 H   0  0  0  0  0  0  0  0  0  0  0  0
   -1.6607    2.5104    1.9499 H   0  0  0  0  0  0  0  0  0  0  0  0
    0.0994   -4.3011   -2.1226 H   0  0  0  0  0  0  0  0  0  0  0  0
    1.3042   -4.4626   -0.8276 H   0  0  0  0  0  0  0  0  0  0  0  0
    0.0982    4.2991    2.1246 H   0  0  0  0  0  0  0  0  0  0  0  0
    1.3038    4.4621    0.8305 H   0  0  0  0  0  0  0  0  0  0  0  0
   -5.9729    0.0004    0.0000 H   0  0  0  0  0  0  0  0  0  0  0  0
   -1.3284   -0.4548    2.8458 H   0  0  0  0  0  0  0  0  0  0  0  0
   -1.3241    0.4548   -2.8473 H   0  0  0  0  0  0  0  0  0  0  0  0
    2.2673   -3.5001   -2.9914 H   0  0  0  0  0  0  0  0  0  0  0  0
    1.1909   -2.0916   -2.7959 H   0  0  0  0  0  0  0  0  0  0  0  0
    2.2650    3.4969    2.9941 H   0  0  0  0  0  0  0  0  0  0  0  0
    1.1891    2.0885    2.7954 H   0  0  0  0  0  0  0  0  0  0  0  0
    0.6437   -1.1621    4.1980 H   0  0  0  0  0  0  0  0  0  0  0  0
    0.6497    1.1620   -4.1969 H   0  0  0  0  0  0  0  0  0  0  0  0
    2.2671   -2.7566    3.2107 H   0  0  0  0  0  0  0  0  0  0  0  0
    2.2722    2.7559   -3.2072 H   0  0  0  0  0  0  0  0  0  0  0  0
    4.0755   -1.7686   -2.8021 H   0  0  0  0  0  0  0  0  0  0  0  0
    2.8348   -0.5341   -2.4231 H   0  0  0  0  0  0  0  0  0  0  0  0
    2.8350    0.5330    2.4238 H   0  0  0  0  0  0  0  0  0  0  0  0
    4.0752    1.7678    2.8033 H   0  0  0  0  0  0  0  0  0  0  0  0
    4.9736   -1.4793   -0.4416 H   0  0  0  0  0  0  0  0  0  0  0  0
    5.0991    0.0051   -1.4377 H   0  0  0  0  0  0  0  0  0  0  0  0
    4.9739    1.4794    0.4430 H   0  0  0  0  0  0  0  0  0  0  0  0
    5.0988   -0.0057    1.4382 H   0  0  0  0  0  0  0  0  0  0  0  0
  1 27  1  0  0  0  0
  1 33  1  0  0  0  0
  2 28  1  0  0  0  0
  2 34  1  0  0  0  0
  3 23  2  0  0  0  0
  4 24  2  0  0  0  0
  5 35  1  0  0  0  0
  5 36  1  0  0  0  0
  6 17  1  0  0  0  0
  6 19  1  0  0  0  0
  6 21  1  0  0  0  0
  7 18  1  0  0  0  0
  7 20  1  0  0  0  0
  7 22  1  0  0  0  0
  8 23  1  0  0  0  0
  8 24  1  0  0  0  0
  8 43  1  0  0  0  0
  9 17  1  0  0  0  0
  9 31  2  0  0  0  0
 10 18  1  0  0  0  0
 10 32  2  0  0  0  0
 11 13  1  0  0  0  0
 11 15  1  0  0  0  0
 11 19  2  0  0  0  0
 12 14  1  0  0  0  0
 12 16  1  0  0  0  0
 12 20  2  0  0  0  0
 13 14  2  0  0  0  0
 13 23  1  0  0  0  0
 14 24  1  0  0  0  0
 15 17  2  0  0  0  0
 15 25  1  0  0  0  0
 16 18  2  0  0  0  0
 16 26  1  0  0  0  0
 19 37  1  0  0  0  0
 20 38  1  0  0  0  0
 21 27  1  0  0  0  0
 21 39  1  0  0  0  0
 21 40  1  0  0  0  0
 22 28  1  0  0  0  0
 22 41  1  0  0  0  0
 22 42  1  0  0  0  0
 25 29  2  0  0  0  0
 25 44  1  0  0  0  0
 26 30  2  0  0  0  0
 26 45  1  0  0  0  0
 27 46  1  0  0  0  0
 27 47  1  0  0  0  0
 28 48  1  0  0  0  0
 28 49  1  0  0  0  0
 29 31  1  0  0  0  0
 29 50  1  0  0  0  0
 30 32  1  0  0  0  0
 30 51  1  0  0  0  0
 31 52  1  0  0  0  0
 32 53  1  0  0  0  0
 33 35  1  0  0  0  0
 33 54  1  0  0  0  0
 33 55  1  0  0  0  0
 34 36  1  0  0  0  0
 34 56  1  0  0  0  0
 34 57  1  0  0  0  0
 35 58  1  0  0  0  0
 35 59  1  0  0  0  0
 36 60  1  0  0  0  0
 36 61  1  0  0  0  0
M  END
> <PUBCHEM_COMPOUND_CID>
10141037

> <PUBCHEM_CONFORMER_RMSD>
0.8

> <PUBCHEM_CONFORMER_DIVERSEORDER>
1
3
5
11
8
2
9
4
10
7
6

> <PUBCHEM_MMFF94_PARTIAL_CHARGES>
43
1 -0.56
10 -0.57
11 -0.05
12 -0.05
13 0.06
14 0.06
17 0.11
18 0.11
19 -0.3
2 -0.56
20 -0.3
21 0.26
22 0.26
23 0.62
24 0.62
25 -0.15
26 -0.15
27 0.28
28 0.28
29 -0.15
3 -0.57
30 -0.15
31 0.16
32 0.16
33 0.28
34 0.28
35 0.28
36 0.28
37 0.15
38 0.15
4 -0.57
43 0.37
44 0.15
45 0.15
5 -0.56
50 0.15
51 0.15
52 0.15
53 0.15
6 0.05
7 0.05
8 -0.49
9 -0.57

> <PUBCHEM_EFFECTIVE_ROTOR_COUNT>
2.4

> <PUBCHEM_PHARMACOPHORE_FEATURES>
15
1 1 acceptor
1 10 acceptor
1 2 acceptor
1 3 acceptor
1 4 acceptor
1 5 acceptor
1 6 cation
1 7 cation
1 8 donor
1 9 acceptor
5 6 11 15 17 19 rings
5 7 12 16 18 20 rings
5 8 13 14 23 24 rings
6 10 16 18 26 30 32 rings
6 9 15 17 25 29 31 rings

> <PUBCHEM_HEAVY_ATOM_COUNT>
36

> <PUBCHEM_ATOM_DEF_STEREO_COUNT>
0

> <PUBCHEM_ATOM_UDEF_STEREO_COUNT>
0

> <PUBCHEM_BOND_DEF_STEREO_COUNT>
0

> <PUBCHEM_BOND_UDEF_STEREO_COUNT>
0

> <PUBCHEM_ISOTOPIC_ATOM_COUNT>
0

> <PUBCHEM_COMPONENT_COUNT>
1

> <PUBCHEM_CACTVS_TAUTO_COUNT>
2

> <PUBCHEM_CONFORMER_ID>
009ABD6D00000001

> <PUBCHEM_MMFF94_ENERGY>
71.1267

> <PUBCHEM_FEATURE_SELFOVERLAP>
76.352

> <PUBCHEM_SHAPE_FINGERPRINT>
11578080 2 13756689699036544369
12156800 1 17243258773951990022
12422481 6 18045191908892162944
12539773 59 16608808953892799042
133893 2 18040427803272955141
13402501 40 18344145895617878376
13761468 95 15164360080266134966
14955137 171 18125187990537609763
19930381 70 18202003192267706986
20600515 1 17896033407557322184
20764821 26 18271807900508639578
20905425 154 18117261576135698912
23559900 14 18341342136171709084
3493558 16 15192500112956420609
35225 105 17900500633370056374
469060 322 15291900491435495147

> <PUBCHEM_SHAPE_MULTIPOLES>
686.61
6.79
5.03
3.06
3.18
0
0
0
0
-1.43
0
-2.57
0
1.1

> <PUBCHEM_SHAPE_SELFOVERLAP>
1527.614

> <PUBCHEM_SHAPE_VOLUME>
365.4

> <PUBCHEM_COORDINATE_TYPE>
2
5
10

$$$$
