11524144
  -OEChem-10062122013D

 55 59  0     0  0  0  0  0  0999 V2000
   -4.2587    1.5512    0.2289 O   0  0  0  0  0  0  0  0  0  0  0  0
   -7.2291   -0.5430   -0.3857 N   0  0  0  0  0  0  0  0  0  0  0  0
    3.5670    1.6339    0.0000 N   0  0  0  0  0  0  0  0  0  0  0  0
    3.2406   -0.7461    0.0363 N   0  0  0  0  0  0  0  0  0  0  0  0
    4.5683    2.5518   -0.0490 N   0  0  0  0  0  0  0  0  0  0  0  0
    8.1109   -2.8337   -0.1357 N   0  0  0  0  0  0  0  0  0  0  0  0
   -7.5210   -0.9558    0.9942 C   0  0  0  0  0  0  0  0  0  0  0  0
   -8.4665   -0.3044   -1.1418 C   0  0  0  0  0  0  0  0  0  0  0  0
   -8.3618   -2.2330    1.0217 C   0  0  0  0  0  0  0  0  0  0  0  0
   -9.3382   -1.5605   -1.1843 C   0  0  0  0  0  0  0  0  0  0  0  0
   -9.6476   -2.0681    0.2194 C   0  0  0  0  0  0  0  0  0  0  0  0
   -6.3856    0.6520   -0.3945 C   0  0  0  0  0  0  0  0  0  0  0  0
   -5.0500    0.3713    0.2754 C   0  0  0  0  0  0  0  0  0  0  0  0
   -2.8990    1.3825    0.1956 C   0  0  0  0  0  0  0  0  0  0  0  0
   -0.1408    1.0411    0.1283 C   0  0  0  0  0  0  0  0  0  0  0  0
   -2.1051    2.3232   -0.4503 C   0  0  0  0  0  0  0  0  0  0  0  0
   -2.3282    0.2730    0.8081 C   0  0  0  0  0  0  0  0  0  0  0  0
    1.3178    0.8605    0.0934 C   0  0  0  0  0  0  0  0  0  0  0  0
   -0.7212    2.1518   -0.4841 C   0  0  0  0  0  0  0  0  0  0  0  0
   -0.9444    0.1016    0.7744 C   0  0  0  0  0  0  0  0  0  0  0  0
    4.0684    0.3340   -0.0071 C   0  0  0  0  0  0  0  0  0  0  0  0
    5.4388    0.4462   -0.0614 C   0  0  0  0  0  0  0  0  0  0  0  0
    2.1963    1.8758    0.0486 C   0  0  0  0  0  0  0  0  0  0  0  0
    1.9684   -0.4880    0.0824 C   0  0  0  0  0  0  0  0  0  0  0  0
    6.3424   -0.6639   -0.0857 C   0  0  0  0  0  0  0  0  0  0  0  0
    5.6849    1.8255   -0.0846 C   0  0  0  0  0  0  0  0  0  0  0  0
    7.6159   -0.5449    0.4654 C   0  0  0  0  0  0  0  0  0  0  0  0
    5.9562   -1.8715   -0.6618 C   0  0  0  0  0  0  0  0  0  0  0  0
    8.4534   -1.6476    0.4153 C   0  0  0  0  0  0  0  0  0  0  0  0
    6.8680   -2.9149   -0.6614 C   0  0  0  0  0  0  0  0  0  0  0  0
   -8.0395   -0.1587    1.5429 H   0  0  0  0  0  0  0  0  0  0  0  0
   -6.6129   -1.2045    1.5494 H   0  0  0  0  0  0  0  0  0  0  0  0
   -8.2235   -0.0240   -2.1740 H   0  0  0  0  0  0  0  0  0  0  0  0
   -9.0378    0.5252   -0.7044 H   0  0  0  0  0  0  0  0  0  0  0  0
   -8.6053   -2.4948    2.0578 H   0  0  0  0  0  0  0  0  0  0  0  0
   -7.7791   -3.0668    0.6097 H   0  0  0  0  0  0  0  0  0  0  0  0
   -8.8233   -2.3461   -1.7518 H   0  0  0  0  0  0  0  0  0  0  0  0
  -10.2732   -1.3445   -1.7136 H   0  0  0  0  0  0  0  0  0  0  0  0
  -10.1827   -3.0225    0.1652 H   0  0  0  0  0  0  0  0  0  0  0  0
  -10.3082   -1.3559    0.7290 H   0  0  0  0  0  0  0  0  0  0  0  0
   -6.8783    1.5029    0.0952 H   0  0  0  0  0  0  0  0  0  0  0  0
   -6.1899    0.9696   -1.4272 H   0  0  0  0  0  0  0  0  0  0  0  0
   -4.5692   -0.4624   -0.2539 H   0  0  0  0  0  0  0  0  0  0  0  0
   -5.1609    0.1234    1.3339 H   0  0  0  0  0  0  0  0  0  0  0  0
   -2.5540    3.1873   -0.9318 H   0  0  0  0  0  0  0  0  0  0  0  0
   -2.9137   -0.4637    1.3494 H   0  0  0  0  0  0  0  0  0  0  0  0
   -0.1288    2.8945   -1.0119 H   0  0  0  0  0  0  0  0  0  0  0  0
   -0.5219   -0.7601    1.2839 H   0  0  0  0  0  0  0  0  0  0  0  0
    1.9093    2.9211    0.0571 H   0  0  0  0  0  0  0  0  0  0  0  0
    1.2860   -1.3527    0.0934 H   0  0  0  0  0  0  0  0  0  0  0  0
    6.6318    2.3451   -0.1294 H   0  0  0  0  0  0  0  0  0  0  0  0
    7.9638    0.3716    0.9310 H   0  0  0  0  0  0  0  0  0  0  0  0
    4.9996   -2.0273   -1.1461 H   0  0  0  0  0  0  0  0  0  0  0  0
    9.4542   -1.6045    0.8324 H   0  0  0  0  0  0  0  0  0  0  0  0
    6.6176   -3.8720   -1.1074 H   0  0  0  0  0  0  0  0  0  0  0  0
  1 13  1  0  0  0  0
  1 14  1  0  0  0  0
  2  7  1  0  0  0  0
  2  8  1  0  0  0  0
  2 12  1  0  0  0  0
  3  5  1  0  0  0  0
  3 21  1  0  0  0  0
  3 23  1  0  0  0  0
  4 21  1  0  0  0  0
  4 24  2  0  0  0  0
  5 26  2  0  0  0  0
  6 29  2  0  0  0  0
  6 30  1  0  0  0  0
  7  9  1  0  0  0  0
  7 31  1  0  0  0  0
  7 32  1  0  0  0  0
  8 10  1  0  0  0  0
  8 33  1  0  0  0  0
  8 34  1  0  0  0  0
  9 11  1  0  0  0  0
  9 35  1  0  0  0  0
  9 36  1  0  0  0  0
 10 11  1  0  0  0  0
 10 37  1  0  0  0  0
 10 38  1  0  0  0  0
 11 39  1  0  0  0  0
 11 40  1  0  0  0  0
 12 13  1  0  0  0  0
 12 41  1  0  0  0  0
 12 42  1  0  0  0  0
 13 43  1  0  0  0  0
 13 44  1  0  0  0  0
 14 16  2  0  0  0  0
 14 17  1  0  0  0  0
 15 18  1  0  0  0  0
 15 19  2  0  0  0  0
 15 20  1  0  0  0  0
 16 19  1  0  0  0  0
 16 45  1  0  0  0  0
 17 20  2  0  0  0  0
 17 46  1  0  0  0  0
 18 23  2  0  0  0  0
 18 24  1  0  0  0  0
 19 47  1  0  0  0  0
 20 48  1  0  0  0  0
 21 22  2  0  0  0  0
 22 25  1  0  0  0  0
 22 26  1  0  0  0  0
 23 49  1  0  0  0  0
 24 50  1  0  0  0  0
 25 27  2  0  0  0  0
 25 28  1  0  0  0  0
 26 51  1  0  0  0  0
 27 29  1  0  0  0  0
 27 52  1  0  0  0  0
 28 30  2  0  0  0  0
 28 53  1  0  0  0  0
 29 54  1  0  0  0  0
 30 55  1  0  0  0  0
M  END
> <PUBCHEM_COMPOUND_CID>
11524144

> <PUBCHEM_CONFORMER_RMSD>
1

> <PUBCHEM_CONFORMER_DIVERSEORDER>
1
2
5
12
14
13
18
20
10
6
3
4
16
8
9
19
7
17
15
11
21

> <PUBCHEM_MMFF94_PARTIAL_CHARGES>
38
1 -0.36
12 0.27
13 0.28
14 0.08
15 0.03
16 -0.15
17 -0.15
18 -0.01
19 -0.15
2 -0.81
20 -0.15
21 -0.03
22 -0.05
23 -0.18
24 0.38
25 0.05
26 0.14
27 -0.15
28 -0.15
29 0.16
3 0.6
30 0.16
4 -0.58
45 0.15
46 0.15
47 0.15
48 0.15
49 0.15
5 -0.71
50 0.06
51 0.15
52 0.15
53 0.15
54 0.15
55 0.15
6 -0.62
7 0.27
8 0.27

> <PUBCHEM_EFFECTIVE_ROTOR_COUNT>
7.2

> <PUBCHEM_PHARMACOPHORE_FEATURES>
10
1 1 acceptor
1 2 cation
1 4 acceptor
1 5 acceptor
1 6 acceptor
5 3 5 21 22 26 rings
6 14 15 16 17 19 20 rings
6 2 7 8 9 10 11 rings
6 3 4 18 21 23 24 rings
6 6 25 27 28 29 30 rings

> <PUBCHEM_HEAVY_ATOM_COUNT>
30

> <PUBCHEM_ATOM_DEF_STEREO_COUNT>
0

> <PUBCHEM_ATOM_UDEF_STEREO_COUNT>
0

> <PUBCHEM_BOND_DEF_STEREO_COUNT>
0

> <PUBCHEM_BOND_UDEF_STEREO_COUNT>
0

> <PUBCHEM_ISOTOPIC_ATOM_COUNT>
0

> <PUBCHEM_COMPONENT_COUNT>
1

> <PUBCHEM_CACTVS_TAUTO_COUNT>
1

> <PUBCHEM_CONFORMER_ID>
00AFD83000000001

> <PUBCHEM_MMFF94_ENERGY>
79.764

> <PUBCHEM_FEATURE_SELFOVERLAP>
50.877

> <PUBCHEM_SHAPE_FINGERPRINT>
10 15 11743841356952095279
10066227 49 18411138022143503263
10299344 5 17989209274549021029
11211813 74 8790887384796905730
11386260 185 16950571016527464212
11456790 92 16773796982767984114
11497681 19 18409446960406334269
11578821 258 8430320139134670975
11607047 141 12247415449723961300
11607047 74 18191026905755314548
12082328 90 18410570679050481261
12592606 108 18410856538666178066
13553643 46 9583249327216392743
13668630 136 18259983786675731213
13692114 37 18410005555522283618
13811026 1 18407760343776382251
14202775 3 18270684148345077550
14617042 71 9871456639388255594
150020 25 18040712585242783807
15198563 99 17095795534969706501
15347590 135 15410899535298005655
15510794 2 18260265265330230881
15690457 1 18342735213029485838
1754908 1 15339116849358257215
1754911 235 11891334248605960475
1768 4 9007061293046592271
1818759 1 18342462529914289679
18603816 31 17417801890793824727
2026 5 18339643334798555095
20771845 140 16415480433264904190
20982279 24 18187945962378094507
21102433 48 18114454550023830810
21130935 74 18128819638794787730
21267235 1 18410014312685747360
212700 22 18335414712600711971
21315763 28 18411419496898765289
21895431 317 18262230019985916154
22149856 69 15625957412251459255
23559900 14 18260551126302448848
23569917 315 18412270518730365494
23569943 247 18046346323409039754
23576562 1 15069202211259302039
2851757 41 18410581664638359863
3178227 256 15985384499185719697
33532 11 18413671314013099869
335352 9 18334580136219818014
3711267 37 8358260393133290591
44389302 135 17988362568237829542
44880568 143 17530678802125410069
4625314 4 18408039615951984221
54039377 194 18410855487006053631
5718773 13 18410857637697783884
5758199 1 10735878374546029389
58083652 198 16056584466519428529
6081469 158 18040151812194132349
636775 72 9727642700840695835
6691757 9 15195272115721463509
9937071 3 18342175566270211083
9953998 17 12823292412829072653
9962374 69 18411976984127981076

> <PUBCHEM_SHAPE_MULTIPOLES>
586.61
33.63
2.89
0.89
39.94
0.63
-0.03
30.39
-2.52
-2.8
-0.28
1.29
0.25
0.9

> <PUBCHEM_SHAPE_SELFOVERLAP>
1284.621

> <PUBCHEM_SHAPE_VOLUME>
316.5

> <PUBCHEM_COORDINATE_TYPE>
2
5
10

$$$$
