6603792
  -OEChem-10062122023D

 50 54  0     0  0  0  0  0  0999 V2000
    4.0903    1.4106    0.9983 O   0  0  0  0  0  0  0  0  0  0  0  0
   -3.4235    0.1893   -0.1360 N   0  0  0  0  0  0  0  0  0  0  0  0
   -4.1234   -2.1149   -0.2651 N   0  0  0  0  0  0  0  0  0  0  0  0
   -2.2811   -3.6854   -0.0069 N   0  0  0  0  0  0  0  0  0  0  0  0
   -0.0292   -2.9862    0.3367 N   0  0  0  0  0  0  0  0  0  0  0  0
   -4.7243    0.8265   -0.3231 C   0  0  0  0  0  0  0  0  0  0  0  0
   -4.8195    1.7277   -1.5702 C   0  0  0  0  0  0  0  0  0  0  0  0
   -5.1516    1.6993    0.8691 C   0  0  0  0  0  0  0  0  0  0  0  0
   -5.1193    3.1256   -1.0408 C   0  0  0  0  0  0  0  0  0  0  0  0
   -5.8941    2.8693    0.2405 C   0  0  0  0  0  0  0  0  0  0  0  0
   -3.1880   -1.1611   -0.1153 C   0  0  0  0  0  0  0  0  0  0  0  0
   -2.2402    0.8600    0.0477 C   0  0  0  0  0  0  0  0  0  0  0  0
   -1.8272   -1.3574    0.0857 C   0  0  0  0  0  0  0  0  0  0  0  0
   -1.2346   -0.0729    0.1879 C   0  0  0  0  0  0  0  0  0  0  0  0
    0.1331    0.3082    0.3961 C   0  0  0  0  0  0  0  0  0  0  0  0
   -1.3877   -2.6794    0.1372 C   0  0  0  0  0  0  0  0  0  0  0  0
   -3.5758   -3.3454   -0.1966 C   0  0  0  0  0  0  0  0  0  0  0  0
    0.6204    0.4809    1.6920 C   0  0  0  0  0  0  0  0  0  0  0  0
    0.9771    0.5064   -0.6974 C   0  0  0  0  0  0  0  0  0  0  0  0
    1.9498    0.8514    1.8944 C   0  0  0  0  0  0  0  0  0  0  0  0
    2.3066    0.8768   -0.4951 C   0  0  0  0  0  0  0  0  0  0  0  0
    2.7931    1.0492    0.8009 C   0  0  0  0  0  0  0  0  0  0  0  0
    5.0608    0.7548    0.2597 C   0  0  0  0  0  0  0  0  0  0  0  0
    4.9981   -0.6214    0.1361 C   0  0  0  0  0  0  0  0  0  0  0  0
    6.0680    1.4930   -0.3350 C   0  0  0  0  0  0  0  0  0  0  0  0
    5.9762   -1.2820   -0.6074 C   0  0  0  0  0  0  0  0  0  0  0  0
    7.0460    0.8323   -1.0786 C   0  0  0  0  0  0  0  0  0  0  0  0
    7.0000   -0.5552   -1.2147 C   0  0  0  0  0  0  0  0  0  0  0  0
   -5.4585    0.0196   -0.4402 H   0  0  0  0  0  0  0  0  0  0  0  0
   -5.6559    1.3903   -2.1951 H   0  0  0  0  0  0  0  0  0  0  0  0
   -3.9215    1.7169   -2.1963 H   0  0  0  0  0  0  0  0  0  0  0  0
   -4.2921    2.0724    1.4380 H   0  0  0  0  0  0  0  0  0  0  0  0
   -5.7867    1.1461    1.5689 H   0  0  0  0  0  0  0  0  0  0  0  0
   -5.6852    3.7275   -1.7574 H   0  0  0  0  0  0  0  0  0  0  0  0
   -4.1833    3.6510   -0.8172 H   0  0  0  0  0  0  0  0  0  0  0  0
   -5.9189    3.7450    0.8951 H   0  0  0  0  0  0  0  0  0  0  0  0
   -6.9270    2.5829    0.0096 H   0  0  0  0  0  0  0  0  0  0  0  0
   -2.2108    1.9422    0.0598 H   0  0  0  0  0  0  0  0  0  0  0  0
   -4.2662   -4.1744   -0.3086 H   0  0  0  0  0  0  0  0  0  0  0  0
   -0.0229    0.3295    2.5556 H   0  0  0  0  0  0  0  0  0  0  0  0
    0.6126    0.3800   -1.7142 H   0  0  0  0  0  0  0  0  0  0  0  0
    0.2497   -3.9578    0.3675 H   0  0  0  0  0  0  0  0  0  0  0  0
    0.6641   -2.2611    0.4470 H   0  0  0  0  0  0  0  0  0  0  0  0
    2.3234    0.9836    2.9061 H   0  0  0  0  0  0  0  0  0  0  0  0
    2.9338    1.0467   -1.3663 H   0  0  0  0  0  0  0  0  0  0  0  0
    4.2251   -1.2123    0.6187 H   0  0  0  0  0  0  0  0  0  0  0  0
    6.1048    2.5730   -0.2300 H   0  0  0  0  0  0  0  0  0  0  0  0
    5.9437   -2.3628   -0.7090 H   0  0  0  0  0  0  0  0  0  0  0  0
    7.8433    1.3982   -1.5513 H   0  0  0  0  0  0  0  0  0  0  0  0
    7.7622   -1.0696   -1.7925 H   0  0  0  0  0  0  0  0  0  0  0  0
  1 22  1  0  0  0  0
  1 23  1  0  0  0  0
  2  6  1  0  0  0  0
  2 11  1  0  0  0  0
  2 12  1  0  0  0  0
  3 11  2  0  0  0  0
  3 17  1  0  0  0  0
  4 16  1  0  0  0  0
  4 17  2  0  0  0  0
  5 16  1  0  0  0  0
  5 42  1  0  0  0  0
  5 43  1  0  0  0  0
  6  7  1  0  0  0  0
  6  8  1  0  0  0  0
  6 29  1  0  0  0  0
  7  9  1  0  0  0  0
  7 30  1  0  0  0  0
  7 31  1  0  0  0  0
  8 10  1  0  0  0  0
  8 32  1  0  0  0  0
  8 33  1  0  0  0  0
  9 10  1  0  0  0  0
  9 34  1  0  0  0  0
  9 35  1  0  0  0  0
 10 36  1  0  0  0  0
 10 37  1  0  0  0  0
 11 13  1  0  0  0  0
 12 14  2  0  0  0  0
 12 38  1  0  0  0  0
 13 14  1  0  0  0  0
 13 16  2  0  0  0  0
 14 15  1  0  0  0  0
 15 18  2  0  0  0  0
 15 19  1  0  0  0  0
 17 39  1  0  0  0  0
 18 20  1  0  0  0  0
 18 40  1  0  0  0  0
 19 21  2  0  0  0  0
 19 41  1  0  0  0  0
 20 22  2  0  0  0  0
 20 44  1  0  0  0  0
 21 22  1  0  0  0  0
 21 45  1  0  0  0  0
 23 24  2  0  0  0  0
 23 25  1  0  0  0  0
 24 26  1  0  0  0  0
 24 46  1  0  0  0  0
 25 27  2  0  0  0  0
 25 47  1  0  0  0  0
 26 28  2  0  0  0  0
 26 48  1  0  0  0  0
 27 28  1  0  0  0  0
 27 49  1  0  0  0  0
 28 50  1  0  0  0  0
M  END
> <PUBCHEM_COMPOUND_CID>
6603792

> <PUBCHEM_CONFORMER_RMSD>
0.8

> <PUBCHEM_CONFORMER_DIVERSEORDER>
1
8
17
24
20
12
18
4
15
5
19
14
9
13
2
6
3
25
7
16
10
26
22
21
11
23

> <PUBCHEM_MMFF94_PARTIAL_CHARGES>
36
1 -0.17
11 0.11
12 -0.3
14 -0.05
15 0.05
16 0.41
17 0.47
18 -0.15
19 -0.15
2 0.05
20 -0.15
21 -0.15
22 0.08
23 0.08
24 -0.15
25 -0.15
26 -0.15
27 -0.15
28 -0.15
3 -0.57
38 0.15
39 0.15
4 -0.62
40 0.15
41 0.15
42 0.4
43 0.4
44 0.15
45 0.15
46 0.15
47 0.15
48 0.15
49 0.15
5 -0.9
50 0.15
6 0.26

> <PUBCHEM_EFFECTIVE_ROTOR_COUNT>
5

> <PUBCHEM_PHARMACOPHORE_FEATURES>
10
1 1 acceptor
1 5 cation
1 5 donor
3 2 3 11 cation
3 3 4 17 cation
5 2 11 12 13 14 rings
5 6 7 8 9 10 rings
6 15 18 19 20 21 22 rings
6 23 24 25 26 27 28 rings
6 3 4 11 13 16 17 rings

> <PUBCHEM_HEAVY_ATOM_COUNT>
28

> <PUBCHEM_ATOM_DEF_STEREO_COUNT>
0

> <PUBCHEM_ATOM_UDEF_STEREO_COUNT>
0

> <PUBCHEM_BOND_DEF_STEREO_COUNT>
0

> <PUBCHEM_BOND_UDEF_STEREO_COUNT>
0

> <PUBCHEM_ISOTOPIC_ATOM_COUNT>
0

> <PUBCHEM_COMPONENT_COUNT>
1

> <PUBCHEM_CACTVS_TAUTO_COUNT>
4

> <PUBCHEM_CONFORMER_ID>
0064C41000000001

> <PUBCHEM_MMFF94_ENERGY>
82.7618

> <PUBCHEM_FEATURE_SELFOVERLAP>
51.026

> <PUBCHEM_SHAPE_FINGERPRINT>
10165383 225 18340492175925323121
10411042 1 17833270097400783747
105312 117 18409163290875538853
10835480 77 18201152248263528984
10940486 97 18335144244812544805
11273773 46 18201167538257386630
11545043 162 18200874088225461200
11796584 16 18342459240633959534
1200032 147 18191591839951478137
12107183 9 18190729856841111922
12236239 1 17676486133710276376
12390115 104 18411980248408757753
12616971 3 16805867538565381072
12643181 29 18341611491457273174
12788726 201 17845374345488861264
12954195 1 18342171211516121223
13140716 1 18265607677383888059
13690498 29 18198903806354665879
13782708 43 17702943784919893055
13914758 101 15123516860940794177
14294032 229 18336538349513217093
14713325 29 18334857264579232371
14790565 3 18051413963948180961
15183329 4 18342739572695805904
15230672 131 18336264531946613362
15274700 147 16241274145900245036
15439362 3 18122624947328885005
15475509 8 17749680580396567612
15927050 60 18412540982091300863
16990366 60 10878264065423897357
17349148 13 14620521172412141856
17844677 252 18267589185508612176
18608769 82 18411423951518440059
19958102 18 18269838627596202980
20505436 4 17895189961995545185
20681677 155 18259984885844344568
21033648 29 17774145920599311296
21065201 7 18268418199863601178
21133410 127 17393326511834303829
21279426 13 18272938202535700518
21315764 119 18410019797743749420
21756936 100 17346048779808699217
2215653 11 17989486308271091412
22393880 68 18411414047017588706
23081809 10 17385996291697501304
23559900 14 18201434813897792504
23576562 1 17968092088496667045
3004659 81 18410013239692814818
3298306 158 18202280299548034278
3610482 184 17677066719126131852
3663271 9 10735886050005703812
392239 28 10087637143224860223
4015057 19 17060330868381521681
4058900 60 18193278486266249945
4073 2 18335986475884449306
4144715 1 18267867366271884952
44062 13 18343020038307722678
5265222 85 18267031733582575006
5283173 99 18411981394700879848
559249 180 18411698790279924918
56616090 46 18412545379519756663
57527295 17 17346028983977195255
59755656 215 18270400482206077636
59755656 520 18272094877196136057
6009941 240 18342738525145486360
6328613 192 18409733954469404388
6698420 124 17988650666702269297
7226269 152 18130793326074450401

> <PUBCHEM_SHAPE_MULTIPOLES>
550.43
17.26
3.5
1.22
19.5
2.81
-0.2
-8.72
5.77
-6.54
0.35
0.46
-0.56
0.84

> <PUBCHEM_SHAPE_SELFOVERLAP>
1229.332

> <PUBCHEM_SHAPE_VOLUME>
291.8

> <PUBCHEM_COORDINATE_TYPE>
2
5
10

$$$$
