49830833
  -OEChem-10052115183D

 46 48  0     0  0  0  0  0  0999 V2000
   -5.5687   -0.0520    0.1551 S   0  0  0  0  0  0  0  0  0  0  0  0
   -6.9606   -0.2144   -0.2217 O   0  0  0  0  0  0  0  0  0  0  0  0
   -5.1049   -0.4744    1.4617 O   0  0  0  0  0  0  0  0  0  0  0  0
    6.6085    2.3025    0.0710 O   0  0  0  0  0  0  0  0  0  0  0  0
   -4.5858   -0.7187   -1.0923 N   0  0  0  0  0  0  0  0  0  0  0  0
    4.9812   -1.5936    0.6130 N   0  0  0  0  0  0  0  0  0  0  0  0
    5.4308   -0.3415    0.4265 N   0  0  0  0  0  0  0  0  0  0  0  0
    4.3399    1.6930   -0.1645 N   0  0  0  0  0  0  0  0  0  0  0  0
   -5.1824    1.6745   -0.0297 C   0  0  0  0  0  0  0  0  0  0  0  0
    0.9463   -1.3882   -0.0715 C   0  0  0  0  0  0  0  0  0  0  0  0
    3.1703   -0.4711    0.0938 C   0  0  0  0  0  0  0  0  0  0  0  0
   -0.4676   -1.2165   -0.3318 C   0  0  0  0  0  0  0  0  0  0  0  0
    3.6327   -1.7391    0.4280 C   0  0  0  0  0  0  0  0  0  0  0  0
   -5.9379    2.5218    0.9806 C   0  0  0  0  0  0  0  0  0  0  0  0
   -3.1916   -0.8869   -0.8350 C   0  0  0  0  0  0  0  0  0  0  0  0
    1.8020   -0.2831   -0.1624 C   0  0  0  0  0  0  0  0  0  0  0  0
    1.4373   -2.6507    0.2661 C   0  0  0  0  0  0  0  0  0  0  0  0
    4.3263    0.3386    0.1113 C   0  0  0  0  0  0  0  0  0  0  0  0
    2.7969   -2.8538    0.5243 C   0  0  0  0  0  0  0  0  0  0  0  0
   -1.3993   -2.0313    0.3116 C   0  0  0  0  0  0  0  0  0  0  0  0
   -0.8980   -0.2368   -1.2265 C   0  0  0  0  0  0  0  0  0  0  0  0
   -2.7612   -1.8666    0.0599 C   0  0  0  0  0  0  0  0  0  0  0  0
   -2.2600   -0.0720   -1.4782 C   0  0  0  0  0  0  0  0  0  0  0  0
   -5.6247    3.9991    0.8120 C   0  0  0  0  0  0  0  0  0  0  0  0
    5.4377    2.5768   -0.1714 C   0  0  0  0  0  0  0  0  0  0  0  0
    5.0327    3.9846   -0.5299 C   0  0  0  0  0  0  0  0  0  0  0  0
   -5.4446    1.9628   -1.0526 H   0  0  0  0  0  0  0  0  0  0  0  0
   -4.1043    1.7930    0.1144 H   0  0  0  0  0  0  0  0  0  0  0  0
   -5.6799    2.2130    2.0003 H   0  0  0  0  0  0  0  0  0  0  0  0
   -7.0177    2.3689    0.8693 H   0  0  0  0  0  0  0  0  0  0  0  0
    1.4485    0.7168   -0.3917 H   0  0  0  0  0  0  0  0  0  0  0  0
   -4.7969   -0.3814   -2.0412 H   0  0  0  0  0  0  0  0  0  0  0  0
    0.7972   -3.5288    0.3098 H   0  0  0  0  0  0  0  0  0  0  0  0
    3.1819   -3.8349    0.7793 H   0  0  0  0  0  0  0  0  0  0  0  0
   -1.1146   -2.7871    1.0383 H   0  0  0  0  0  0  0  0  0  0  0  0
   -0.2092    0.3998   -1.7750 H   0  0  0  0  0  0  0  0  0  0  0  0
   -3.4747   -2.5132    0.5640 H   0  0  0  0  0  0  0  0  0  0  0  0
   -2.5843    0.6906   -2.1817 H   0  0  0  0  0  0  0  0  0  0  0  0
    5.6511   -2.3090    0.8669 H   0  0  0  0  0  0  0  0  0  0  0  0
   -4.5566    4.1923    0.9543 H   0  0  0  0  0  0  0  0  0  0  0  0
   -5.9074    4.3487   -0.1861 H   0  0  0  0  0  0  0  0  0  0  0  0
   -6.1778    4.5906    1.5482 H   0  0  0  0  0  0  0  0  0  0  0  0
    3.4307    2.0892   -0.3913 H   0  0  0  0  0  0  0  0  0  0  0  0
    4.2733    4.3421    0.1712 H   0  0  0  0  0  0  0  0  0  0  0  0
    4.6296    4.0037   -1.5462 H   0  0  0  0  0  0  0  0  0  0  0  0
    5.9021    4.6457   -0.4782 H   0  0  0  0  0  0  0  0  0  0  0  0
  1  2  2  0  0  0  0
  1  3  2  0  0  0  0
  1  5  1  0  0  0  0
  1  9  1  0  0  0  0
  4 25  2  0  0  0  0
  5 15  1  0  0  0  0
  5 32  1  0  0  0  0
  6  7  1  0  0  0  0
  6 13  1  0  0  0  0
  6 39  1  0  0  0  0
  7 18  2  0  0  0  0
  8 18  1  0  0  0  0
  8 25  1  0  0  0  0
  8 43  1  0  0  0  0
  9 14  1  0  0  0  0
  9 27  1  0  0  0  0
  9 28  1  0  0  0  0
 10 12  1  0  0  0  0
 10 16  2  0  0  0  0
 10 17  1  0  0  0  0
 11 13  2  0  0  0  0
 11 16  1  0  0  0  0
 11 18  1  0  0  0  0
 12 20  2  0  0  0  0
 12 21  1  0  0  0  0
 13 19  1  0  0  0  0
 14 24  1  0  0  0  0
 14 29  1  0  0  0  0
 14 30  1  0  0  0  0
 15 22  2  0  0  0  0
 15 23  1  0  0  0  0
 16 31  1  0  0  0  0
 17 19  2  0  0  0  0
 17 33  1  0  0  0  0
 19 34  1  0  0  0  0
 20 22  1  0  0  0  0
 20 35  1  0  0  0  0
 21 23  2  0  0  0  0
 21 36  1  0  0  0  0
 22 37  1  0  0  0  0
 23 38  1  0  0  0  0
 24 40  1  0  0  0  0
 24 41  1  0  0  0  0
 24 42  1  0  0  0  0
 25 26  1  0  0  0  0
 26 44  1  0  0  0  0
 26 45  1  0  0  0  0
 26 46  1  0  0  0  0
M  END
> <PUBCHEM_COMPOUND_CID>
49830833

> <PUBCHEM_CONFORMER_RMSD>
0.8

> <PUBCHEM_CONFORMER_DIVERSEORDER>
1
44
69
59
71
41
18
52
17
50
58
48
29
63
67
36
64
45
49
22
53
62
39
40
34
23
56
47
20
60
68
3
32
42
72
65
6
61
66
37
54
70
8
25
9
57
13
2
51
10
24
33
30
19
31
43
55
7
35
38
15
14
26
46
16
12
11
5
28
4
21
27

> <PUBCHEM_MMFF94_PARTIAL_CHARGES>
31
1 1.33
13 -0.15
15 0.2
16 -0.15
17 -0.15
18 0.35
19 -0.15
2 -0.65
20 -0.15
21 -0.15
22 -0.15
23 -0.15
25 0.57
26 0.06
3 -0.65
31 0.15
32 0.42
33 0.15
34 0.15
35 0.15
36 0.15
37 0.15
38 0.15
39 0.27
4 -0.57
43 0.37
5 -0.76
6 0.3
7 -0.71
8 -0.49
9 0.11

> <PUBCHEM_EFFECTIVE_ROTOR_COUNT>
7

> <PUBCHEM_PHARMACOPHORE_FEATURES>
10
1 2 acceptor
1 24 hydrophobe
1 3 acceptor
1 4 acceptor
1 5 donor
1 6 donor
1 8 donor
5 6 7 11 13 18 rings
6 10 11 13 16 17 19 rings
6 12 15 20 21 22 23 rings

> <PUBCHEM_HEAVY_ATOM_COUNT>
26

> <PUBCHEM_ATOM_DEF_STEREO_COUNT>
0

> <PUBCHEM_ATOM_UDEF_STEREO_COUNT>
0

> <PUBCHEM_BOND_DEF_STEREO_COUNT>
0

> <PUBCHEM_BOND_UDEF_STEREO_COUNT>
0

> <PUBCHEM_ISOTOPIC_ATOM_COUNT>
0

> <PUBCHEM_COMPONENT_COUNT>
1

> <PUBCHEM_CACTVS_TAUTO_COUNT>
66

> <PUBCHEM_CONFORMER_ID>
02F85BB100000001

> <PUBCHEM_MMFF94_ENERGY>
61.7834

> <PUBCHEM_FEATURE_SELFOVERLAP>
50.855

> <PUBCHEM_SHAPE_FINGERPRINT>
10 15 17603579772672224204
100830 2 18129398020107703673
10411042 1 18048308943908712610
105312 117 15985095281221770997
10595046 47 18413101780186634967
10638233 991 18413386557549727317
10693767 8 9871469785866144365
11101153 10 18411978088277928981
1200032 147 17968661635762310832
12107183 9 17835798591612738483
12403259 415 17894900824639208614
12596602 18 18260830397744308387
12788726 201 17632304444875449105
12975358 362 17341558262584271633
13167372 99 18341047432768864682
13785724 45 17476921251349166627
13955234 65 18114451276609690034
14202776 33 17917702540099922149
14251764 75 18265053707653110108
14429114 114 18341608277988812433
146900 427 18259980487850808130
14790565 3 18411702105567032837
15183329 4 15984831453516605731
15840311 113 18337678495372821869
16760501 71 18334858346040526772
17857418 61 8358253757028262807
19958102 18 10807922740132333881
20058555 10 18411136927085475049
21033648 29 16950547871112138495
21585482 111 18334857173515182908
22122407 14 18412271618642205945
23559900 14 18334565812288550074
2838139 119 18059847381014808913
3004659 81 12463304626414459710
393628 194 17839179607412782113
465052 167 8214145174675489946
5104073 3 17968090949792048610
5718773 13 9655314622124940004
57724786 102 18411416185552437070
633830 44 18412821413343194038
636775 72 18199181979066281848
7495541 125 12468651516383717239
7970288 3 9366530083422894964

> <PUBCHEM_SHAPE_MULTIPOLES>
501.39
17.96
4.15
1.01
6.84
4.6
0.11
15.85
-2.94
-2.48
-0.69
1
0.03
-2.41

> <PUBCHEM_SHAPE_SELFOVERLAP>
1065.302

> <PUBCHEM_SHAPE_VOLUME>
281.2

> <PUBCHEM_COORDINATE_TYPE>
2
5
10

$$$$
