468758
  -OEChem-10062121573D

 63 69  0     1  0  0  0  0  0999 V2000
   -2.7781   -3.7345    0.1185 Cl  0  0  0  0  0  0  0  0  0  0  0  0
   -2.3135    4.0346   -0.1199 Cl  0  0  0  0  0  0  0  0  0  0  0  0
   -2.0846    0.4519    0.7117 O   0  0  0  0  0  0  0  0  0  0  0  0
   -3.1588   -1.8925   -1.8207 O   0  0  0  0  0  0  0  0  0  0  0  0
   -5.1193   -0.5675    0.1269 O   0  0  0  0  0  0  0  0  0  0  0  0
   -3.0428    1.6698   -1.8798 O   0  0  0  0  0  0  0  0  0  0  0  0
   -3.1290    1.3123    3.2868 O   0  0  0  0  0  0  0  0  0  0  0  0
    4.7134   -2.5581    0.0736 O   0  0  0  0  0  0  0  0  0  0  0  0
    4.9929    2.0615   -0.0695 O   0  0  0  0  0  0  0  0  0  0  0  0
   -0.6278   -1.3154    0.0409 N   0  0  0  0  0  0  0  0  0  0  0  0
   -0.4629    1.4609   -0.0444 N   0  0  0  0  0  0  0  0  0  0  0  0
    5.2670   -0.2721   -0.0024 N   0  0  0  0  0  0  0  0  0  0  0  0
   -2.0544   -0.8014    0.0277 C   0  0  2  0  0  0  0  0  0  0  0  0
   -2.5903   -0.6471   -1.4117 C   0  0  2  0  0  0  0  0  0  0  0  0
   -3.6704    0.4413   -1.5164 C   0  0  1  0  0  0  0  0  0  0  0  0
   -4.3988    0.6236   -0.1828 C   0  0  2  0  0  0  0  0  0  0  0  0
    0.5731   -0.6944    0.0199 C   0  0  0  0  0  0  0  0  0  0  0  0
   -3.4017    0.9724    0.9420 C   0  0  1  0  0  0  0  0  0  0  0  0
    1.8169   -1.4099    0.0396 C   0  0  0  0  0  0  0  0  0  0  0  0
   -0.2339   -2.6444    0.0810 C   0  0  0  0  0  0  0  0  0  0  0  0
    0.6561    0.7022   -0.0229 C   0  0  0  0  0  0  0  0  0  0  0  0
    1.1984   -2.7433    0.0812 C   0  0  0  0  0  0  0  0  0  0  0  0
    3.0861   -0.8377    0.0201 C   0  0  0  0  0  0  0  0  0  0  0  0
    1.9760    1.2655   -0.0423 C   0  0  0  0  0  0  0  0  0  0  0  0
    3.1686    0.5471   -0.0224 C   0  0  0  0  0  0  0  0  0  0  0  0
   -3.8652    0.5664    2.3367 C   0  0  0  0  0  0  0  0  0  0  0  0
    1.5194    2.6628   -0.0838 C   0  0  0  0  0  0  0  0  0  0  0  0
    0.0855    2.7340   -0.0838 C   0  0  0  0  0  0  0  0  0  0  0  0
   -1.0531   -3.7831    0.1173 C   0  0  0  0  0  0  0  0  0  0  0  0
    4.4354   -1.3751    0.0354 C   0  0  0  0  0  0  0  0  0  0  0  0
    1.7553   -4.0445    0.1193 C   0  0  0  0  0  0  0  0  0  0  0  0
    4.5725    0.9213   -0.0357 C   0  0  0  0  0  0  0  0  0  0  0  0
   -0.4531   -5.0422    0.1547 C   0  0  0  0  0  0  0  0  0  0  0  0
    0.9293   -5.1731    0.1555 C   0  0  0  0  0  0  0  0  0  0  0  0
    2.2262    3.8891   -0.1221 C   0  0  0  0  0  0  0  0  0  0  0  0
   -0.5935    3.9616   -0.1199 C   0  0  0  0  0  0  0  0  0  0  0  0
   -6.3459   -0.6325   -0.5862 C   0  0  0  0  0  0  0  0  0  0  0  0
    6.7141   -0.3584   -0.0065 C   0  0  0  0  0  0  0  0  0  0  0  0
    1.5395    5.1076   -0.1581 C   0  0  0  0  0  0  0  0  0  0  0  0
    0.1512    5.1411   -0.1570 C   0  0  0  0  0  0  0  0  0  0  0  0
   -2.6227   -1.4646    0.6667 H   0  0  0  0  0  0  0  0  0  0  0  0
   -1.7665   -0.4302   -2.1026 H   0  0  0  0  0  0  0  0  0  0  0  0
   -4.3753    0.2001   -2.3176 H   0  0  0  0  0  0  0  0  0  0  0  0
   -5.1030    1.4647   -0.2442 H   0  0  0  0  0  0  0  0  0  0  0  0
   -3.2905    2.0500    0.9709 H   0  0  0  0  0  0  0  0  0  0  0  0
   -3.6954   -0.4968    2.5310 H   0  0  0  0  0  0  0  0  0  0  0  0
   -4.9251    0.7992    2.4802 H   0  0  0  0  0  0  0  0  0  0  0  0
   -1.3929    1.2642   -0.3467 H   0  0  0  0  0  0  0  0  0  0  0  0
   -3.4294   -1.8005   -2.7501 H   0  0  0  0  0  0  0  0  0  0  0  0
    2.8310   -4.1879    0.1212 H   0  0  0  0  0  0  0  0  0  0  0  0
   -2.6251    1.5422   -2.7486 H   0  0  0  0  0  0  0  0  0  0  0  0
   -1.0610   -5.9442    0.1834 H   0  0  0  0  0  0  0  0  0  0  0  0
    1.3773   -6.1629    0.1846 H   0  0  0  0  0  0  0  0  0  0  0  0
    3.3113    3.9039   -0.1243 H   0  0  0  0  0  0  0  0  0  0  0  0
   -6.9691    0.2429   -0.3779 H   0  0  0  0  0  0  0  0  0  0  0  0
   -6.1846   -0.7385   -1.6615 H   0  0  0  0  0  0  0  0  0  0  0  0
   -6.8856   -1.5198   -0.2427 H   0  0  0  0  0  0  0  0  0  0  0  0
    7.0700   -0.1422    1.0051 H   0  0  0  0  0  0  0  0  0  0  0  0
    7.1232    0.3930   -0.6875 H   0  0  0  0  0  0  0  0  0  0  0  0
    7.0397   -1.3592   -0.3007 H   0  0  0  0  0  0  0  0  0  0  0  0
   -3.4412    1.0441    4.1678 H   0  0  0  0  0  0  0  0  0  0  0  0
    2.1014    6.0374   -0.1872 H   0  0  0  0  0  0  0  0  0  0  0  0
   -0.3500    6.1062   -0.1857 H   0  0  0  0  0  0  0  0  0  0  0  0
  1 29  1  0  0  0  0
  2 36  1  0  0  0  0
  3 13  1  0  0  0  0
  3 18  1  0  0  0  0
  4 14  1  0  0  0  0
  4 49  1  0  0  0  0
  5 16  1  0  0  0  0
  5 37  1  0  0  0  0
  6 15  1  0  0  0  0
  6 51  1  0  0  0  0
  7 26  1  0  0  0  0
  7 61  1  0  0  0  0
  8 30  2  0  0  0  0
  9 32  2  0  0  0  0
 10 13  1  0  0  0  0
 10 17  1  0  0  0  0
 10 20  1  0  0  0  0
 11 21  1  0  0  0  0
 11 28  1  0  0  0  0
 11 48  1  0  0  0  0
 12 30  1  0  0  0  0
 12 32  1  0  0  0  0
 12 38  1  0  0  0  0
 13 14  1  0  0  0  0
 13 41  1  0  0  0  0
 14 15  1  0  0  0  0
 14 42  1  0  0  0  0
 15 16  1  0  0  0  0
 15 43  1  0  0  0  0
 16 18  1  0  0  0  0
 16 44  1  0  0  0  0
 17 19  1  0  0  0  0
 17 21  2  0  0  0  0
 18 26  1  0  0  0  0
 18 45  1  0  0  0  0
 19 22  1  0  0  0  0
 19 23  2  0  0  0  0
 20 22  2  0  0  0  0
 20 29  1  0  0  0  0
 21 24  1  0  0  0  0
 22 31  1  0  0  0  0
 23 25  1  0  0  0  0
 23 30  1  0  0  0  0
 24 25  2  0  0  0  0
 24 27  1  0  0  0  0
 25 32  1  0  0  0  0
 26 46  1  0  0  0  0
 26 47  1  0  0  0  0
 27 28  2  0  0  0  0
 27 35  1  0  0  0  0
 28 36  1  0  0  0  0
 29 33  2  0  0  0  0
 31 34  2  0  0  0  0
 31 50  1  0  0  0  0
 33 34  1  0  0  0  0
 33 52  1  0  0  0  0
 34 53  1  0  0  0  0
 35 39  2  0  0  0  0
 35 54  1  0  0  0  0
 36 40  2  0  0  0  0
 37 55  1  0  0  0  0
 37 56  1  0  0  0  0
 37 57  1  0  0  0  0
 38 58  1  0  0  0  0
 38 59  1  0  0  0  0
 38 60  1  0  0  0  0
 39 40  1  0  0  0  0
 39 62  1  0  0  0  0
 40 63  1  0  0  0  0
M  END
> <PUBCHEM_COMPOUND_CID>
468758

> <PUBCHEM_CONFORMER_RMSD>
0.8

> <PUBCHEM_CONFORMER_DIVERSEORDER>
1
6
2
9

> <PUBCHEM_MMFF94_PARTIAL_CHARGES>
48
1 -0.18
10 -0.04
11 -0.05
12 -0.42
13 0.54
14 0.28
15 0.28
16 0.28
17 -0.05
18 0.28
19 -0.01
2 -0.18
20 -0.15
21 -0.05
23 0.09
24 -0.01
25 0.09
26 0.28
28 -0.15
29 0.18
3 -0.56
30 0.54
31 -0.15
32 0.54
33 -0.15
34 -0.15
35 -0.15
36 0.18
37 0.28
38 0.3
39 -0.15
4 -0.68
40 -0.15
48 0.27
49 0.4
5 -0.56
50 0.15
51 0.4
52 0.15
53 0.15
54 0.15
6 -0.68
61 0.4
62 0.15
63 0.15
7 -0.68
8 -0.57
9 -0.57

> <PUBCHEM_EFFECTIVE_ROTOR_COUNT>
4.4

> <PUBCHEM_PHARMACOPHORE_FEATURES>
20
1 10 cation
1 11 cation
1 11 donor
1 3 acceptor
1 4 acceptor
1 4 donor
1 5 acceptor
1 6 acceptor
1 6 donor
1 7 acceptor
1 7 donor
1 8 acceptor
1 9 acceptor
5 10 17 19 20 22 rings
5 11 21 24 27 28 rings
5 12 23 25 30 32 rings
6 17 19 21 23 24 25 rings
6 20 22 29 31 33 34 rings
6 27 28 35 36 39 40 rings
6 3 13 14 15 16 18 rings

> <PUBCHEM_HEAVY_ATOM_COUNT>
40

> <PUBCHEM_ATOM_DEF_STEREO_COUNT>
0

> <PUBCHEM_ATOM_UDEF_STEREO_COUNT>
5

> <PUBCHEM_BOND_DEF_STEREO_COUNT>
0

> <PUBCHEM_BOND_UDEF_STEREO_COUNT>
0

> <PUBCHEM_ISOTOPIC_ATOM_COUNT>
0

> <PUBCHEM_COMPONENT_COUNT>
1

> <PUBCHEM_CACTVS_TAUTO_COUNT>
6

> <PUBCHEM_CONFORMER_ID>
0007271600000001

> <PUBCHEM_MMFF94_ENERGY>
195.1936

> <PUBCHEM_FEATURE_SELFOVERLAP>
101.975

> <PUBCHEM_SHAPE_FINGERPRINT>
10190108 129 17978824244562452096
10675989 125 17759503496529560149
10930396 42 18123718016838176864
1100329 8 18338797943410194694
12788726 201 18261951843970401648
13140716 1 18338801233344619976
1361 2 18410006680781654387
13911987 19 18334580131138926260
140371 6 18340488980079050212
14068700 675 17987785440939534519
14394314 77 18340207392906143521
14790565 3 18410580556942355732
14955137 171 18336562558982763410
15320467 1 18410291414968629604
15324884 4 17678165204452500429
15420108 30 17699866024773140489
15439362 3 18194393631264610581
15927050 60 17619629082237186060
16112460 7 18270969041366091448
19311894 1 18411418436348162030
19591789 44 18338517413801088328
20028762 73 18272368680670640247
20642791 105 17187557789957512953
20764821 26 18265060304210790436
20775438 99 17262113397082660135
21796203 349 17975455461685265136
22311459 1 18410573980877615367
23559900 14 18124305275562765296
283562 15 18268429040825630344
3178227 256 18337401517131801243
350125 39 18120659290504474795
3886686 26 17763992029844290488
463206 1 18337109076760601380
469060 322 18339647728744823617
6004065 56 18410284844243738031
9961470 85 18054499481038440409

> <PUBCHEM_SHAPE_MULTIPOLES>
770.89
10.01
7.45
1.24
3.43
0.26
0.65
-0.76
-0.25
1.53
-0.08
-2.15
0.39
-0.6

> <PUBCHEM_SHAPE_SELFOVERLAP>
1739.61

> <PUBCHEM_SHAPE_VOLUME>
406.8

> <PUBCHEM_COORDINATE_TYPE>
2
5
10

$$$$
