44317866
  -OEChem-10062122043D

 30 32  0     0  0  0  0  0  0999 V2000
   -1.0747   -4.1603   -0.0008 Cl  0  0  0  0  0  0  0  0  0  0  0  0
   -4.1623   -0.3496    0.0006 O   0  0  0  0  0  0  0  0  0  0  0  0
    0.8428    1.3576    0.0011 N   0  0  0  0  0  0  0  0  0  0  0  0
   -2.1379    0.8479    0.0001 N   0  0  0  0  0  0  0  0  0  0  0  0
    4.5155    1.6986   -0.0016 N   0  0  0  0  0  0  0  0  0  0  0  0
   -4.1653    1.9621   -0.0006 N   0  0  0  0  0  0  0  0  0  0  0  0
    0.2004    0.1416    0.0007 C   0  0  0  0  0  0  0  0  0  0  0  0
    1.1857   -0.8465    0.0004 C   0  0  0  0  0  0  0  0  0  0  0  0
    2.4543   -0.1846    0.0007 C   0  0  0  0  0  0  0  0  0  0  0  0
    2.2058    1.1876    0.0005 C   0  0  0  0  0  0  0  0  0  0  0  0
   -1.1677   -0.1538    0.0007 C   0  0  0  0  0  0  0  0  0  0  0  0
    0.7847   -2.1991   -0.0005 C   0  0  0  0  0  0  0  0  0  0  0  0
   -1.5398   -1.5008    0.0001 C   0  0  0  0  0  0  0  0  0  0  0  0
    3.7881   -0.6219    0.0007 C   0  0  0  0  0  0  0  0  0  0  0  0
   -0.5798   -2.5099   -0.0005 C   0  0  0  0  0  0  0  0  0  0  0  0
    3.2312    2.1243   -0.0003 C   0  0  0  0  0  0  0  0  0  0  0  0
    4.7607    0.3689   -0.0006 C   0  0  0  0  0  0  0  0  0  0  0  0
   -3.5412    0.7106    0.0000 C   0  0  0  0  0  0  0  0  0  0  0  0
   -5.6007    2.1273   -0.0008 C   0  0  0  0  0  0  0  0  0  0  0  0
    0.3775    2.2547    0.0012 H   0  0  0  0  0  0  0  0  0  0  0  0
    1.5336   -2.9870   -0.0009 H   0  0  0  0  0  0  0  0  0  0  0  0
   -2.5729   -1.8226    0.0000 H   0  0  0  0  0  0  0  0  0  0  0  0
    4.0534   -1.6729    0.0010 H   0  0  0  0  0  0  0  0  0  0  0  0
    3.0632    3.1933   -0.0006 H   0  0  0  0  0  0  0  0  0  0  0  0
   -1.7883    1.8023    0.0005 H   0  0  0  0  0  0  0  0  0  0  0  0
    5.8131    0.1008   -0.0012 H   0  0  0  0  0  0  0  0  0  0  0  0
   -3.5872    2.7953   -0.0457 H   0  0  0  0  0  0  0  0  0  0  0  0
   -5.9438    2.1503   -1.0382 H   0  0  0  0  0  0  0  0  0  0  0  0
   -5.8408    3.0741    0.4883 H   0  0  0  0  0  0  0  0  0  0  0  0
   -6.0817    1.2999    0.5265 H   0  0  0  0  0  0  0  0  0  0  0  0
  1 15  1  0  0  0  0
  2 18  2  0  0  0  0
  3  7  1  0  0  0  0
  3 10  1  0  0  0  0
  3 20  1  0  0  0  0
  4 11  1  0  0  0  0
  4 18  1  0  0  0  0
  4 25  1  0  0  0  0
  5 16  2  0  0  0  0
  5 17  1  0  0  0  0
  6 18  1  0  0  0  0
  6 19  1  0  0  0  0
  6 27  1  0  0  0  0
  7  8  2  0  0  0  0
  7 11  1  0  0  0  0
  8  9  1  0  0  0  0
  8 12  1  0  0  0  0
  9 10  2  0  0  0  0
  9 14  1  0  0  0  0
 10 16  1  0  0  0  0
 11 13  2  0  0  0  0
 12 15  2  0  0  0  0
 12 21  1  0  0  0  0
 13 15  1  0  0  0  0
 13 22  1  0  0  0  0
 14 17  2  0  0  0  0
 14 23  1  0  0  0  0
 16 24  1  0  0  0  0
 17 26  1  0  0  0  0
 19 28  1  0  0  0  0
 19 29  1  0  0  0  0
 19 30  1  0  0  0  0
M  END
> <PUBCHEM_COMPOUND_CID>
44317866

> <PUBCHEM_CONFORMER_RMSD>
0.6

> <PUBCHEM_CONFORMER_DIVERSEORDER>
1
7
2
5
4
6
3
9
8

> <PUBCHEM_MMFF94_PARTIAL_CHARGES>
25
1 -0.18
10 -0.15
11 0.12
12 -0.15
13 -0.15
14 -0.15
15 0.18
16 0.16
17 0.16
18 0.69
19 0.3
2 -0.57
20 0.27
21 0.15
22 0.15
23 0.15
24 0.15
25 0.37
26 0.15
27 0.37
3 0.03
4 -0.55
5 -0.62
6 -0.73
7 -0.15

> <PUBCHEM_EFFECTIVE_ROTOR_COUNT>
3

> <PUBCHEM_PHARMACOPHORE_FEATURES>
9
1 2 acceptor
1 3 cation
1 3 donor
1 4 donor
1 5 acceptor
1 6 donor
5 3 7 8 9 10 rings
6 5 9 10 14 16 17 rings
6 7 8 11 12 13 15 rings

> <PUBCHEM_HEAVY_ATOM_COUNT>
19

> <PUBCHEM_ATOM_DEF_STEREO_COUNT>
0

> <PUBCHEM_ATOM_UDEF_STEREO_COUNT>
0

> <PUBCHEM_BOND_DEF_STEREO_COUNT>
0

> <PUBCHEM_BOND_UDEF_STEREO_COUNT>
0

> <PUBCHEM_ISOTOPIC_ATOM_COUNT>
0

> <PUBCHEM_COMPONENT_COUNT>
1

> <PUBCHEM_CACTVS_TAUTO_COUNT>
6

> <PUBCHEM_CONFORMER_ID>
02A43CAA00000001

> <PUBCHEM_MMFF94_ENERGY>
41.7254

> <PUBCHEM_FEATURE_SELFOVERLAP>
45.904

> <PUBCHEM_SHAPE_FINGERPRINT>
10411042 1 17401769017288709606
10493431 412 18409729581791315597
10608611 8 18125157384405589704
10693767 8 17771340872952999383
10967382 1 18410856538697780998
1100329 8 18264201422843753530
12173636 292 18339076115620514583
12293681 160 17846498102012149777
12390115 104 18269856309865615473
12500047 106 18341047527379561912
12532896 13 18410857667863230119
12644460 14 18042686109134120754
12730499 353 18336837373229972065
12769317 202 18195513819128323189
12788726 201 17901940073757522146
13140716 1 18337943606455212170
13380535 76 18341614832198031110
13544592 145 18342751693473096350
13583140 156 17023171773630424729
138480 1 17618221706926747843
14123255 52 18410572881540132321
14178342 30 18049143756184006232
14790565 3 18410580565189866709
15042514 8 18048322438125906619
15099037 51 18411140208482031310
15196674 1 18410856559729557797
16945 1 17762056945065889030
18222031 100 8285908030946431065
19591789 44 18337671897749043526
19784866 9 18340485543772819857
20157964 124 18193833740187318445
204376 136 18410577266917928515
20510252 161 18126289876544029970
21033648 29 18341325673620046857
212916 134 18270942597141108754
21307412 95 17915204359524874974
21501502 16 18191584375223840302
21524375 3 18333449841691246883
22182313 1 18268172948699736455
22950370 63 9223228572368363501
23402539 116 18272644649546587621
23402655 69 18273210876855396381
23558518 356 17900539283316600864
23559900 14 18272090526821428652
25 1 18411695461252567518
293599 30 18410013221584595716
3091708 16 9193532932297937923
335352 9 18410856521792407214
34934 24 18409162238803534992
350125 39 18266745873053663457
394222 165 18188486878505183067
474 4 18339925901139343169
474229 33 18337955692493592099
5104073 3 18407758144541955505
6138700 20 18123756348989341142
633830 44 18272087145949041733
69090 78 18410008870634875846
7164475 11 17905047306612885654
7364860 26 18123188992145883039
77188 2 17185314790616167335
7832392 63 18337388352919739068
81228 2 17757259749705532579
8272917 22 18197218040718003629
9709674 26 18270969071636551782

> <PUBCHEM_SHAPE_MULTIPOLES>
367.09
9.26
3.48
0.6
4.37
3.53
0
-8.69
0
2.1
0
-0.02
0.04
0

> <PUBCHEM_SHAPE_SELFOVERLAP>
802.714

> <PUBCHEM_SHAPE_VOLUME>
201.2

> <PUBCHEM_COORDINATE_TYPE>
2
5
10

$$$$
