11676233
  -OEChem-10052115173D

 48 51  0     0  0  0  0  0  0999 V2000
    8.2192   -1.2517   -1.6384 F   0  0  0  0  0  0  0  0  0  0  0  0
    9.3443   -0.4027    0.0100 F   0  0  0  0  0  0  0  0  0  0  0  0
    8.3976    0.9069   -1.4451 F   0  0  0  0  0  0  0  0  0  0  0  0
    1.8429    0.1639    1.4537 O   0  0  0  0  0  0  0  0  0  0  0  0
   -7.2670   -1.3157    0.0668 N   0  0  0  0  0  0  0  0  0  0  0  0
   -6.3672   -2.2943   -0.1301 N   0  0  0  0  0  0  0  0  0  0  0  0
   -6.4804    2.2763    0.3154 N   0  0  0  0  0  0  0  0  0  0  0  0
   -3.9969   -2.2232   -0.3998 N   0  0  0  0  0  0  0  0  0  0  0  0
    1.0536    0.4204   -0.7374 N   0  0  0  0  0  0  0  0  0  0  0  0
    3.3197    0.1805   -0.3596 N   0  0  0  0  0  0  0  0  0  0  0  0
   -5.3580   -0.2414   -0.0530 C   0  0  0  0  0  0  0  0  0  0  0  0
   -4.5170    0.8757   -0.0449 C   0  0  0  0  0  0  0  0  0  0  0  0
   -6.7249   -0.0618    0.1225 C   0  0  0  0  0  0  0  0  0  0  0  0
   -3.0932    0.7586   -0.2220 C   0  0  0  0  0  0  0  0  0  0  0  0
   -5.2073   -1.6367   -0.2024 C   0  0  0  0  0  0  0  0  0  0  0  0
   -5.1477    2.0998    0.1441 C   0  0  0  0  0  0  0  0  0  0  0  0
   -7.2904    1.1906    0.3067 C   0  0  0  0  0  0  0  0  0  0  0  0
   -2.2569    0.5885    0.8860 C   0  0  0  0  0  0  0  0  0  0  0  0
   -2.5351    0.8149   -1.5033 C   0  0  0  0  0  0  0  0  0  0  0  0
   -0.3264    0.5328   -0.5658 C   0  0  0  0  0  0  0  0  0  0  0  0
   -8.6641   -1.6595    0.1978 C   0  0  0  0  0  0  0  0  0  0  0  0
   -0.8771    0.4760    0.7146 C   0  0  0  0  0  0  0  0  0  0  0  0
   -1.1554    0.7022   -1.6746 C   0  0  0  0  0  0  0  0  0  0  0  0
    4.5785    0.0125    0.2643 C   0  0  0  0  0  0  0  0  0  0  0  0
    2.0556    0.2456    0.2481 C   0  0  0  0  0  0  0  0  0  0  0  0
    6.9629   -0.1926    0.0996 C   0  0  0  0  0  0  0  0  0  0  0  0
    5.7222   -0.0265   -0.5158 C   0  0  0  0  0  0  0  0  0  0  0  0
    4.6403   -0.1098    1.6427 C   0  0  0  0  0  0  0  0  0  0  0  0
    7.0422   -0.3171    1.4866 C   0  0  0  0  0  0  0  0  0  0  0  0
    5.8810   -0.2757    2.2582 C   0  0  0  0  0  0  0  0  0  0  0  0
    8.2049   -0.2364   -0.7248 C   0  0  0  0  0  0  0  0  0  0  0  0
   -4.5752    3.0240    0.1650 H   0  0  0  0  0  0  0  0  0  0  0  0
   -8.3496    1.3606    0.4450 H   0  0  0  0  0  0  0  0  0  0  0  0
   -2.6703    0.5415    1.8911 H   0  0  0  0  0  0  0  0  0  0  0  0
   -3.1664    0.9461   -2.3793 H   0  0  0  0  0  0  0  0  0  0  0  0
   -9.1922   -1.2818   -0.6811 H   0  0  0  0  0  0  0  0  0  0  0  0
   -8.7698   -2.7458    0.2604 H   0  0  0  0  0  0  0  0  0  0  0  0
   -9.0523   -1.1993    1.1097 H   0  0  0  0  0  0  0  0  0  0  0  0
   -0.3045    0.3468    1.6217 H   0  0  0  0  0  0  0  0  0  0  0  0
   -0.7399    0.7480   -2.6781 H   0  0  0  0  0  0  0  0  0  0  0  0
   -3.1174   -1.7243   -0.4550 H   0  0  0  0  0  0  0  0  0  0  0  0
   -3.9132   -3.2298   -0.5053 H   0  0  0  0  0  0  0  0  0  0  0  0
    1.3797    0.4712   -1.6994 H   0  0  0  0  0  0  0  0  0  0  0  0
    5.6614    0.0705   -1.5969 H   0  0  0  0  0  0  0  0  0  0  0  0
    3.3425    0.2637   -1.3729 H   0  0  0  0  0  0  0  0  0  0  0  0
    3.7918   -0.0886    2.3096 H   0  0  0  0  0  0  0  0  0  0  0  0
    7.9993   -0.4471    1.9844 H   0  0  0  0  0  0  0  0  0  0  0  0
    5.9441   -0.3729    3.3383 H   0  0  0  0  0  0  0  0  0  0  0  0
  1 31  1  0  0  0  0
  2 31  1  0  0  0  0
  3 31  1  0  0  0  0
  4 25  2  0  0  0  0
  5  6  1  0  0  0  0
  5 13  1  0  0  0  0
  5 21  1  0  0  0  0
  6 15  2  0  0  0  0
  7 16  1  0  0  0  0
  7 17  2  0  0  0  0
  8 15  1  0  0  0  0
  8 41  1  0  0  0  0
  8 42  1  0  0  0  0
  9 20  1  0  0  0  0
  9 25  1  0  0  0  0
  9 43  1  0  0  0  0
 10 24  1  0  0  0  0
 10 25  1  0  0  0  0
 10 45  1  0  0  0  0
 11 12  1  0  0  0  0
 11 13  2  0  0  0  0
 11 15  1  0  0  0  0
 12 14  1  0  0  0  0
 12 16  2  0  0  0  0
 13 17  1  0  0  0  0
 14 18  2  0  0  0  0
 14 19  1  0  0  0  0
 16 32  1  0  0  0  0
 17 33  1  0  0  0  0
 18 22  1  0  0  0  0
 18 34  1  0  0  0  0
 19 23  2  0  0  0  0
 19 35  1  0  0  0  0
 20 22  2  0  0  0  0
 20 23  1  0  0  0  0
 21 36  1  0  0  0  0
 21 37  1  0  0  0  0
 21 38  1  0  0  0  0
 22 39  1  0  0  0  0
 23 40  1  0  0  0  0
 24 27  1  0  0  0  0
 24 28  2  0  0  0  0
 26 27  2  0  0  0  0
 26 29  1  0  0  0  0
 26 31  1  0  0  0  0
 27 44  1  0  0  0  0
 28 30  1  0  0  0  0
 28 46  1  0  0  0  0
 29 30  2  0  0  0  0
 29 47  1  0  0  0  0
 30 48  1  0  0  0  0
M  END
> <PUBCHEM_COMPOUND_CID>
11676233

> <PUBCHEM_CONFORMER_RMSD>
0.8

> <PUBCHEM_CONFORMER_DIVERSEORDER>
1
13
16
20
8
17
14
12
19
3
15
4
11
18
10
9
7
6
5
2

> <PUBCHEM_MMFF94_PARTIAL_CHARGES>
42
1 -0.34
10 -0.55
13 -0.15
15 0.37
16 0.16
17 0.16
18 -0.15
19 -0.15
2 -0.34
20 0.12
21 0.26
22 -0.15
23 -0.15
24 0.12
25 0.69
26 -0.14
27 -0.15
28 -0.15
29 -0.15
3 -0.34
30 -0.15
31 1.16
32 0.15
33 0.15
34 0.15
35 0.15
39 0.15
4 -0.57
40 0.15
41 0.4
42 0.4
43 0.37
44 0.15
45 0.37
46 0.15
47 0.15
48 0.15
5 0.31
6 -0.71
7 -0.62
8 -0.88
9 -0.55

> <PUBCHEM_EFFECTIVE_ROTOR_COUNT>
6

> <PUBCHEM_PHARMACOPHORE_FEATURES>
10
1 10 donor
1 4 acceptor
1 7 acceptor
1 8 donor
1 9 donor
3 6 8 15 cation
5 5 6 11 13 15 rings
6 14 18 19 20 22 23 rings
6 24 26 27 28 29 30 rings
6 7 11 12 13 16 17 rings

> <PUBCHEM_HEAVY_ATOM_COUNT>
31

> <PUBCHEM_ATOM_DEF_STEREO_COUNT>
0

> <PUBCHEM_ATOM_UDEF_STEREO_COUNT>
0

> <PUBCHEM_BOND_DEF_STEREO_COUNT>
0

> <PUBCHEM_BOND_UDEF_STEREO_COUNT>
0

> <PUBCHEM_ISOTOPIC_ATOM_COUNT>
0

> <PUBCHEM_COMPONENT_COUNT>
1

> <PUBCHEM_CACTVS_TAUTO_COUNT>
12

> <PUBCHEM_CONFORMER_ID>
00B22A4900000001

> <PUBCHEM_MMFF94_ENERGY>
87.2739

> <PUBCHEM_FEATURE_SELFOVERLAP>
50.892

> <PUBCHEM_SHAPE_FINGERPRINT>
10 15 17632570582629154408
10299344 5 18113335301954698528
10391435 84 15068629318018987456
11315181 36 18259703398626589197
11524674 6 17775562065917314191
12082328 90 18341612585877225660
12089408 11 18040716952992415304
12144603 126 17530962450355136133
13885169 127 18343022168479476729
14068700 675 18260267451580121037
14251764 18 17603867793184531216
14251764 46 14490192708891737233
14344974 204 17559104604586525903
14344974 52 11458429064116499347
14856354 85 18409166628244371823
15183329 4 16950277412304223858
15301273 46 17989487407756423252
15328684 2 17969774186162205928
15352257 5 18343584027875656702
15419008 47 17703783696193280240
15419008 91 18058430085037163520
15461852 350 18409172112168613305
15510794 2 17846499214207952415
1577012 14 17676485016949967440
15849732 13 17775001284800934028
15980000 95 17458631098933253308
1818759 1 18187088373283314739
18608769 82 18273495684853394446
19611394 137 17703508891352611347
20105231 36 17489873739300492278
21095086 128 18334012775240271958
21150785 3 17458061577947898990
21267235 1 16487259859714884312
21360443 120 17603583015452544811
21792961 116 17131554942848897600
23389318 12 16877661283829521718
23516275 137 18190757327146885691
23522609 53 17677917667658802580
328311 84 17346881144080091188
397830 11 17773583000330697009
4325135 7 18113617889064389646
4339292 15 17988635342527975879
437795 51 17775570815003034046
445580 167 16588023515841065548
45377200 153 18337397127433365506
5219985 9 17603302648239578340
57676310 188 18040996215729543338
5969126 39 16515394154297747613
6691757 9 18411703172074468859
67123 10 18410294722979859292
9937071 3 17274825702565285934
9953998 17 17131833201512451095

> <PUBCHEM_SHAPE_MULTIPOLES>
580.39
30.73
1.64
1.4
32.39
0.31
-0.17
7.52
1.14
-4.7
0.14
2.77
-0.02
-1.02

> <PUBCHEM_SHAPE_SELFOVERLAP>
1288.991

> <PUBCHEM_SHAPE_VOLUME>
311.7

> <PUBCHEM_COORDINATE_TYPE>
2
5
10

$$$$
