49830439
  -OEChem-10052115173D

 41 43  0     0  0  0  0  0  0999 V2000
   -6.1634   -1.6396   -0.0297 S   0  0  0  0  0  0  0  0  0  0  0  0
   -2.7313    0.7114    0.3030 O   0  0  0  0  0  0  0  0  0  0  0  0
   -5.4593   -2.3304    1.0328 O   0  0  0  0  0  0  0  0  0  0  0  0
   -6.5301   -2.3328   -1.2497 O   0  0  0  0  0  0  0  0  0  0  0  0
   -5.3258   -0.2176   -0.4536 N   0  0  0  0  0  0  0  0  0  0  0  0
   -0.1684    3.1825   -0.4774 N   0  0  0  0  0  0  0  0  0  0  0  0
    6.8099   -1.5393    0.2016 N   0  0  0  0  0  0  0  0  0  0  0  0
    2.0803    0.2208   -0.1811 C   0  0  0  0  0  0  0  0  0  0  0  0
    0.8741    1.0202   -0.1892 C   0  0  0  0  0  0  0  0  0  0  0  0
   -5.1187    0.8272    0.5752 C   0  0  0  0  0  0  0  0  0  0  0  0
    4.4764    0.0360    0.1941 C   0  0  0  0  0  0  0  0  0  0  0  0
   -3.8497    1.6006    0.2670 C   0  0  0  0  0  0  0  0  0  0  0  0
    3.2976    0.7995    0.1821 C   0  0  0  0  0  0  0  0  0  0  0  0
    4.4154   -1.3261   -0.1660 C   0  0  0  0  0  0  0  0  0  0  0  0
    2.0241   -1.1249   -0.5361 C   0  0  0  0  0  0  0  0  0  0  0  0
   -0.3667    0.4481    0.0687 C   0  0  0  0  0  0  0  0  0  0  0  0
   -1.5085    1.2416    0.0540 C   0  0  0  0  0  0  0  0  0  0  0  0
    3.1849   -1.8981   -0.5296 C   0  0  0  0  0  0  0  0  0  0  0  0
    0.9191    2.3795   -0.4542 C   0  0  0  0  0  0  0  0  0  0  0  0
    5.7118    0.5870    0.5537 C   0  0  0  0  0  0  0  0  0  0  0  0
    5.6073   -2.0530   -0.1421 C   0  0  0  0  0  0  0  0  0  0  0  0
   -1.3570    2.5910   -0.2220 C   0  0  0  0  0  0  0  0  0  0  0  0
   -7.6520   -0.9513    0.6577 C   0  0  0  0  0  0  0  0  0  0  0  0
    6.8301   -0.2326    0.5406 C   0  0  0  0  0  0  0  0  0  0  0  0
   -5.9798    1.5024    0.5817 H   0  0  0  0  0  0  0  0  0  0  0  0
   -5.0195    0.3562    1.5589 H   0  0  0  0  0  0  0  0  0  0  0  0
   -3.9442    2.0484   -0.7305 H   0  0  0  0  0  0  0  0  0  0  0  0
   -3.7371    2.3823    1.0282 H   0  0  0  0  0  0  0  0  0  0  0  0
    3.3595    1.8415    0.4904 H   0  0  0  0  0  0  0  0  0  0  0  0
    1.1033   -1.6076   -0.8522 H   0  0  0  0  0  0  0  0  0  0  0  0
   -0.4804   -0.6052    0.3114 H   0  0  0  0  0  0  0  0  0  0  0  0
   -5.5234    0.1665   -1.3872 H   0  0  0  0  0  0  0  0  0  0  0  0
    3.1249   -2.9458   -0.8153 H   0  0  0  0  0  0  0  0  0  0  0  0
    1.8380    2.9047   -0.6947 H   0  0  0  0  0  0  0  0  0  0  0  0
    5.8077    1.6304    0.8383 H   0  0  0  0  0  0  0  0  0  0  0  0
    5.6303   -3.1063   -0.4081 H   0  0  0  0  0  0  0  0  0  0  0  0
   -2.1761    3.2995   -0.2588 H   0  0  0  0  0  0  0  0  0  0  0  0
   -8.1148   -0.2939   -0.0808 H   0  0  0  0  0  0  0  0  0  0  0  0
   -7.4190   -0.4133    1.5776 H   0  0  0  0  0  0  0  0  0  0  0  0
   -8.3277   -1.7796    0.8839 H   0  0  0  0  0  0  0  0  0  0  0  0
    7.8054    0.1579    0.8128 H   0  0  0  0  0  0  0  0  0  0  0  0
  1  3  2  0  0  0  0
  1  4  2  0  0  0  0
  1  5  1  0  0  0  0
  1 23  1  0  0  0  0
  2 12  1  0  0  0  0
  2 17  1  0  0  0  0
  5 10  1  0  0  0  0
  5 32  1  0  0  0  0
  6 19  2  0  0  0  0
  6 22  1  0  0  0  0
  7 21  2  0  0  0  0
  7 24  1  0  0  0  0
  8  9  1  0  0  0  0
  8 13  2  0  0  0  0
  8 15  1  0  0  0  0
  9 16  2  0  0  0  0
  9 19  1  0  0  0  0
 10 12  1  0  0  0  0
 10 25  1  0  0  0  0
 10 26  1  0  0  0  0
 11 13  1  0  0  0  0
 11 14  2  0  0  0  0
 11 20  1  0  0  0  0
 12 27  1  0  0  0  0
 12 28  1  0  0  0  0
 13 29  1  0  0  0  0
 14 18  1  0  0  0  0
 14 21  1  0  0  0  0
 15 18  2  0  0  0  0
 15 30  1  0  0  0  0
 16 17  1  0  0  0  0
 16 31  1  0  0  0  0
 17 22  2  0  0  0  0
 18 33  1  0  0  0  0
 19 34  1  0  0  0  0
 20 24  2  0  0  0  0
 20 35  1  0  0  0  0
 21 36  1  0  0  0  0
 22 37  1  0  0  0  0
 23 38  1  0  0  0  0
 23 39  1  0  0  0  0
 23 40  1  0  0  0  0
 24 41  1  0  0  0  0
M  END
> <PUBCHEM_COMPOUND_CID>
49830439

> <PUBCHEM_CONFORMER_RMSD>
1

> <PUBCHEM_CONFORMER_DIVERSEORDER>
2
14
49
63
55
52
33
23
60
71
91
19
94
76
83
48
11
69
89
32
74
7
3
28
73
18
67
82
5
17
54
36
31
79
86
8
75
56
27
24
41
93
6
77
9
21
42
61
29
38
4
95
87
58
44
13
50
85
57
10
25
80
30
46
22
51
72
12
53
35
45
88
78
16
96
62
34
66
15
81
64
26
47
59
90
92
1
43
70
84
68
65
40
39
37
20

> <PUBCHEM_MMFF94_PARTIAL_CHARGES>
30
1 1.33
10 0.36
12 0.28
13 -0.15
15 -0.15
16 -0.15
17 0.08
18 -0.15
19 0.16
2 -0.36
20 -0.15
21 0.16
22 0.16
23 0.11
24 0.16
29 0.15
3 -0.65
30 0.15
31 0.15
32 0.42
33 0.15
34 0.15
35 0.15
36 0.15
37 0.15
4 -0.65
41 0.15
5 -0.91
6 -0.62
7 -0.62

> <PUBCHEM_EFFECTIVE_ROTOR_COUNT>
6

> <PUBCHEM_PHARMACOPHORE_FEATURES>
9
1 2 acceptor
1 3 acceptor
1 4 acceptor
1 5 donor
1 6 acceptor
1 7 acceptor
6 6 9 16 17 19 22 rings
6 7 11 14 20 21 24 rings
6 8 11 13 14 15 18 rings

> <PUBCHEM_HEAVY_ATOM_COUNT>
24

> <PUBCHEM_ATOM_DEF_STEREO_COUNT>
0

> <PUBCHEM_ATOM_UDEF_STEREO_COUNT>
0

> <PUBCHEM_BOND_DEF_STEREO_COUNT>
0

> <PUBCHEM_BOND_UDEF_STEREO_COUNT>
0

> <PUBCHEM_ISOTOPIC_ATOM_COUNT>
0

> <PUBCHEM_COMPONENT_COUNT>
1

> <PUBCHEM_CACTVS_TAUTO_COUNT>
1

> <PUBCHEM_CONFORMER_ID>
02F85A2700000002

> <PUBCHEM_MMFF94_ENERGY>
70.9279

> <PUBCHEM_FEATURE_SELFOVERLAP>
45.718

> <PUBCHEM_SHAPE_FINGERPRINT>
10 15 11887677282460473607
10670039 82 12324230668908182463
11211813 128 18343584032608233406
11578080 2 16700306833429575546
11724838 91 18334294276176534692
11963148 33 18337384946943082598
12516196 113 18411982455262558841
12596602 18 17632581521831658458
12623949 98 17916878902537631510
13685833 64 18409450284610827057
13782708 43 18271804558818621362
13862211 1 18335422356819013697
14211702 104 18341058444970546831
14251732 16 18342737416685286544
14461889 52 18412819214472555642
1454969 45 18338240461604444652
15183329 4 11891329846527972679
15350500 55 12750971984057103227
15510800 12 18113914774916866267
15728490 51 18271803558043554430
15927050 60 17695063697433513780
17492 89 18121778327634112994
17780758 139 17989209218799031129
17857418 61 18341052995326577735
20028762 73 18413671309560715174
20281389 69 11023831660787323771
20567600 70 18335984250606151699
20621476 66 9799686013083021434
21033650 10 16370995275427580637
21130935 74 18199749155361915658
21197605 99 18343584074993741918
21267235 1 18342179930325696742
21623969 137 17989209226481766718
22149856 69 18201166468367054544
22864921 47 18115852049896381394
23424784 1240 18201165334227052823
23522609 53 18122940635304049232
23559900 14 18191022503508027913
3004659 81 17894631469585134657
3383291 50 18187650249658871763
3627633 1 18337389331973030973
4073 2 18408610240499903499
4340502 62 15698000721803310748
4461854 278 18059584632434100591
465052 167 18272371954041854956
5104073 3 18129941174376561144
559249 180 18411702068125676041
5718773 13 18262796260042073650
59682541 35 18343292683580324416
6431902 208 18411698794822753791
999808 66 18113627811393853347

> <PUBCHEM_SHAPE_MULTIPOLES>
465.21
20.23
2.9
0.81
14.81
0.6
0.01
-15.72
-3.07
1.93
0.46
0.49
-0.18
0.07

> <PUBCHEM_SHAPE_SELFOVERLAP>
993.315

> <PUBCHEM_SHAPE_VOLUME>
260.4

> <PUBCHEM_COORDINATE_TYPE>
2
5
10

$$$$
