57325421
  -OEChem-10052120443D

 73 78  0     1  0  0  0  0  0999 V2000
    6.1475    2.0977   -1.5160 Cl  0  0  0  0  0  0  0  0  0  0  0  0
    6.4401   -2.8961   -1.1290 O   0  0  0  0  0  0  0  0  0  0  0  0
   -7.5546   -1.6583   -2.5739 O   0  0  0  0  0  0  0  0  0  0  0  0
   -1.9774    3.4114    0.0330 O   0  0  0  0  0  0  0  0  0  0  0  0
    4.2713   -0.0707   -0.5444 N   0  0  0  0  0  0  0  0  0  0  0  0
    5.1416   -1.7519   -2.6452 N   0  0  0  0  0  0  0  0  0  0  0  0
   -6.0280   -1.3530   -0.1911 N   0  0  0  0  0  0  0  0  0  0  0  0
    2.4797    1.3989   -0.0741 N   0  0  0  0  0  0  0  0  0  0  0  0
    0.7152    2.8682    0.3882 N   0  0  0  0  0  0  0  0  0  0  0  0
    2.7055    3.7671   -0.4585 N   0  0  0  0  0  0  0  0  0  0  0  0
    3.5720   -1.3597    1.4192 C   0  0  2  0  0  0  0  0  0  0  0  0
    4.4457   -3.2957    0.7142 C   0  0  1  0  0  0  0  0  0  0  0  0
    3.5220   -1.2098   -0.1238 C   0  0  2  0  0  0  0  0  0  0  0  0
    4.1282   -2.5637   -0.6156 C   0  0  1  0  0  0  0  0  0  0  0  0
    4.8783   -2.1365    1.6203 C   0  0  0  0  0  0  0  0  0  0  0  0
    2.6021   -2.4555    1.8024 C   0  0  0  0  0  0  0  0  0  0  0  0
    3.1266   -3.6164    1.3808 C   0  0  0  0  0  0  0  0  0  0  0  0
    5.3534   -2.4371   -1.4721 C   0  0  0  0  0  0  0  0  0  0  0  0
    3.7440    1.2438   -0.5192 C   0  0  0  0  0  0  0  0  0  0  0  0
   -5.2359   -0.5614    0.7479 C   0  0  2  0  0  0  0  0  0  0  0  0
   -4.7969    0.7281    0.0387 C   0  0  0  0  0  0  0  0  0  0  0  0
   -4.0784   -1.4337    1.2554 C   0  0  0  0  0  0  0  0  0  0  0  0
   -4.0704    1.7215    0.9474 C   0  0  0  0  0  0  0  0  0  0  0  0
   -3.2405   -0.7776    2.3544 C   0  0  0  0  0  0  0  0  0  0  0  0
    4.5405    2.2871   -0.9449 C   0  0  0  0  0  0  0  0  0  0  0  0
   -2.6169    1.3790    1.1573 C   0  0  0  0  0  0  0  0  0  0  0  0
   -2.2261    0.2020    1.8204 C   0  0  0  0  0  0  0  0  0  0  0  0
   -5.3891   -1.3862   -1.5141 C   0  0  0  0  0  0  0  0  0  0  0  0
   -7.3919   -0.8180   -0.3040 C   0  0  0  0  0  0  0  0  0  0  0  0
   -6.2394   -2.2068   -2.4798 C   0  0  0  0  0  0  0  0  0  0  0  0
   -8.1948   -1.6528   -1.2973 C   0  0  0  0  0  0  0  0  0  0  0  0
   -1.6297    2.2612    0.6859 C   0  0  0  0  0  0  0  0  0  0  0  0
    2.0304    2.6684   -0.0705 C   0  0  0  0  0  0  0  0  0  0  0  0
   -0.2754    1.9821    0.8653 C   0  0  0  0  0  0  0  0  0  0  0  0
    3.9628    3.5392   -0.8918 C   0  0  0  0  0  0  0  0  0  0  0  0
   -0.8575   -0.0646    1.9959 C   0  0  0  0  0  0  0  0  0  0  0  0
    0.1108    0.8189    1.5206 C   0  0  0  0  0  0  0  0  0  0  0  0
   -2.1150    3.3307   -1.3819 C   0  0  0  0  0  0  0  0  0  0  0  0
    3.4914   -0.4496    2.0153 H   0  0  0  0  0  0  0  0  0  0  0  0
    5.1460   -4.1317    0.6773 H   0  0  0  0  0  0  0  0  0  0  0  0
    2.4861   -1.1439   -0.4835 H   0  0  0  0  0  0  0  0  0  0  0  0
    3.3821   -3.1279   -1.1922 H   0  0  0  0  0  0  0  0  0  0  0  0
    5.0491   -2.4386    2.6620 H   0  0  0  0  0  0  0  0  0  0  0  0
    5.7656   -1.6039    1.2627 H   0  0  0  0  0  0  0  0  0  0  0  0
    1.6445   -2.3217    2.2784 H   0  0  0  0  0  0  0  0  0  0  0  0
    2.6691   -4.5900    1.4522 H   0  0  0  0  0  0  0  0  0  0  0  0
    5.2851   -0.1201   -0.5122 H   0  0  0  0  0  0  0  0  0  0  0  0
    4.2320   -1.3800   -2.8995 H   0  0  0  0  0  0  0  0  0  0  0  0
    5.8980   -1.5966   -3.3032 H   0  0  0  0  0  0  0  0  0  0  0  0
   -5.8503   -0.3038    1.6215 H   0  0  0  0  0  0  0  0  0  0  0  0
   -5.6598    1.2683   -0.3648 H   0  0  0  0  0  0  0  0  0  0  0  0
   -4.1031    0.5367   -0.7882 H   0  0  0  0  0  0  0  0  0  0  0  0
   -3.4157   -1.7482    0.4403 H   0  0  0  0  0  0  0  0  0  0  0  0
   -4.5072   -2.3534    1.6776 H   0  0  0  0  0  0  0  0  0  0  0  0
   -4.1822    2.7219    0.5149 H   0  0  0  0  0  0  0  0  0  0  0  0
   -4.5677    1.7868    1.9236 H   0  0  0  0  0  0  0  0  0  0  0  0
   -2.7180   -1.5742    2.8999 H   0  0  0  0  0  0  0  0  0  0  0  0
   -3.8775   -0.2821    3.0972 H   0  0  0  0  0  0  0  0  0  0  0  0
   -5.3325   -0.4008   -1.9894 H   0  0  0  0  0  0  0  0  0  0  0  0
   -4.3885   -1.8277   -1.4816 H   0  0  0  0  0  0  0  0  0  0  0  0
   -7.8957   -0.8544    0.6690 H   0  0  0  0  0  0  0  0  0  0  0  0
   -7.4036    0.2210   -0.6496 H   0  0  0  0  0  0  0  0  0  0  0  0
   -5.7977   -2.1839   -3.4814 H   0  0  0  0  0  0  0  0  0  0  0  0
   -6.3019   -3.2573   -2.1704 H   0  0  0  0  0  0  0  0  0  0  0  0
   -8.3231   -2.6846   -0.9479 H   0  0  0  0  0  0  0  0  0  0  0  0
   -9.1928   -1.2218   -1.4270 H   0  0  0  0  0  0  0  0  0  0  0  0
   -0.5362   -0.9628    2.5176 H   0  0  0  0  0  0  0  0  0  0  0  0
    4.5007    4.4293   -1.2035 H   0  0  0  0  0  0  0  0  0  0  0  0
    0.3872    3.8179    0.2401 H   0  0  0  0  0  0  0  0  0  0  0  0
    1.1472    0.5822    1.7315 H   0  0  0  0  0  0  0  0  0  0  0  0
   -2.4526    4.3041   -1.7482 H   0  0  0  0  0  0  0  0  0  0  0  0
   -2.8566    2.5777   -1.6649 H   0  0  0  0  0  0  0  0  0  0  0  0
   -1.1538    3.0984   -1.8510 H   0  0  0  0  0  0  0  0  0  0  0  0
  1 25  1  0  0  0  0
  2 18  2  0  0  0  0
  3 30  1  0  0  0  0
  3 31  1  0  0  0  0
  4 32  1  0  0  0  0
  4 38  1  0  0  0  0
  5 13  1  0  0  0  0
  5 19  1  0  0  0  0
  5 47  1  0  0  0  0
  6 18  1  0  0  0  0
  6 48  1  0  0  0  0
  6 49  1  0  0  0  0
  7 20  1  0  0  0  0
  7 28  1  0  0  0  0
  7 29  1  0  0  0  0
  8 19  2  0  0  0  0
  8 33  1  0  0  0  0
  9 33  1  0  0  0  0
  9 34  1  0  0  0  0
  9 69  1  0  0  0  0
 10 33  2  0  0  0  0
 10 35  1  0  0  0  0
 11 13  1  0  0  0  0
 11 15  1  0  0  0  0
 11 16  1  0  0  0  0
 11 39  1  0  0  0  0
 12 14  1  0  0  0  0
 12 15  1  0  0  0  0
 12 17  1  0  0  0  0
 12 40  1  0  0  0  0
 13 14  1  0  0  0  0
 13 41  1  0  0  0  0
 14 18  1  0  0  0  0
 14 42  1  0  0  0  0
 15 43  1  0  0  0  0
 15 44  1  0  0  0  0
 16 17  2  0  0  0  0
 16 45  1  0  0  0  0
 17 46  1  0  0  0  0
 19 25  1  0  0  0  0
 20 21  1  0  0  0  0
 20 22  1  0  0  0  0
 20 50  1  0  0  0  0
 21 23  1  0  0  0  0
 21 51  1  0  0  0  0
 21 52  1  0  0  0  0
 22 24  1  0  0  0  0
 22 53  1  0  0  0  0
 22 54  1  0  0  0  0
 23 26  1  0  0  0  0
 23 55  1  0  0  0  0
 23 56  1  0  0  0  0
 24 27  1  0  0  0  0
 24 57  1  0  0  0  0
 24 58  1  0  0  0  0
 25 35  2  0  0  0  0
 26 27  2  0  0  0  0
 26 32  1  0  0  0  0
 27 36  1  0  0  0  0
 28 30  1  0  0  0  0
 28 59  1  0  0  0  0
 28 60  1  0  0  0  0
 29 31  1  0  0  0  0
 29 61  1  0  0  0  0
 29 62  1  0  0  0  0
 30 63  1  0  0  0  0
 30 64  1  0  0  0  0
 31 65  1  0  0  0  0
 31 66  1  0  0  0  0
 32 34  2  0  0  0  0
 34 37  1  0  0  0  0
 35 68  1  0  0  0  0
 36 37  2  0  0  0  0
 36 67  1  0  0  0  0
 37 70  1  0  0  0  0
 38 71  1  0  0  0  0
 38 72  1  0  0  0  0
 38 73  1  0  0  0  0
M  END
> <PUBCHEM_COMPOUND_CID>
57325421

> <PUBCHEM_CONFORMER_RMSD>
1

> <PUBCHEM_CONFORMER_DIVERSEORDER>
1
179
38
95
42
147
74
127
129
39
79
149
96
144
113
166
67
114
32
177
105
90
122
68
143
138
134
128
45
13
175
24
81
98
46
184
101
91
37
85
126
164
69
22
107
83
159
146
160
141
75
111
150
172
102
77
163
110
56
119
31
93
153
174
103
183
7
176
61
86
40
48
145
58
55
132
170
63
178
43
97
173
142
78
186
167
84
57
44
66
155
88
165
181
109
136
35
76
53
9
100
14
137
162
72
36
180
89
87
124
112
70
4
135
151
65
51
131
123
117
82
108
169
148
52
16
27
73
29
15
6
30
64
47
133
154
116
115
99
185
33
161
20
41
60
168
125
54
49
17
50
71
8
182
171
2
94
120
104
139
28
19
25
34
130
10
80
21
118
140
121
158
11
59
3
152
106
5
26
157
12
18
92
62
156
23

> <PUBCHEM_MMFF94_PARTIAL_CHARGES>
44
1 -0.18
10 -0.62
11 0.14
12 0.14
13 0.37
14 0.06
16 -0.29
17 -0.29
18 0.57
19 0.41
2 -0.57
20 0.27
23 0.14
24 0.14
25 0.18
26 -0.14
27 -0.14
28 0.27
29 0.27
3 -0.56
30 0.28
31 0.28
32 0.08
33 0.72
34 0.1
35 0.16
36 -0.15
37 -0.15
38 0.28
4 -0.36
45 0.15
46 0.15
47 0.4
48 0.37
49 0.37
5 -0.87
6 -0.8
67 0.15
68 0.15
69 0.4
7 -0.81
70 0.15
8 -0.62
9 -0.6

> <PUBCHEM_EFFECTIVE_ROTOR_COUNT>
9.8

> <PUBCHEM_PHARMACOPHORE_FEATURES>
13
1 2 acceptor
1 3 acceptor
1 4 acceptor
1 5 donor
1 6 donor
1 7 cation
1 9 donor
4 8 9 10 33 cation
6 26 27 32 34 36 37 rings
6 3 7 28 29 30 31 rings
6 8 10 19 25 33 35 rings
7 11 12 13 14 15 16 17 rings
7 20 21 22 23 24 26 27 rings

> <PUBCHEM_HEAVY_ATOM_COUNT>
38

> <PUBCHEM_ATOM_DEF_STEREO_COUNT>
5

> <PUBCHEM_ATOM_UDEF_STEREO_COUNT>
0

> <PUBCHEM_BOND_DEF_STEREO_COUNT>
0

> <PUBCHEM_BOND_UDEF_STEREO_COUNT>
0

> <PUBCHEM_ISOTOPIC_ATOM_COUNT>
0

> <PUBCHEM_COMPONENT_COUNT>
1

> <PUBCHEM_CACTVS_TAUTO_COUNT>
18

> <PUBCHEM_CONFORMER_ID>
036AB76D00000001

> <PUBCHEM_MMFF94_ENERGY>
156.2508

> <PUBCHEM_FEATURE_SELFOVERLAP>
65.984

> <PUBCHEM_SHAPE_FINGERPRINT>
10556698 54 17242701292140913277
10622 236 18342734083848648091
10693767 8 18339068385444350635
11135926 11 18188782771787579593
13636023 20 18338522946215273544
13692114 37 18270961367171538936
13782708 43 17131540739914100769
14068700 675 18270400477921601602
14347332 77 18341887481787042993
14400156 350 17325776881859656649
15001296 14 18337950198755835655
15183329 4 18261390096497202601
15705408 1 18189071836604726516
15721738 15 17677322819120385059
15968369 26 17897181319514279552
16628084 112 18409446969623977273
17134984 74 18265892647698891539
19315092 285 17989481931114134656
19958102 18 17821444656216128931
20691028 202 8286202751892173407
20775438 99 18338508759289779666
208703 8 18272088270909122726
21133410 171 17753861988477823178
21458453 9 12319170802359494949
21703447 108 18410853282955147128
23522609 53 18057349295778252105
23559900 14 18261402117894613984
23569914 152 17829860198330647471
24983565 74 16552823970055953687
3882209 13 17680119921119924146
397830 11 12247392454342061213
4066623 53 17385987447726933476
444735 86 18409173216476342364
45266715 3 18114741641476950539
59682541 52 18335127735717439259
6677587 24 16299535922767585926

> <PUBCHEM_SHAPE_MULTIPOLES>
736.4
19.48
5.06
2.32
23.55
1.65
0.57
-14.13
13.07
-7.03
0.82
1.43
-1.45
-3.33

> <PUBCHEM_SHAPE_SELFOVERLAP>
1597.414

> <PUBCHEM_SHAPE_VOLUME>
400.8

> <PUBCHEM_COORDINATE_TYPE>
2
5
10

$$$$
