49830412
  -OEChem-10062121543D

 62 67  0     0  0  0  0  0  0999 V2000
    4.2886   -3.4407   -2.7624 S   0  0  0  0  0  0  0  0  0  0  0  0
   -2.3071   -2.4499   -0.5475 O   0  0  0  0  0  0  0  0  0  0  0  0
    3.9007   -1.3525   -1.3249 N   0  0  0  0  0  0  0  0  0  0  0  0
    2.5278   -2.9672   -0.6188 N   0  0  0  0  0  0  0  0  0  0  0  0
    2.2815    1.3327    0.0913 N   0  0  0  0  0  0  0  0  0  0  0  0
   -2.2216   -2.0001    1.7603 N   0  0  0  0  0  0  0  0  0  0  0  0
    1.3130    3.4381    0.4581 N   0  0  0  0  0  0  0  0  0  0  0  0
    3.5755    3.1473    1.0082 N   0  0  0  0  0  0  0  0  0  0  0  0
    3.2030   -0.7972   -0.2965 C   0  0  0  0  0  0  0  0  0  0  0  0
    2.3604   -1.8133    0.1246 C   0  0  0  0  0  0  0  0  0  0  0  0
    1.4156   -1.7108    1.2012 C   0  0  0  0  0  0  0  0  0  0  0  0
    3.4592   -2.6325   -1.4680 C   0  0  0  0  0  0  0  0  0  0  0  0
    3.3836    0.5580    0.1665 C   0  0  0  0  0  0  0  0  0  0  0  0
    4.8836   -0.9612   -2.2026 C   0  0  0  0  0  0  0  0  0  0  0  0
    0.0560   -1.9052    0.9575 C   0  0  0  0  0  0  0  0  0  0  0  0
   -0.8615   -1.8053    2.0034 C   0  0  0  0  0  0  0  0  0  0  0  0
    1.8578   -1.4165    2.4911 C   0  0  0  0  0  0  0  0  0  0  0  0
    5.2139   -1.9550   -3.0449 C   0  0  0  0  0  0  0  0  0  0  0  0
    4.6005    1.0002    0.6441 C   0  0  0  0  0  0  0  0  0  0  0  0
   -0.4193   -1.5109    3.2934 C   0  0  0  0  0  0  0  0  0  0  0  0
    0.9404   -1.3163    3.5371 C   0  0  0  0  0  0  0  0  0  0  0  0
    2.4460    2.5980    0.5223 C   0  0  0  0  0  0  0  0  0  0  0  0
   -4.3564   -2.4316    0.7217 C   0  0  0  0  0  0  0  0  0  0  0  0
   -2.8520   -2.3022    0.5418 C   0  0  0  0  0  0  0  0  0  0  0  0
    4.6378    2.3169    1.0552 C   0  0  0  0  0  0  0  0  0  0  0  0
   -0.0074    3.2246    0.0205 C   0  0  0  0  0  0  0  0  0  0  0  0
   -5.1452   -1.4489   -0.1037 C   0  0  0  0  0  0  0  0  0  0  0  0
   -0.7572    4.2683   -0.5219 C   0  0  0  0  0  0  0  0  0  0  0  0
   -0.5649    1.9510    0.1342 C   0  0  0  0  0  0  0  0  0  0  0  0
   -2.0646    4.0384   -0.9505 C   0  0  0  0  0  0  0  0  0  0  0  0
   -5.4701   -0.1986    0.4226 C   0  0  0  0  0  0  0  0  0  0  0  0
   -5.5505   -1.7893   -1.3942 C   0  0  0  0  0  0  0  0  0  0  0  0
   -0.1853    5.6422   -0.6557 C   0  0  0  0  0  0  0  0  0  0  0  0
   -1.8724    1.7212   -0.2943 C   0  0  0  0  0  0  0  0  0  0  0  0
   -2.6222    2.7649   -0.8365 C   0  0  0  0  0  0  0  0  0  0  0  0
   -6.2006    0.7114   -0.3417 C   0  0  0  0  0  0  0  0  0  0  0  0
   -6.2810   -0.8792   -2.1585 C   0  0  0  0  0  0  0  0  0  0  0  0
   -6.6058    0.3712   -1.6324 C   0  0  0  0  0  0  0  0  0  0  0  0
    5.3043    0.0324   -2.1815 H   0  0  0  0  0  0  0  0  0  0  0  0
   -0.2272   -2.1265   -0.0626 H   0  0  0  0  0  0  0  0  0  0  0  0
    2.9137   -1.2693    2.7054 H   0  0  0  0  0  0  0  0  0  0  0  0
    5.9591   -1.8897   -3.8251 H   0  0  0  0  0  0  0  0  0  0  0  0
    5.4776    0.3680    0.7054 H   0  0  0  0  0  0  0  0  0  0  0  0
   -1.1228   -1.4301    4.1181 H   0  0  0  0  0  0  0  0  0  0  0  0
    1.2849   -1.0885    4.5416 H   0  0  0  0  0  0  0  0  0  0  0  0
   -2.8166   -1.9055    2.5802 H   0  0  0  0  0  0  0  0  0  0  0  0
   -4.6285   -3.4579    0.4428 H   0  0  0  0  0  0  0  0  0  0  0  0
   -4.6482   -2.3350    1.7743 H   0  0  0  0  0  0  0  0  0  0  0  0
    5.5504    2.7535    1.4469 H   0  0  0  0  0  0  0  0  0  0  0  0
    1.5378    4.3975    0.7001 H   0  0  0  0  0  0  0  0  0  0  0  0
   -0.0390    1.1238    0.5954 H   0  0  0  0  0  0  0  0  0  0  0  0
   -2.6634    4.8401   -1.3745 H   0  0  0  0  0  0  0  0  0  0  0  0
   -5.1568    0.0789    1.4256 H   0  0  0  0  0  0  0  0  0  0  0  0
   -5.3021   -2.7595   -1.8162 H   0  0  0  0  0  0  0  0  0  0  0  0
   -0.8652    6.3144   -1.1907 H   0  0  0  0  0  0  0  0  0  0  0  0
    0.7514    5.6186   -1.2228 H   0  0  0  0  0  0  0  0  0  0  0  0
   -0.0032    6.0786    0.3318 H   0  0  0  0  0  0  0  0  0  0  0  0
   -2.3103    0.7327   -0.1966 H   0  0  0  0  0  0  0  0  0  0  0  0
   -3.6404    2.5866   -1.1690 H   0  0  0  0  0  0  0  0  0  0  0  0
   -6.4518    1.6857    0.0673 H   0  0  0  0  0  0  0  0  0  0  0  0
   -6.5961   -1.1437   -3.1637 H   0  0  0  0  0  0  0  0  0  0  0  0
   -7.1735    1.0802   -2.2278 H   0  0  0  0  0  0  0  0  0  0  0  0
  1 12  1  0  0  0  0
  1 18  1  0  0  0  0
  2 24  2  0  0  0  0
  3  9  1  0  0  0  0
  3 12  1  0  0  0  0
  3 14  1  0  0  0  0
  4 10  1  0  0  0  0
  4 12  2  0  0  0  0
  5 13  2  0  0  0  0
  5 22  1  0  0  0  0
  6 16  1  0  0  0  0
  6 24  1  0  0  0  0
  6 46  1  0  0  0  0
  7 22  1  0  0  0  0
  7 26  1  0  0  0  0
  7 50  1  0  0  0  0
  8 22  2  0  0  0  0
  8 25  1  0  0  0  0
  9 10  2  0  0  0  0
  9 13  1  0  0  0  0
 10 11  1  0  0  0  0
 11 15  2  0  0  0  0
 11 17  1  0  0  0  0
 13 19  1  0  0  0  0
 14 18  2  0  0  0  0
 14 39  1  0  0  0  0
 15 16  1  0  0  0  0
 15 40  1  0  0  0  0
 16 20  2  0  0  0  0
 17 21  2  0  0  0  0
 17 41  1  0  0  0  0
 18 42  1  0  0  0  0
 19 25  2  0  0  0  0
 19 43  1  0  0  0  0
 20 21  1  0  0  0  0
 20 44  1  0  0  0  0
 21 45  1  0  0  0  0
 23 24  1  0  0  0  0
 23 27  1  0  0  0  0
 23 47  1  0  0  0  0
 23 48  1  0  0  0  0
 25 49  1  0  0  0  0
 26 28  1  0  0  0  0
 26 29  2  0  0  0  0
 27 31  2  0  0  0  0
 27 32  1  0  0  0  0
 28 30  2  0  0  0  0
 28 33  1  0  0  0  0
 29 34  1  0  0  0  0
 29 51  1  0  0  0  0
 30 35  1  0  0  0  0
 30 52  1  0  0  0  0
 31 36  1  0  0  0  0
 31 53  1  0  0  0  0
 32 37  2  0  0  0  0
 32 54  1  0  0  0  0
 33 55  1  0  0  0  0
 33 56  1  0  0  0  0
 33 57  1  0  0  0  0
 34 35  2  0  0  0  0
 34 58  1  0  0  0  0
 35 59  1  0  0  0  0
 36 38  2  0  0  0  0
 36 60  1  0  0  0  0
 37 38  1  0  0  0  0
 37 61  1  0  0  0  0
 38 62  1  0  0  0  0
M  END
> <PUBCHEM_COMPOUND_CID>
49830412

> <PUBCHEM_CONFORMER_RMSD>
1.4

> <PUBCHEM_CONFORMER_DIVERSEORDER>
1
139
165
35
108
129
178
71
175
118
159
106
70
13
21
173
56
152
162
34
137
128
153
115
89
97
14
193
144
140
47
154
51
67
74
147
200
61
66
99
55
187
26
185
59
169
24
73
98
6
195
42
40
54
84
25
142
3
177
32
130
166
136
197
180
164
131
111
62
168
4
112
16
64
186
27
63
117
146
199
198
41
172
5
138
119
33
102
65
104
133
57
20
183
85
15
72
196
190
151
174
150
116
202
38
123
88
7
124
171
44
143
9
36
113
105
127
86
77
68
134
179
103
181
29
19
188
167
194
45
82
184
189
155
160
79
31
161
76
156
176
93
125
101
110
2
182
141
163
192
8
28
148
46
80
52
158
78
120
92
145
43
81
135
23
107
10
157
94
60
95
122
53
22
91
126
75
37
48
201
170
18
96
109
90
87
191
30
50
11
58
100
49
69
83
114
149
132
12
17
39
121

> <PUBCHEM_MMFF94_PARTIAL_CHARGES>
57
1 -0.16
10 0.17
11 0.05
12 0.24
13 0.36
14 -0.18
15 -0.15
16 0.12
17 -0.15
18 -0.05
19 -0.15
2 -0.57
20 -0.15
21 -0.15
22 0.72
23 0.2
24 0.57
25 0.16
26 0.1
27 -0.14
28 -0.14
29 -0.15
3 0.33
30 -0.15
31 -0.15
32 -0.15
33 0.14
34 -0.15
35 -0.15
36 -0.15
37 -0.15
38 -0.15
39 0.15
4 -0.57
40 0.15
41 0.15
42 0.15
43 0.15
44 0.15
45 0.15
46 0.37
49 0.15
5 -0.62
50 0.4
51 0.15
52 0.15
53 0.15
54 0.15
58 0.15
59 0.15
6 -0.55
60 0.15
61 0.15
62 0.15
7 -0.6
8 -0.62
9 -0.2

> <PUBCHEM_EFFECTIVE_ROTOR_COUNT>
8

> <PUBCHEM_PHARMACOPHORE_FEATURES>
12
1 2 acceptor
1 5 acceptor
1 6 donor
1 7 donor
3 3 4 12 cation
4 5 7 8 22 cation
5 1 3 12 14 18 rings
5 3 4 9 10 12 rings
6 11 15 16 17 20 21 rings
6 26 28 29 30 34 35 rings
6 27 31 32 36 37 38 rings
6 5 8 13 19 22 25 rings

> <PUBCHEM_HEAVY_ATOM_COUNT>
38

> <PUBCHEM_ATOM_DEF_STEREO_COUNT>
0

> <PUBCHEM_ATOM_UDEF_STEREO_COUNT>
0

> <PUBCHEM_BOND_DEF_STEREO_COUNT>
0

> <PUBCHEM_BOND_UDEF_STEREO_COUNT>
0

> <PUBCHEM_ISOTOPIC_ATOM_COUNT>
0

> <PUBCHEM_COMPONENT_COUNT>
1

> <PUBCHEM_CACTVS_TAUTO_COUNT>
6

> <PUBCHEM_CONFORMER_ID>
02F85A0C00000001

> <PUBCHEM_MMFF94_ENERGY>
122.9733

> <PUBCHEM_FEATURE_SELFOVERLAP>
61.151

> <PUBCHEM_SHAPE_FINGERPRINT>
10864689 126 17977666412101751885
11170278 133 17610334948923557877
11513181 2 18200867483167458743
12202916 173 18192415575823217312
12788726 201 18188493450174553147
13402501 40 18190171472105824385
13636023 20 18269828877767564931
14040222 75 18116969226523990473
14114211 68 17241057491892481451
14395042 70 13066307812529326040
14400156 260 18116709613621873961
14537116 161 18334847283238533295
15001296 14 18335412483565010345
15081414 286 18265625449246084025
15324884 4 17904228140944753402
15790856 291 17968653946832322227
16067689 134 17906727004737541085
16992828 155 16030712222866618597
17852330 28 12166650538682890142
17909252 39 18271534108922609670
19311894 1 17621324537408880904
20764821 26 17826483628039227921
20775438 99 18270667770658513647
24941158 1 17058901468831815153
4066623 53 18336546032433866214
437795 70 18339092488252020783
5081480 168 18268733708578162763
513532 50 18197477697076384139
6609424 69 16743702529319517048

> <PUBCHEM_SHAPE_MULTIPOLES>
750.12
13.18
6.12
2.83
14.55
8.37
-0.82
-6.88
9.81
-1.24
1.46
-2.29
-3
3.7

> <PUBCHEM_SHAPE_SELFOVERLAP>
1659.372

> <PUBCHEM_SHAPE_VOLUME>
403.8

> <PUBCHEM_COORDINATE_TYPE>
2
5
10

$$$$
