49830474
  -OEChem-10052115193D

 48 52  0     0  0  0  0  0  0999 V2000
    2.2623    4.6902    0.5648 Cl  0  0  0  0  0  0  0  0  0  0  0  0
    5.4962   -0.6310    0.3048 O   0  0  0  0  0  0  0  0  0  0  0  0
   -3.8703   -0.7086   -0.9472 N   0  0  0  0  0  0  0  0  0  0  0  0
    2.8514   -3.9406    0.4876 N   0  0  0  0  0  0  0  0  0  0  0  0
    3.6315   -2.8481    0.4383 N   0  0  0  0  0  0  0  0  0  0  0  0
    3.1522   -0.5376    0.1044 N   0  0  0  0  0  0  0  0  0  0  0  0
   -3.4266   -2.4778    0.1931 N   0  0  0  0  0  0  0  0  0  0  0  0
   -4.4163   -1.6872   -0.2072 N   0  0  0  0  0  0  0  0  0  0  0  0
    1.4279   -2.3106    0.1334 C   0  0  0  0  0  0  0  0  0  0  0  0
    1.5179   -3.6866    0.3114 C   0  0  0  0  0  0  0  0  0  0  0  0
   -0.9601   -2.5539   -0.0960 C   0  0  0  0  0  0  0  0  0  0  0  0
    0.1683   -1.7246   -0.0749 C   0  0  0  0  0  0  0  0  0  0  0  0
    2.7621   -1.8582    0.2230 C   0  0  0  0  0  0  0  0  0  0  0  0
   -2.2583   -1.9759   -0.3093 C   0  0  0  0  0  0  0  0  0  0  0  0
    0.4059   -4.5313    0.2941 C   0  0  0  0  0  0  0  0  0  0  0  0
   -0.8411   -3.9331    0.0855 C   0  0  0  0  0  0  0  0  0  0  0  0
   -4.6947    0.3186   -1.5310 C   0  0  0  0  0  0  0  0  0  0  0  0
   -2.5195   -0.8448   -1.0413 C   0  0  0  0  0  0  0  0  0  0  0  0
   -5.1181    1.3781   -0.5441 C   0  0  0  0  0  0  0  0  0  0  0  0
    4.4550   -0.0020    0.1490 C   0  0  0  0  0  0  0  0  0  0  0  0
   -6.1532    1.1203    0.3546 C   0  0  0  0  0  0  0  0  0  0  0  0
   -4.4744    2.6155   -0.5303 C   0  0  0  0  0  0  0  0  0  0  0  0
    4.5564    1.4690   -0.0391 C   0  0  0  0  0  0  0  0  0  0  0  0
   -6.5447    2.0999    1.2673 C   0  0  0  0  0  0  0  0  0  0  0  0
   -4.8660    3.5952    0.3822 C   0  0  0  0  0  0  0  0  0  0  0  0
   -5.9009    3.3373    1.2812 C   0  0  0  0  0  0  0  0  0  0  0  0
    3.4864    2.2928    0.3103 C   0  0  0  0  0  0  0  0  0  0  0  0
    5.7224    2.0258   -0.5650 C   0  0  0  0  0  0  0  0  0  0  0  0
    3.5821    3.6732    0.1340 C   0  0  0  0  0  0  0  0  0  0  0  0
    5.8181    3.4061   -0.7416 C   0  0  0  0  0  0  0  0  0  0  0  0
    4.7481    4.2299   -0.3919 C   0  0  0  0  0  0  0  0  0  0  0  0
    0.0940   -0.6487   -0.2033 H   0  0  0  0  0  0  0  0  0  0  0  0
    0.5006   -5.6022    0.4346 H   0  0  0  0  0  0  0  0  0  0  0  0
   -1.7196   -4.5755    0.0644 H   0  0  0  0  0  0  0  0  0  0  0  0
   -5.5758   -0.1661   -1.9695 H   0  0  0  0  0  0  0  0  0  0  0  0
   -4.1400    0.7636   -2.3660 H   0  0  0  0  0  0  0  0  0  0  0  0
   -1.9014   -0.1556   -1.6003 H   0  0  0  0  0  0  0  0  0  0  0  0
    3.2943   -4.8372    0.6456 H   0  0  0  0  0  0  0  0  0  0  0  0
    2.3793    0.0928   -0.0867 H   0  0  0  0  0  0  0  0  0  0  0  0
   -6.6674    0.1630    0.3517 H   0  0  0  0  0  0  0  0  0  0  0  0
   -3.6652    2.8286   -1.2236 H   0  0  0  0  0  0  0  0  0  0  0  0
   -7.3514    1.8997    1.9663 H   0  0  0  0  0  0  0  0  0  0  0  0
   -4.3646    4.5586    0.3934 H   0  0  0  0  0  0  0  0  0  0  0  0
   -6.2058    4.1001    1.9917 H   0  0  0  0  0  0  0  0  0  0  0  0
    2.5797    1.8924    0.7556 H   0  0  0  0  0  0  0  0  0  0  0  0
    6.5657    1.4017   -0.8487 H   0  0  0  0  0  0  0  0  0  0  0  0
    6.7254    3.8395   -1.1523 H   0  0  0  0  0  0  0  0  0  0  0  0
    4.8369    5.3037   -0.5352 H   0  0  0  0  0  0  0  0  0  0  0  0
  1 29  1  0  0  0  0
  2 20  2  0  0  0  0
  3  8  1  0  0  0  0
  3 17  1  0  0  0  0
  3 18  1  0  0  0  0
  4  5  1  0  0  0  0
  4 10  1  0  0  0  0
  4 38  1  0  0  0  0
  5 13  2  0  0  0  0
  6 13  1  0  0  0  0
  6 20  1  0  0  0  0
  6 39  1  0  0  0  0
  7  8  2  0  0  0  0
  7 14  1  0  0  0  0
  9 10  2  0  0  0  0
  9 12  1  0  0  0  0
  9 13  1  0  0  0  0
 10 15  1  0  0  0  0
 11 12  2  0  0  0  0
 11 14  1  0  0  0  0
 11 16  1  0  0  0  0
 12 32  1  0  0  0  0
 14 18  2  0  0  0  0
 15 16  2  0  0  0  0
 15 33  1  0  0  0  0
 16 34  1  0  0  0  0
 17 19  1  0  0  0  0
 17 35  1  0  0  0  0
 17 36  1  0  0  0  0
 18 37  1  0  0  0  0
 19 21  2  0  0  0  0
 19 22  1  0  0  0  0
 20 23  1  0  0  0  0
 21 24  1  0  0  0  0
 21 40  1  0  0  0  0
 22 25  2  0  0  0  0
 22 41  1  0  0  0  0
 23 27  2  0  0  0  0
 23 28  1  0  0  0  0
 24 26  2  0  0  0  0
 24 42  1  0  0  0  0
 25 26  1  0  0  0  0
 25 43  1  0  0  0  0
 26 44  1  0  0  0  0
 27 29  1  0  0  0  0
 27 45  1  0  0  0  0
 28 30  2  0  0  0  0
 28 46  1  0  0  0  0
 29 31  2  0  0  0  0
 30 31  1  0  0  0  0
 30 47  1  0  0  0  0
 31 48  1  0  0  0  0
M  END
> <PUBCHEM_COMPOUND_CID>
49830474

> <PUBCHEM_CONFORMER_RMSD>
0.8

> <PUBCHEM_CONFORMER_DIVERSEORDER>
2
144
240
188
347
168
62
41
227
79
172
312
202
200
282
226
163
161
277
178
335
239
108
259
109
333
146
180
242
89
316
247
63
343
231
166
132
278
149
182
52
211
218
91
309
207
193
129
133
147
191
235
233
339
251
164
319
252
140
322
245
346
73
297
214
167
310
131
139
135
222
262
308
209
221
323
220
217
98
177
169
28
184
290
187
53
59
317
274
157
223
212
95
176
206
47
185
286
248
296
228
192
311
134
83
24
174
243
190
66
234
136
291
195
186
138
175
340
249
229
159
100
320
276
203
314
110
50
237
60
84
69
302
16
295
103
199
49
137
61
115
265
64
112
181
255
287
67
326
57
142
32
224
328
281
58
354
114
70
183
266
293
194
155
264
279
152
216
81
122
269
253
348
156
43
179
76
106
54
350
208
42
102
145
104
94
9
123
261
215
45
307
44
121
254
349
11
88
351
125
238
219
12
334
153
306
27
75
39
65
327
99
344
341
300
25
353
4
197
15
246
321
263
29
120
143
271
268
77
34
117
158
304
324
78
38
124
154
275
299
329
160
150
284
10
315
56
141
33
313
37
80
236
294
93
116
345
283
210
352
35
128
338
20
113
298
256
151
148
8
337
342
272
165
46
332
267
96
292
303
280
126
3
225
21
170
74
288
107
7
198
257
305
55
189
18
336
105
92
13
285
101
86
230
97
331
162
6
119
289
241
232
23
68
26
318
204
260
19
250
30
301
36
171
22
118
201
31
87
72
270
71
90
244
273
258
173
40
111
325
130
1
85
82
330
17
51
205
5
196
213
48
127
14

> <PUBCHEM_MMFF94_PARTIAL_CHARGES>
45
1 -0.18
10 -0.15
11 0.05
12 -0.15
13 0.35
14 0.17
15 -0.15
16 -0.15
17 0.4
18 -0.3
19 -0.14
2 -0.57
20 0.54
21 -0.15
22 -0.15
23 0.09
24 -0.15
25 -0.15
26 -0.15
27 -0.15
28 -0.15
29 0.18
3 0.31
30 -0.15
31 -0.15
32 0.15
33 0.15
34 0.15
37 0.15
38 0.27
39 0.37
4 0.3
40 0.15
41 0.15
42 0.15
43 0.15
44 0.15
45 0.15
46 0.15
47 0.15
48 0.15
5 -0.71
6 -0.49
7 -0.23
8 -0.42

> <PUBCHEM_EFFECTIVE_ROTOR_COUNT>
6

> <PUBCHEM_PHARMACOPHORE_FEATURES>
8
1 2 acceptor
1 4 donor
1 6 donor
5 3 7 8 14 18 rings
5 4 5 9 10 13 rings
6 19 21 22 24 25 26 rings
6 23 27 28 29 30 31 rings
6 9 10 11 12 15 16 rings

> <PUBCHEM_HEAVY_ATOM_COUNT>
31

> <PUBCHEM_ATOM_DEF_STEREO_COUNT>
0

> <PUBCHEM_ATOM_UDEF_STEREO_COUNT>
0

> <PUBCHEM_BOND_DEF_STEREO_COUNT>
0

> <PUBCHEM_BOND_UDEF_STEREO_COUNT>
0

> <PUBCHEM_ISOTOPIC_ATOM_COUNT>
0

> <PUBCHEM_COMPONENT_COUNT>
1

> <PUBCHEM_CACTVS_TAUTO_COUNT>
24

> <PUBCHEM_CONFORMER_ID>
02F85A4A00000002

> <PUBCHEM_MMFF94_ENERGY>
72.467

> <PUBCHEM_FEATURE_SELFOVERLAP>
40.69

> <PUBCHEM_SHAPE_FINGERPRINT>
100830 2 18411989056833586177
10439779 11 18194671795385674848
10917259 69 18337957892107990316
11059048 146 18339639061253049193
11070050 100 16878227446065235355
11101153 10 18413100672569888639
11479125 193 18410018753523826321
11828042 163 18341061735944189540
11973864 155 18048904044816316665
1200032 147 18113905983392792640
12107183 9 18116973646878482890
12925494 130 18409725197115068033
12975358 362 16983238388275357881
13590594 115 17401767423860935995
1361 2 18410578344749836448
13885169 86 18340772546688892889
13944108 23 18339083670990396460
14251764 75 18411141329141317845
14429114 114 18339919441044650473
14664723 55 18042975461603572804
14790565 3 18410574015226778231
14849402 71 18265052431752670746
15081414 286 17979349759924384295
15082195 135 18267843087043033751
15320291 9 17546995790314280765
15320295 198 17756707434671957189
15320467 1 18049722115874183844
15351339 4 18341323500250420529
16067689 134 18269569242483627181
16112460 7 18412548708083215312
16708801 149 18266439048837424992
16728433 281 17974019641808758668
16992779 147 18267034851449017105
17627616 140 18412262814017693329
19302320 297 18265897956014706259
20691028 202 18199182902663137265
21133410 58 16606039790656663740
22122407 14 18410016532898886235
245318 6 18187094982757864317
4066623 53 17696205707910410062
4173938 77 18268160751092296845
437795 171 18261667069800477157
437795 96 17753604638528203765
508180 173 18341343245000466130
5104073 3 18113898213460117459
5223283 242 17627537959058929038
53794403 172 18338803312230253534
550186 72 18050003595715509111
57724786 102 18339921498608330919
5951187 136 18200324212311115238
6058803 2 18268970056445251759
636783 98 14870466909831214765
7970288 3 8467473181795441438

> <PUBCHEM_SHAPE_MULTIPOLES>
604.08
16.72
7.91
0.96
9.12
0.14
0.08
20.97
-0.45
-4.71
-1.4
1.07
0.41
-2.5

> <PUBCHEM_SHAPE_SELFOVERLAP>
1338.383

> <PUBCHEM_SHAPE_VOLUME>
323.4

> <PUBCHEM_COORDINATE_TYPE>
2
5
10

$$$$
