44410953
  -OEChem-10062122003D

 54 57  0     1  0  0  0  0  0999 V2000
    6.4451   -2.1071   -1.6833 Cl  0  0  0  0  0  0  0  0  0  0  0  0
    3.8562   -0.8354   -2.3236 F   0  0  0  0  0  0  0  0  0  0  0  0
   -2.7314   -0.7825    1.8209 O   0  0  0  0  0  0  0  0  0  0  0  0
   -4.1168    1.7472   -0.6792 O   0  0  0  0  0  0  0  0  0  0  0  0
   -3.4764   -1.4293   -0.6491 N   0  0  2  0  0  0  0  0  0  0  0  0
   -0.8251   -2.1080    1.6518 N   0  0  0  0  0  0  0  0  0  0  0  0
   -0.0278    3.7392    0.7237 N   0  0  0  0  0  0  0  0  0  0  0  0
    2.1466    0.4677   -0.5792 N   0  0  0  0  0  0  0  0  0  0  0  0
    2.0718    2.5966    0.4195 N   0  0  0  0  0  0  0  0  0  0  0  0
   -2.5726   -2.3571    0.0391 C   0  0  2  0  0  0  0  0  0  0  0  0
   -3.4260   -3.5744    0.3962 C   0  0  0  0  0  0  0  0  0  0  0  0
   -4.5418   -2.2439   -1.2346 C   0  0  0  0  0  0  0  0  0  0  0  0
   -4.8158   -3.2432   -0.1277 C   0  0  0  0  0  0  0  0  0  0  0  0
   -2.8029   -0.6066   -1.6450 C   0  0  0  0  0  0  0  0  0  0  0  0
   -2.0767   -1.6605    1.2649 C   0  0  0  0  0  0  0  0  0  0  0  0
   -2.0718    0.5495   -1.0156 C   0  0  0  0  0  0  0  0  0  0  0  0
   -2.7611    1.6692   -0.5635 C   0  0  0  0  0  0  0  0  0  0  0  0
   -0.6877    0.4964   -0.8849 C   0  0  0  0  0  0  0  0  0  0  0  0
    0.0047    1.5702   -0.2989 C   0  0  0  0  0  0  0  0  0  0  0  0
   -2.0653    2.7331    0.0183 C   0  0  0  0  0  0  0  0  0  0  0  0
   -0.6802    2.7066    0.1616 C   0  0  0  0  0  0  0  0  0  0  0  0
   -0.1145   -1.5792    2.7937 C   0  0  0  0  0  0  0  0  0  0  0  0
    1.3875    1.5802   -0.1385 C   0  0  0  0  0  0  0  0  0  0  0  0
   -4.7414    2.9318   -0.1890 C   0  0  0  0  0  0  0  0  0  0  0  0
    1.3125    3.6282    0.8221 C   0  0  0  0  0  0  0  0  0  0  0  0
    3.3536   -0.0925   -0.1317 C   0  0  0  0  0  0  0  0  0  0  0  0
    4.1988   -0.7448   -1.0294 C   0  0  0  0  0  0  0  0  0  0  0  0
    3.7065    0.0042    1.2143 C   0  0  0  0  0  0  0  0  0  0  0  0
    5.3971   -1.3004   -0.5809 C   0  0  0  0  0  0  0  0  0  0  0  0
    4.9047   -0.5513    1.6627 C   0  0  0  0  0  0  0  0  0  0  0  0
    5.7500   -1.2038    0.7651 C   0  0  0  0  0  0  0  0  0  0  0  0
   -1.7388   -2.6777   -0.5985 H   0  0  0  0  0  0  0  0  0  0  0  0
   -3.4531   -3.8040    1.4666 H   0  0  0  0  0  0  0  0  0  0  0  0
   -3.0432   -4.4584   -0.1284 H   0  0  0  0  0  0  0  0  0  0  0  0
   -4.2060   -2.7639   -2.1409 H   0  0  0  0  0  0  0  0  0  0  0  0
   -5.4305   -1.6510   -1.4717 H   0  0  0  0  0  0  0  0  0  0  0  0
   -5.3466   -4.1306   -0.4844 H   0  0  0  0  0  0  0  0  0  0  0  0
   -5.4151   -2.7813    0.6666 H   0  0  0  0  0  0  0  0  0  0  0  0
   -3.5391   -0.1803   -2.3412 H   0  0  0  0  0  0  0  0  0  0  0  0
   -2.1317   -1.1997   -2.2811 H   0  0  0  0  0  0  0  0  0  0  0  0
   -0.3595   -2.8253    1.1040 H   0  0  0  0  0  0  0  0  0  0  0  0
   -0.1661   -0.3904   -1.2356 H   0  0  0  0  0  0  0  0  0  0  0  0
   -2.5572    3.6288    0.3870 H   0  0  0  0  0  0  0  0  0  0  0  0
    0.6320   -0.8685    2.4312 H   0  0  0  0  0  0  0  0  0  0  0  0
    0.3855   -2.4067    3.3020 H   0  0  0  0  0  0  0  0  0  0  0  0
   -0.7988   -1.0755    3.4806 H   0  0  0  0  0  0  0  0  0  0  0  0
    1.8771    0.1463   -1.5051 H   0  0  0  0  0  0  0  0  0  0  0  0
   -5.8172    2.8221   -0.3620 H   0  0  0  0  0  0  0  0  0  0  0  0
   -4.4210    3.8188   -0.7462 H   0  0  0  0  0  0  0  0  0  0  0  0
   -4.6056    3.0431    0.8922 H   0  0  0  0  0  0  0  0  0  0  0  0
    1.8320    4.4633    1.2759 H   0  0  0  0  0  0  0  0  0  0  0  0
    3.0590    0.4942    1.9364 H   0  0  0  0  0  0  0  0  0  0  0  0
    5.1780   -0.4790    2.7114 H   0  0  0  0  0  0  0  0  0  0  0  0
    6.6800   -1.6326    1.1294 H   0  0  0  0  0  0  0  0  0  0  0  0
  1 29  1  0  0  0  0
  2 27  1  0  0  0  0
  3 15  2  0  0  0  0
  4 17  1  0  0  0  0
  4 24  1  0  0  0  0
  5 10  1  0  0  0  0
  5 12  1  0  0  0  0
  5 14  1  0  0  0  0
  6 15  1  0  0  0  0
  6 22  1  0  0  0  0
  6 41  1  0  0  0  0
  7 21  1  0  0  0  0
  7 25  2  0  0  0  0
  8 23  1  0  0  0  0
  8 26  1  0  0  0  0
  8 47  1  0  0  0  0
  9 23  2  0  0  0  0
  9 25  1  0  0  0  0
 10 11  1  0  0  0  0
 10 15  1  0  0  0  0
 10 32  1  0  0  0  0
 11 13  1  0  0  0  0
 11 33  1  0  0  0  0
 11 34  1  0  0  0  0
 12 13  1  0  0  0  0
 12 35  1  0  0  0  0
 12 36  1  0  0  0  0
 13 37  1  0  0  0  0
 13 38  1  0  0  0  0
 14 16  1  0  0  0  0
 14 39  1  0  0  0  0
 14 40  1  0  0  0  0
 16 17  1  0  0  0  0
 16 18  2  0  0  0  0
 17 20  2  0  0  0  0
 18 19  1  0  0  0  0
 18 42  1  0  0  0  0
 19 21  2  0  0  0  0
 19 23  1  0  0  0  0
 20 21  1  0  0  0  0
 20 43  1  0  0  0  0
 22 44  1  0  0  0  0
 22 45  1  0  0  0  0
 22 46  1  0  0  0  0
 24 48  1  0  0  0  0
 24 49  1  0  0  0  0
 24 50  1  0  0  0  0
 25 51  1  0  0  0  0
 26 27  2  0  0  0  0
 26 28  1  0  0  0  0
 27 29  1  0  0  0  0
 28 30  2  0  0  0  0
 28 52  1  0  0  0  0
 29 31  2  0  0  0  0
 30 31  1  0  0  0  0
 30 53  1  0  0  0  0
 31 54  1  0  0  0  0
M  END
> <PUBCHEM_COMPOUND_CID>
44410953

> <PUBCHEM_CONFORMER_RMSD>
1.2

> <PUBCHEM_CONFORMER_DIVERSEORDER>
1
70
34
45
59
93
80
54
75
89
61
46
88
28
109
73
20
57
29
101
82
69
55
85
9
6
35
97
100
74
22
41
78
48
11
18
5
39
31
12
38
40
98
63
19
102
107
36
42
8
52
81
53
103
50
77
43
90
16
99
44
64
26
49
37
23
106
108
17
51
110
7
76
95
79
67
4
33
15
92
32
27
104
56
96
94
2
105
10
62
65
3
87
71
13
14
66
91
58
21
24
83
68
72
47
25
30
84
86
60

> <PUBCHEM_MMFF94_PARTIAL_CHARGES>
36
1 -0.18
10 0.33
12 0.27
14 0.41
15 0.57
16 -0.14
17 0.08
18 -0.15
2 -0.19
20 -0.15
21 0.31
22 0.3
23 0.41
24 0.28
25 0.47
26 0.1
27 0.19
28 -0.15
29 0.18
3 -0.57
30 -0.15
31 -0.15
4 -0.36
41 0.37
42 0.15
43 0.15
47 0.4
5 -0.81
51 0.15
52 0.15
53 0.15
54 0.15
6 -0.73
7 -0.62
8 -0.6
9 -0.62

> <PUBCHEM_EFFECTIVE_ROTOR_COUNT>
8

> <PUBCHEM_PHARMACOPHORE_FEATURES>
11
1 3 acceptor
1 4 acceptor
1 5 cation
1 6 donor
1 8 donor
3 7 9 25 cation
3 8 9 23 cation
5 5 10 11 12 13 rings
6 16 17 18 19 20 21 rings
6 26 27 28 29 30 31 rings
6 7 9 19 21 23 25 rings

> <PUBCHEM_HEAVY_ATOM_COUNT>
31

> <PUBCHEM_ATOM_DEF_STEREO_COUNT>
1

> <PUBCHEM_ATOM_UDEF_STEREO_COUNT>
0

> <PUBCHEM_BOND_DEF_STEREO_COUNT>
0

> <PUBCHEM_BOND_UDEF_STEREO_COUNT>
0

> <PUBCHEM_ISOTOPIC_ATOM_COUNT>
0

> <PUBCHEM_COMPONENT_COUNT>
1

> <PUBCHEM_CACTVS_TAUTO_COUNT>
6

> <PUBCHEM_CONFORMER_ID>
02A5A84900000001

> <PUBCHEM_MMFF94_ENERGY>
98.7194

> <PUBCHEM_FEATURE_SELFOVERLAP>
55.994

> <PUBCHEM_SHAPE_FINGERPRINT>
1100329 8 18410285883494559233
11578080 2 16485543620695433521
12363563 72 18411984693415072438
12422481 6 18057347122519206691
13140716 1 18341887511013491969
13583140 156 14907363878489126966
140371 6 18129105524271044332
14114206 34 17894915117931504028
14725015 67 18337096973537941027
14790565 3 17906728099336567833
14866123 147 18409446973718750883
15361156 5 18060133211711201324
15927050 60 18195804069086898583
17138139 8 17967806163706730610
17909252 39 18196937892765251600
17980427 23 12535339142722772579
19311894 1 18340483379368031673
19315092 285 15191874800526020567
19319366 153 17605552146172072755
19611394 137 18340474669780504360
20775438 99 17400622218113462651
21133410 32 16517969322610773938
21279426 13 18189880072324667879
21703447 108 18194671790415149544
22440779 20 16695325890867447422
23536364 44 18189874540343545799
23558518 356 18261671597112120805
23559900 14 18116982485187902797
3027735 51 18335138670119392443
3178227 256 18264501594403882409
3383291 50 18412824651869425267
4073 2 18342453700226212126
508706 21 18410300189798741238
5104073 3 18272643580216022648
5171179 24 18269552900137749905
57527585 103 17096671845009140603
9709674 26 18338790246998027741

> <PUBCHEM_SHAPE_MULTIPOLES>
595.92
12.17
4.64
1.82
13.93
1.8
0.53
-9.19
-3.57
-5.18
0.73
1.08
-1.14
1.33

> <PUBCHEM_SHAPE_SELFOVERLAP>
1288.052

> <PUBCHEM_SHAPE_VOLUME>
328.9

> <PUBCHEM_COORDINATE_TYPE>
2
5
10

$$$$
