17754396
  -OEChem-10062121573D

 43 46  0     0  0  0  0  0  0999 V2000
    3.5575    2.4314    0.1508 O   0  0  0  0  0  0  0  0  0  0  0  0
    5.2481    0.2801   -0.3424 O   0  0  0  0  0  0  0  0  0  0  0  0
   -3.0390   -1.4961    0.2576 N   0  0  0  0  0  0  0  0  0  0  0  0
    1.6030   -2.6786   -0.2690 N   0  0  0  0  0  0  0  0  0  0  0  0
   -2.3454   -3.7260    0.2359 N   0  0  0  0  0  0  0  0  0  0  0  0
   -4.8912    2.8759   -0.0336 N   0  0  0  0  0  0  0  0  0  0  0  0
   -0.3481   -0.6036   -0.0775 C   0  0  0  0  0  0  0  0  0  0  0  0
   -1.4842    0.3205   -0.1227 C   0  0  0  0  0  0  0  0  0  0  0  0
    1.0891   -0.3193   -0.0914 C   0  0  0  0  0  0  0  0  0  0  0  0
   -0.6882   -1.9680   -0.0111 C   0  0  0  0  0  0  0  0  0  0  0  0
   -2.7901   -0.1959    0.0949 C   0  0  0  0  0  0  0  0  0  0  0  0
    1.9957   -1.4045   -0.2312 C   0  0  0  0  0  0  0  0  0  0  0  0
   -3.8924    0.6535    0.1189 C   0  0  0  0  0  0  0  0  0  0  0  0
   -2.0092   -2.3504    0.1626 C   0  0  0  0  0  0  0  0  0  0  0  0
   -1.4156    1.7057   -0.4265 C   0  0  0  0  0  0  0  0  0  0  0  0
    1.6841    0.9581    0.0828 C   0  0  0  0  0  0  0  0  0  0  0  0
    0.2954   -2.9385   -0.1196 C   0  0  0  0  0  0  0  0  0  0  0  0
   -3.7752    2.0178   -0.1176 C   0  0  0  0  0  0  0  0  0  0  0  0
   -2.5332    2.5436   -0.4118 C   0  0  0  0  0  0  0  0  0  0  0  0
    3.3667   -1.1764   -0.3077 C   0  0  0  0  0  0  0  0  0  0  0  0
    3.0634    1.1697    0.0168 C   0  0  0  0  0  0  0  0  0  0  0  0
    3.9075    0.0991   -0.1998 C   0  0  0  0  0  0  0  0  0  0  0  0
   -5.2525    0.0917    0.4258 C   0  0  0  0  0  0  0  0  0  0  0  0
    2.6135    3.4778    0.3721 C   0  0  0  0  0  0  0  0  0  0  0  0
    6.0404    0.2324    0.8437 C   0  0  0  0  0  0  0  0  0  0  0  0
   -0.4926    2.1720   -0.7496 H   0  0  0  0  0  0  0  0  0  0  0  0
    1.0287    1.7690    0.3579 H   0  0  0  0  0  0  0  0  0  0  0  0
    0.0962   -4.0045   -0.0901 H   0  0  0  0  0  0  0  0  0  0  0  0
   -2.4095    3.5996   -0.6373 H   0  0  0  0  0  0  0  0  0  0  0  0
    4.0421   -2.0198   -0.4505 H   0  0  0  0  0  0  0  0  0  0  0  0
   -5.6602    0.5623    1.3277 H   0  0  0  0  0  0  0  0  0  0  0  0
   -5.9323    0.2716   -0.4147 H   0  0  0  0  0  0  0  0  0  0  0  0
   -5.2677   -0.9861    0.6110 H   0  0  0  0  0  0  0  0  0  0  0  0
   -1.8663   -4.3727   -0.3778 H   0  0  0  0  0  0  0  0  0  0  0  0
   -3.3260   -3.9224    0.4028 H   0  0  0  0  0  0  0  0  0  0  0  0
   -4.7787    3.8594   -0.2435 H   0  0  0  0  0  0  0  0  0  0  0  0
   -5.8198    2.5147    0.1325 H   0  0  0  0  0  0  0  0  0  0  0  0
    3.1807    4.4126    0.4339 H   0  0  0  0  0  0  0  0  0  0  0  0
    2.0970    3.3595    1.3308 H   0  0  0  0  0  0  0  0  0  0  0  0
    1.9206    3.5853   -0.4694 H   0  0  0  0  0  0  0  0  0  0  0  0
    7.0850    0.3941    0.5643 H   0  0  0  0  0  0  0  0  0  0  0  0
    5.9532   -0.7478    1.3229 H   0  0  0  0  0  0  0  0  0  0  0  0
    5.7380    1.0202    1.5409 H   0  0  0  0  0  0  0  0  0  0  0  0
  1 21  1  0  0  0  0
  1 24  1  0  0  0  0
  2 22  1  0  0  0  0
  2 25  1  0  0  0  0
  3 11  2  0  0  0  0
  3 14  1  0  0  0  0
  4 12  1  0  0  0  0
  4 17  2  0  0  0  0
  5 14  1  0  0  0  0
  5 34  1  0  0  0  0
  5 35  1  0  0  0  0
  6 18  1  0  0  0  0
  6 36  1  0  0  0  0
  6 37  1  0  0  0  0
  7  8  2  0  0  0  0
  7  9  1  0  0  0  0
  7 10  1  0  0  0  0
  8 11  1  0  0  0  0
  8 15  1  0  0  0  0
  9 12  1  0  0  0  0
  9 16  2  0  0  0  0
 10 14  2  0  0  0  0
 10 17  1  0  0  0  0
 11 13  1  0  0  0  0
 12 20  2  0  0  0  0
 13 18  2  0  0  0  0
 13 23  1  0  0  0  0
 15 19  2  0  0  0  0
 15 26  1  0  0  0  0
 16 21  1  0  0  0  0
 16 27  1  0  0  0  0
 17 28  1  0  0  0  0
 18 19  1  0  0  0  0
 19 29  1  0  0  0  0
 20 22  1  0  0  0  0
 20 30  1  0  0  0  0
 21 22  2  0  0  0  0
 23 31  1  0  0  0  0
 23 32  1  0  0  0  0
 23 33  1  0  0  0  0
 24 38  1  0  0  0  0
 24 39  1  0  0  0  0
 24 40  1  0  0  0  0
 25 41  1  0  0  0  0
 25 42  1  0  0  0  0
 25 43  1  0  0  0  0
M  END
> <PUBCHEM_COMPOUND_CID>
17754396

> <PUBCHEM_CONFORMER_RMSD>
0.6

> <PUBCHEM_CONFORMER_DIVERSEORDER>
3
1
2

> <PUBCHEM_MMFF94_PARTIAL_CHARGES>
30
1 -0.36
11 0.31
12 0.31
13 -0.14
14 0.41
15 -0.15
16 -0.15
17 0.16
18 0.1
19 -0.15
2 -0.36
20 -0.15
21 0.08
22 0.08
23 0.14
24 0.28
25 0.28
26 0.15
27 0.15
28 0.15
29 0.15
3 -0.62
30 0.15
34 0.4
35 0.4
36 0.4
37 0.4
4 -0.62
5 -0.9
6 -0.9

> <PUBCHEM_EFFECTIVE_ROTOR_COUNT>
2

> <PUBCHEM_PHARMACOPHORE_FEATURES>
12
1 1 acceptor
1 2 acceptor
1 3 acceptor
1 4 acceptor
1 5 cation
1 5 donor
1 6 cation
1 6 donor
6 3 7 8 10 11 14 rings
6 4 7 9 10 12 17 rings
6 8 11 13 15 18 19 rings
6 9 12 16 20 21 22 rings

> <PUBCHEM_HEAVY_ATOM_COUNT>
25

> <PUBCHEM_ATOM_DEF_STEREO_COUNT>
0

> <PUBCHEM_ATOM_UDEF_STEREO_COUNT>
0

> <PUBCHEM_BOND_DEF_STEREO_COUNT>
0

> <PUBCHEM_BOND_UDEF_STEREO_COUNT>
0

> <PUBCHEM_ISOTOPIC_ATOM_COUNT>
0

> <PUBCHEM_COMPONENT_COUNT>
1

> <PUBCHEM_CACTVS_TAUTO_COUNT>
18

> <PUBCHEM_CONFORMER_ID>
010EE91C00000003

> <PUBCHEM_MMFF94_ENERGY>
140.5765

> <PUBCHEM_FEATURE_SELFOVERLAP>
60.983

> <PUBCHEM_SHAPE_FINGERPRINT>
10319926 262 18268411573773471178
10411042 1 17833552675530137155
10608611 8 18411701023430355556
10616163 171 18410294756506290678
10670039 82 17829901176334855980
10675989 125 17255391627188831421
10967382 1 18266460901625453127
1100329 8 18411418431815421760
11370993 70 18410853239688196005
11578080 2 16915643998657306034
12107183 9 18190168002552925930
12173636 292 18266738158975876015
12390115 104 18198358281341676257
12403260 363 18338788043948570390
12633257 1 18408598171826528184
12925494 130 18051132489436558209
13140716 1 18265335186412773290
13402501 40 18410293571132357188
138480 1 17401205569424627855
14466204 15 18410004421702878872
14787075 74 18201435913615018237
14790565 3 18338243652211848509
15042514 8 18263649640010581723
15196674 1 18337955567459200247
1601671 61 18410011005898351156
19591789 44 18339643472215792377
20510252 161 18125726935196133555
21065198 57 18338517542629001706
21279426 13 18268434525656954294
21421861 104 17678165007036641626
23227448 37 18413107281601501599
23558518 356 18116433841638460928
23559900 14 18271810095284764534
238 59 17758078572525414005
335352 9 18411138030812124292
350125 39 18338239366018590164
3680242 22 18264208019986386016
392239 28 18410304622668259579
474 4 18341049610254330945
5104073 3 18190468151735852587
5265222 85 18195539297559333316
59755656 215 18340210687683636254
7097593 13 17969762117430333970
7808743 9 18408885152856158864
9709674 26 18341618117805912190
9981440 41 18335139769704815043

> <PUBCHEM_SHAPE_MULTIPOLES>
482.83
10.29
3.94
0.68
4.07
0.4
-0.02
-5.28
-1.32
-1.49
-0.07
0.15
-0.04
0.67

> <PUBCHEM_SHAPE_SELFOVERLAP>
1088.301

> <PUBCHEM_SHAPE_VOLUME>
254.4

> <PUBCHEM_COORDINATE_TYPE>
2
5
10

$$$$
