9950716
  -OEChem-10052120443D

 44 47  0     0  0  0  0  0  0999 V2000
   -5.7223    1.5482   -1.1163 O   0  0  0  0  0  0  0  0  0  0  0  0
    2.6680   -0.2499   -0.9967 O   0  0  0  0  0  0  0  0  0  0  0  0
    1.7058    0.7189    0.9073 N   0  0  0  0  0  0  0  0  0  0  0  0
   -7.1845   -0.2591   -0.5713 N   0  0  0  0  0  0  0  0  0  0  0  0
    3.9955    0.4312    0.8041 N   0  0  0  0  0  0  0  0  0  0  0  0
   -6.0785   -2.1120    0.5581 N   0  0  0  0  0  0  0  0  0  0  0  0
   -3.7493   -2.1076    1.0655 N   0  0  0  0  0  0  0  0  0  0  0  0
   -3.7824    0.7423   -0.3059 C   0  0  0  0  0  0  0  0  0  0  0  0
   -2.3832    0.7363    0.0032 C   0  0  0  0  0  0  0  0  0  0  0  0
   -4.7942   -0.2189   -0.0672 C   0  0  0  0  0  0  0  0  0  0  0  0
   -5.9700    0.3180   -0.5817 C   0  0  0  0  0  0  0  0  0  0  0  0
   -1.9334    1.2451    1.2232 C   0  0  0  0  0  0  0  0  0  0  0  0
   -1.4653    0.2216   -0.9146 C   0  0  0  0  0  0  0  0  0  0  0  0
   -4.3972    1.7946   -0.9442 C   0  0  0  0  0  0  0  0  0  0  0  0
    0.3437    0.7247    0.6057 C   0  0  0  0  0  0  0  0  0  0  0  0
   -4.8826   -1.4801    0.5172 C   0  0  0  0  0  0  0  0  0  0  0  0
   -0.5713    1.2394    1.5241 C   0  0  0  0  0  0  0  0  0  0  0  0
   -0.1033    0.2157   -0.6136 C   0  0  0  0  0  0  0  0  0  0  0  0
    5.3003    0.0968    0.3712 C   0  0  0  0  0  0  0  0  0  0  0  0
    2.7837    0.2465    0.1193 C   0  0  0  0  0  0  0  0  0  0  0  0
    7.8551   -0.5578   -0.4761 C   0  0  0  0  0  0  0  0  0  0  0  0
    6.3778    0.3604    1.2006 C   0  0  0  0  0  0  0  0  0  0  0  0
    5.4730   -0.4872   -0.8728 C   0  0  0  0  0  0  0  0  0  0  0  0
   -7.1401   -1.4710    0.0187 C   0  0  0  0  0  0  0  0  0  0  0  0
    7.6644    0.0308    0.7740 C   0  0  0  0  0  0  0  0  0  0  0  0
    6.7594   -0.8169   -1.2995 C   0  0  0  0  0  0  0  0  0  0  0  0
    9.2307   -0.9102   -0.9325 C   0  0  0  0  0  0  0  0  0  0  0  0
   -2.6332    1.6490    1.9513 H   0  0  0  0  0  0  0  0  0  0  0  0
   -1.7981   -0.1799   -1.8692 H   0  0  0  0  0  0  0  0  0  0  0  0
   -4.0527    2.7462   -1.3243 H   0  0  0  0  0  0  0  0  0  0  0  0
   -0.2371    1.6388    2.4783 H   0  0  0  0  0  0  0  0  0  0  0  0
    0.5401   -0.1999   -1.3759 H   0  0  0  0  0  0  0  0  0  0  0  0
    1.9540    1.1062    1.8143 H   0  0  0  0  0  0  0  0  0  0  0  0
    3.9373    0.8568    1.7259 H   0  0  0  0  0  0  0  0  0  0  0  0
    6.2402    0.8189    2.1759 H   0  0  0  0  0  0  0  0  0  0  0  0
    4.6805   -0.7192   -1.5683 H   0  0  0  0  0  0  0  0  0  0  0  0
   -8.0832   -2.0048    0.0678 H   0  0  0  0  0  0  0  0  0  0  0  0
    8.5103    0.2393    1.4239 H   0  0  0  0  0  0  0  0  0  0  0  0
    6.8969   -1.2735   -2.2763 H   0  0  0  0  0  0  0  0  0  0  0  0
   -3.8536   -3.0232    1.4818 H   0  0  0  0  0  0  0  0  0  0  0  0
   -2.8438   -1.6615    1.0510 H   0  0  0  0  0  0  0  0  0  0  0  0
    9.6728   -0.0697   -1.4766 H   0  0  0  0  0  0  0  0  0  0  0  0
    9.8775   -1.1581   -0.0839 H   0  0  0  0  0  0  0  0  0  0  0  0
    9.2162   -1.7859   -1.5903 H   0  0  0  0  0  0  0  0  0  0  0  0
  1 11  1  0  0  0  0
  1 14  1  0  0  0  0
  2 20  2  0  0  0  0
  3 15  1  0  0  0  0
  3 20  1  0  0  0  0
  3 33  1  0  0  0  0
  4 11  2  0  0  0  0
  4 24  1  0  0  0  0
  5 19  1  0  0  0  0
  5 20  1  0  0  0  0
  5 34  1  0  0  0  0
  6 16  1  0  0  0  0
  6 24  2  0  0  0  0
  7 16  1  0  0  0  0
  7 40  1  0  0  0  0
  7 41  1  0  0  0  0
  8  9  1  0  0  0  0
  8 10  1  0  0  0  0
  8 14  2  0  0  0  0
  9 12  2  0  0  0  0
  9 13  1  0  0  0  0
 10 11  1  0  0  0  0
 10 16  2  0  0  0  0
 12 17  1  0  0  0  0
 12 28  1  0  0  0  0
 13 18  2  0  0  0  0
 13 29  1  0  0  0  0
 14 30  1  0  0  0  0
 15 17  2  0  0  0  0
 15 18  1  0  0  0  0
 17 31  1  0  0  0  0
 18 32  1  0  0  0  0
 19 22  2  0  0  0  0
 19 23  1  0  0  0  0
 21 25  2  0  0  0  0
 21 26  1  0  0  0  0
 21 27  1  0  0  0  0
 22 25  1  0  0  0  0
 22 35  1  0  0  0  0
 23 26  2  0  0  0  0
 23 36  1  0  0  0  0
 24 37  1  0  0  0  0
 25 38  1  0  0  0  0
 26 39  1  0  0  0  0
 27 42  1  0  0  0  0
 27 43  1  0  0  0  0
 27 44  1  0  0  0  0
M  END
> <PUBCHEM_COMPOUND_CID>
9950716

> <PUBCHEM_CONFORMER_RMSD>
0.8

> <PUBCHEM_CONFORMER_DIVERSEORDER>
1
5
4
8
2
6
3
7

> <PUBCHEM_MMFF94_PARTIAL_CHARGES>
40
1 -0.28
11 0.4
12 -0.15
13 -0.15
14 -0.01
15 0.12
16 0.41
17 -0.15
18 -0.15
19 0.12
2 -0.57
20 0.69
21 -0.14
22 -0.15
23 -0.15
24 0.47
25 -0.15
26 -0.15
27 0.14
28 0.15
29 0.15
3 -0.55
30 0.15
31 0.15
32 0.15
33 0.37
34 0.37
35 0.15
36 0.15
37 0.15
38 0.15
39 0.15
4 -0.57
40 0.4
41 0.4
5 -0.55
6 -0.62
7 -0.9
8 -0.05
9 0.05

> <PUBCHEM_EFFECTIVE_ROTOR_COUNT>
5

> <PUBCHEM_PHARMACOPHORE_FEATURES>
10
1 2 acceptor
1 3 donor
1 5 donor
1 7 cation
1 7 donor
3 4 6 24 cation
5 1 8 10 11 14 rings
6 19 21 22 23 25 26 rings
6 4 6 10 11 16 24 rings
6 9 12 13 15 17 18 rings

> <PUBCHEM_HEAVY_ATOM_COUNT>
27

> <PUBCHEM_ATOM_DEF_STEREO_COUNT>
0

> <PUBCHEM_ATOM_UDEF_STEREO_COUNT>
0

> <PUBCHEM_BOND_DEF_STEREO_COUNT>
0

> <PUBCHEM_BOND_UDEF_STEREO_COUNT>
0

> <PUBCHEM_ISOTOPIC_ATOM_COUNT>
0

> <PUBCHEM_COMPONENT_COUNT>
1

> <PUBCHEM_CACTVS_TAUTO_COUNT>
12

> <PUBCHEM_CONFORMER_ID>
0097D5FC00000001

> <PUBCHEM_MMFF94_ENERGY>
81.9264

> <PUBCHEM_FEATURE_SELFOVERLAP>
50.918

> <PUBCHEM_SHAPE_FINGERPRINT>
10 15 18201430416040951504
10299344 5 17385441016607882010
10674148 151 18411420610144238481
11315181 36 16298391262390546725
11524674 6 17988922297255676311
12082328 90 18409164372996404916
12166972 35 18261395572290913284
12236239 1 16732695048353169945
12741549 16 17704072924466668273
13288520 33 18261108595908767997
13668630 136 18412827971826189596
13685833 64 17632858625143564912
13885169 127 18410011013734061177
14028597 1 14333139541865034214
14068700 675 17675926495419565596
14251764 18 16298105372387753620
14344974 204 17914050056651767727
14729087 3 8502659203077998479
14849402 71 13973387115452881498
14856354 85 17894633673526161655
150020 25 18412824681796825348
15152005 1 17834398196215590895
15183329 4 15864067680849368336
15352257 5 18412546500865572990
15419008 47 18343575235888042248
15419008 91 18267282336113640760
15461852 350 18040721359575964244
15510794 2 18411698782496891138
15716309 27 16128655249568030008
1577012 14 16443342040232198740
15849732 13 18411698790464320988
18643901 69 18335421292648338615
18681886 176 18114457950276217393
2026 5 18342738516086963223
21150785 3 17748829618420273900
21267235 1 17489590052579036968
21360443 120 16732697238364927683
21623969 137 17632582651445168766
21792961 116 18059572447822130605
22288116 15 16660650695499112163
23081809 10 16660639631573744888
23522609 53 16951423022228120492
23559900 14 18190174771105158665
23576562 1 17024047023999951830
246663 6 17703793617819959662
249057 3 18040714784055153533
2838139 119 15285360613083788924
3004659 81 18187080680564078376
3178227 256 17203611506099884170
335352 9 14418140621086168510
3383291 50 17917992793331123254
397830 11 18198051676616721248
4325135 7 17095521794732787126
4339292 15 18339915018009148759
445580 160 18412546534892865511
44880568 143 18334859394440484236
504843 32 13984957241509209600
5265222 85 18261958569066487723
57527295 17 17773015490456909213
58083652 198 15410881960175429609
58902169 19 16805326617357127254
5937810 71 13262938699990452407
636775 8 18342747329549167478
9962374 69 17131817799332303660
999808 66 17989490731607507735

> <PUBCHEM_SHAPE_MULTIPOLES>
519
26.65
1.54
1.25
32.7
0.32
-0.04
10.37
3.75
-2.49
-0.28
0.13
-0.11
2.47

> <PUBCHEM_SHAPE_SELFOVERLAP>
1153.602

> <PUBCHEM_SHAPE_VOLUME>
275.3

> <PUBCHEM_COORDINATE_TYPE>
2
5
10

$$$$
