46868971
  -OEChem-10052115163D

 57 61  0     1  0  0  0  0  0999 V2000
    1.7202   -3.5413    0.2769 S   0  0  0  0  0  0  0  0  0  0  0  0
    6.1349    1.8161    1.3275 O   0  0  0  0  0  0  0  0  0  0  0  0
    4.4977    0.2324   -0.3775 N   0  0  0  0  0  0  0  0  0  0  0  0
    3.1926   -2.9571   -0.2265 N   0  0  0  0  0  0  0  0  0  0  0  0
   -0.5013   -2.0096    0.1298 N   0  0  0  0  0  0  0  0  0  0  0  0
   -3.5748    0.0548   -0.0536 N   0  0  0  0  0  0  0  0  0  0  0  0
   -0.8662    0.1774   -0.6219 N   0  0  0  0  0  0  0  0  0  0  0  0
   -3.4131   -2.0368    0.7025 N   0  0  0  0  0  0  0  0  0  0  0  0
   -8.0367    1.3511    0.6611 N   0  0  0  0  0  0  0  0  0  0  0  0
   -7.6156    2.0456   -0.4096 N   0  0  0  0  0  0  0  0  0  0  0  0
    5.6750    0.9477   -0.8914 C   0  0  0  0  0  0  0  0  0  0  0  0
    4.7034   -0.1215    1.0347 C   0  0  0  0  0  0  0  0  0  0  0  0
    5.9367    2.1945   -0.0392 C   0  0  2  0  0  0  0  0  0  0  0  0
    4.9833    1.1454    1.8508 C   0  0  1  0  0  0  0  0  0  0  0  0
    4.2270   -0.9610   -1.1766 C   0  0  1  0  0  0  0  0  0  0  0  0
    7.1899    2.9235   -0.5045 C   0  0  0  0  0  0  0  0  0  0  0  0
    5.2665    0.8071    3.3082 C   0  0  0  0  0  0  0  0  0  0  0  0
    3.0154   -1.7115   -0.6604 C   0  0  0  0  0  0  0  0  0  0  0  0
    4.0687   -0.5729   -2.6484 C   0  0  0  0  0  0  0  0  0  0  0  0
    1.6941   -1.1833   -0.6041 C   0  0  0  0  0  0  0  0  0  0  0  0
    0.8304   -2.1230   -0.0844 C   0  0  0  0  0  0  0  0  0  0  0  0
   -1.3420   -0.9409   -0.1099 C   0  0  0  0  0  0  0  0  0  0  0  0
   -2.7593   -1.0190    0.1929 C   0  0  0  0  0  0  0  0  0  0  0  0
   -4.8384   -0.3014    0.3239 C   0  0  0  0  0  0  0  0  0  0  0  0
   -3.0497    1.2120   -0.5901 C   0  0  0  0  0  0  0  0  0  0  0  0
   -1.7274    1.2466   -0.8579 C   0  0  0  0  0  0  0  0  0  0  0  0
   -4.7129   -1.5943    0.7869 C   0  0  0  0  0  0  0  0  0  0  0  0
   -6.0631    0.5079    0.2556 C   0  0  0  0  0  0  0  0  0  0  0  0
   -1.0824    2.4678   -1.4408 C   0  0  0  0  0  0  0  0  0  0  0  0
   -7.1437    0.4177    1.0987 C   0  0  0  0  0  0  0  0  0  0  0  0
   -6.4094    1.5261   -0.6528 C   0  0  0  0  0  0  0  0  0  0  0  0
    5.5226    1.3036   -1.9148 H   0  0  0  0  0  0  0  0  0  0  0  0
    6.5558    0.2917   -0.8794 H   0  0  0  0  0  0  0  0  0  0  0  0
    3.8188   -0.5989    1.4694 H   0  0  0  0  0  0  0  0  0  0  0  0
    5.5467   -0.8192    1.1302 H   0  0  0  0  0  0  0  0  0  0  0  0
    5.0869    2.8876   -0.0956 H   0  0  0  0  0  0  0  0  0  0  0  0
    4.1251    1.8291    1.8103 H   0  0  0  0  0  0  0  0  0  0  0  0
    5.0898   -1.6427   -1.1218 H   0  0  0  0  0  0  0  0  0  0  0  0
    8.0739    2.2824   -0.4150 H   0  0  0  0  0  0  0  0  0  0  0  0
    7.3748    3.8016    0.1237 H   0  0  0  0  0  0  0  0  0  0  0  0
    7.0973    3.2519   -1.5441 H   0  0  0  0  0  0  0  0  0  0  0  0
    6.1505    0.1660    3.3985 H   0  0  0  0  0  0  0  0  0  0  0  0
    4.4152    0.2999    3.7722 H   0  0  0  0  0  0  0  0  0  0  0  0
    5.4813    1.7190    3.8758 H   0  0  0  0  0  0  0  0  0  0  0  0
    3.3841    0.2735   -2.7810 H   0  0  0  0  0  0  0  0  0  0  0  0
    3.6497   -1.4101   -3.2207 H   0  0  0  0  0  0  0  0  0  0  0  0
    5.0245   -0.3316   -3.1248 H   0  0  0  0  0  0  0  0  0  0  0  0
    1.4449   -0.1847   -0.9307 H   0  0  0  0  0  0  0  0  0  0  0  0
   -0.9513   -2.8332    0.5263 H   0  0  0  0  0  0  0  0  0  0  0  0
   -3.7015    2.0560   -0.7660 H   0  0  0  0  0  0  0  0  0  0  0  0
   -5.4891   -2.2376    1.1775 H   0  0  0  0  0  0  0  0  0  0  0  0
   -0.6191    2.2285   -2.4037 H   0  0  0  0  0  0  0  0  0  0  0  0
   -1.8015    3.2768   -1.6070 H   0  0  0  0  0  0  0  0  0  0  0  0
   -0.3050    2.8437   -0.7675 H   0  0  0  0  0  0  0  0  0  0  0  0
   -7.3589   -0.2089    1.9531 H   0  0  0  0  0  0  0  0  0  0  0  0
   -5.8534    1.9101   -1.4957 H   0  0  0  0  0  0  0  0  0  0  0  0
   -8.9485    1.5667    1.0445 H   0  0  0  0  0  0  0  0  0  0  0  0
  1  4  1  0  0  0  0
  1 21  1  0  0  0  0
  2 13  1  0  0  0  0
  2 14  1  0  0  0  0
  3 11  1  0  0  0  0
  3 12  1  0  0  0  0
  3 15  1  0  0  0  0
  4 18  2  0  0  0  0
  5 21  1  0  0  0  0
  5 22  1  0  0  0  0
  5 49  1  0  0  0  0
  6 23  1  0  0  0  0
  6 24  1  0  0  0  0
  6 25  1  0  0  0  0
  7 22  2  0  0  0  0
  7 26  1  0  0  0  0
  8 23  2  0  0  0  0
  8 27  1  0  0  0  0
  9 10  1  0  0  0  0
  9 30  1  0  0  0  0
  9 57  1  0  0  0  0
 10 31  2  0  0  0  0
 11 13  1  0  0  0  0
 11 32  1  0  0  0  0
 11 33  1  0  0  0  0
 12 14  1  0  0  0  0
 12 34  1  0  0  0  0
 12 35  1  0  0  0  0
 13 16  1  0  0  0  0
 13 36  1  0  0  0  0
 14 17  1  0  0  0  0
 14 37  1  0  0  0  0
 15 18  1  0  0  0  0
 15 19  1  0  0  0  0
 15 38  1  0  0  0  0
 16 39  1  0  0  0  0
 16 40  1  0  0  0  0
 16 41  1  0  0  0  0
 17 42  1  0  0  0  0
 17 43  1  0  0  0  0
 17 44  1  0  0  0  0
 18 20  1  0  0  0  0
 19 45  1  0  0  0  0
 19 46  1  0  0  0  0
 19 47  1  0  0  0  0
 20 21  2  0  0  0  0
 20 48  1  0  0  0  0
 22 23  1  0  0  0  0
 24 27  2  0  0  0  0
 24 28  1  0  0  0  0
 25 26  2  0  0  0  0
 25 50  1  0  0  0  0
 26 29  1  0  0  0  0
 27 51  1  0  0  0  0
 28 30  2  0  0  0  0
 28 31  1  0  0  0  0
 29 52  1  0  0  0  0
 29 53  1  0  0  0  0
 29 54  1  0  0  0  0
 30 55  1  0  0  0  0
 31 56  1  0  0  0  0
M  END
> <PUBCHEM_COMPOUND_CID>
46868971

> <PUBCHEM_CONFORMER_RMSD>
1

> <PUBCHEM_CONFORMER_DIVERSEORDER>
1
132
42
18
62
72
66
123
79
111
38
68
5
54
121
28
100
3
50
151
30
24
122
77
15
147
60
104
63
84
139
23
9
11
48
120
40
106
129
6
114
59
90
41
4
118
7
69
130
74
108
12
43
117
119
124
150
126
116
142
135
14
75
17
146
55
110
131
83
67
27
93
95
153
61
155
25
32
44
73
94
98
145
141
88
137
140
148
102
35
103
91
65
21
82
105
156
33
13
87
92
152
19
86
8
53
85
29
58
2
96
138
31
127
16
10
34
57
128
101
39
51
80
22
154
112
89
109
78
46
70
64
45
149
37
81
36
52
26
20
125
144
136
97
113
133
47
99
143
49
134
56
76
71
107
115

> <PUBCHEM_MMFF94_PARTIAL_CHARGES>
34
1 0.18
10 -0.71
11 0.27
12 0.27
13 0.28
14 0.28
15 0.45
18 0.11
2 -0.56
20 -0.15
21 0.12
22 0.58
23 0.1
24 -0.15
25 -0.18
26 0.03
27 0.08
29 0.14
3 -0.81
30 -0.3
31 0.14
4 -0.51
48 0.15
49 0.4
5 -0.53
50 0.15
51 0.15
55 0.15
56 0.15
57 0.27
6 0.33
7 -0.62
8 -0.57
9 0.3

> <PUBCHEM_EFFECTIVE_ROTOR_COUNT>
6.2

> <PUBCHEM_PHARMACOPHORE_FEATURES>
13
1 10 acceptor
1 2 acceptor
1 3 cation
1 4 acceptor
1 5 donor
1 9 donor
3 5 7 22 cation
3 6 8 23 cation
5 1 4 18 20 21 rings
5 6 8 23 24 27 rings
5 9 10 28 30 31 rings
6 2 3 11 12 13 14 rings
6 6 7 22 23 25 26 rings

> <PUBCHEM_HEAVY_ATOM_COUNT>
31

> <PUBCHEM_ATOM_DEF_STEREO_COUNT>
3

> <PUBCHEM_ATOM_UDEF_STEREO_COUNT>
0

> <PUBCHEM_BOND_DEF_STEREO_COUNT>
0

> <PUBCHEM_BOND_UDEF_STEREO_COUNT>
0

> <PUBCHEM_ISOTOPIC_ATOM_COUNT>
0

> <PUBCHEM_COMPONENT_COUNT>
1

> <PUBCHEM_CACTVS_TAUTO_COUNT>
15

> <PUBCHEM_CONFORMER_ID>
02CB29EB00000001

> <PUBCHEM_MMFF94_ENERGY>
57.2008

> <PUBCHEM_FEATURE_SELFOVERLAP>
66.125

> <PUBCHEM_SHAPE_FINGERPRINT>
10 15 18040157322864155921
10939801 23 17968942019474911500
11181472 205 16700347305074898889
11211813 74 18341331081706538821
11991303 11 14620502425107541557
12539765 74 17345765067185591191
13383668 362 18186795838534410514
13402501 40 18340488971578851308
1361 4 8645895869006185705
14004852 352 17489295442896789825
14294032 229 18269270334592734950
14461889 52 18186811287763356283
14849402 71 18271814519338866033
15183329 4 14261639438486249504
18335252 114 16845297138208186204
19301679 30 12396291539267756398
20397935 70 13190341262347355890
20511986 3 18335135363637944687
21033648 29 18270110331906943592
21130935 74 18263371309372191579
21792934 111 18042399132910815341
22149856 69 18116733837242353833
23559900 14 18044934567479761974
24771293 8 18409166645139631909
34797466 226 17417818301251510199
3918712 181 18341894134407093688
394071 54 18202290203373165113
4073 2 18334582364860147139
4093350 32 17489874808330351013
4169191 19 18411702084878725449
4330586 98 7996847700453570800
44249763 50 17916853729248810655
44317340 157 18060136518403216566
504579 68 14908184152892097501
5104073 3 18116715110588662603
5109719 28 18337402624869412185
5718773 13 9151185237690540552
59682541 52 16128665137088998356
7808743 9 18193274324986083158
9849439 229 18335422404712643470

> <PUBCHEM_SHAPE_MULTIPOLES>
596.1
21.44
3.27
1.77
16.96
1.13
0.81
-17.02
5.11
-2.75
-0.3
-3.65
-0.53
1.85

> <PUBCHEM_SHAPE_SELFOVERLAP>
1284.061

> <PUBCHEM_SHAPE_VOLUME>
333.9

> <PUBCHEM_COORDINATE_TYPE>
2
5
10

$$$$
