44353112
  -OEChem-10062122013D

 71 79  0     1  0  0  0  0  0999 V2000
   -0.5637   -0.5162    2.1836 O   0  0  0  0  0  0  0  0  0  0  0  0
   -1.5360    0.0897   -0.9473 O   0  0  0  0  0  0  0  0  0  0  0  0
    6.0478   -0.7420   -1.0302 O   0  0  0  0  0  0  0  0  0  0  0  0
    0.0218    1.2912    0.8420 N   0  0  0  0  0  0  0  0  0  0  0  0
    0.9273   -1.5683    0.7414 N   0  0  0  0  0  0  0  0  0  0  0  0
   -3.6725   -1.6730   -0.2826 N   0  0  3  0  0  0  0  0  0  0  0  0
    5.7390    1.5762   -1.1041 N   0  0  0  0  0  0  0  0  0  0  0  0
   -1.1009    0.5681    1.4207 C   0  0  1  0  0  0  0  0  0  0  0  0
   -2.1432    0.1307    0.3520 C   0  0  2  0  0  0  0  0  0  0  0  0
   -2.6735   -1.2617    0.6809 C   0  0  2  0  0  0  0  0  0  0  0  0
   -0.3077   -1.7061    1.4785 C   0  0  2  0  0  0  0  0  0  0  0  0
   -1.5034   -2.2402    0.6762 C   0  0  0  0  0  0  0  0  0  0  0  0
    1.2784    0.8675    0.4762 C   0  0  0  0  0  0  0  0  0  0  0  0
    1.7061   -0.4916    0.4184 C   0  0  0  0  0  0  0  0  0  0  0  0
    2.2661    1.8267    0.0366 C   0  0  0  0  0  0  0  0  0  0  0  0
    3.0630   -0.6919   -0.0640 C   0  0  0  0  0  0  0  0  0  0  0  0
    0.0733    2.6448    0.4785 C   0  0  0  0  0  0  0  0  0  0  0  0
   -1.8129    1.3514    2.5486 C   0  0  0  0  0  0  0  0  0  0  0  0
    1.7676   -2.6380    0.4162 C   0  0  0  0  0  0  0  0  0  0  0  0
    1.4028    3.0006    0.0978 C   0  0  0  0  0  0  0  0  0  0  0  0
    3.5844    1.6199   -0.3569 C   0  0  0  0  0  0  0  0  0  0  0  0
    3.9858    0.2941   -0.4065 C   0  0  0  0  0  0  0  0  0  0  0  0
    3.0281   -2.1593   -0.0494 C   0  0  0  0  0  0  0  0  0  0  0  0
    4.6808    2.5214   -0.8163 C   0  0  0  0  0  0  0  0  0  0  0  0
   -0.9476    3.6170    0.4317 C   0  0  0  0  0  0  0  0  0  0  0  0
    5.3685    0.2542   -0.8779 C   0  0  0  0  0  0  0  0  0  0  0  0
    1.5089   -4.0211    0.5205 C   0  0  0  0  0  0  0  0  0  0  0  0
    1.6713    4.3544   -0.2294 C   0  0  0  0  0  0  0  0  0  0  0  0
   -3.4296   -2.8853   -1.0625 C   0  0  0  0  0  0  0  0  0  0  0  0
   -4.8504   -0.9393   -0.4665 C   0  0  0  0  0  0  0  0  0  0  0  0
    3.9949   -3.1320   -0.4122 C   0  0  0  0  0  0  0  0  0  0  0  0
   -2.5088    0.1585   -1.9817 C   0  0  0  0  0  0  0  0  0  0  0  0
   -0.6422    4.9379    0.0937 C   0  0  0  0  0  0  0  0  0  0  0  0
    0.6545    5.3085   -0.2173 C   0  0  0  0  0  0  0  0  0  0  0  0
    2.4937   -4.9367    0.1531 C   0  0  0  0  0  0  0  0  0  0  0  0
    3.7227   -4.4991   -0.3092 C   0  0  0  0  0  0  0  0  0  0  0  0
   -5.4002   -0.2245    0.5976 C   0  0  0  0  0  0  0  0  0  0  0  0
   -5.4742   -0.9232   -1.7139 C   0  0  0  0  0  0  0  0  0  0  0  0
   -6.5742    0.5065    0.4143 C   0  0  0  0  0  0  0  0  0  0  0  0
   -6.6479   -0.1923   -1.8974 C   0  0  0  0  0  0  0  0  0  0  0  0
   -7.1979    0.5225   -0.8332 C   0  0  0  0  0  0  0  0  0  0  0  0
   -2.9293    0.8939    0.3296 H   0  0  0  0  0  0  0  0  0  0  0  0
   -3.1021   -1.2770    1.6906 H   0  0  0  0  0  0  0  0  0  0  0  0
   -0.0855   -2.4443    2.2600 H   0  0  0  0  0  0  0  0  0  0  0  0
   -1.8161   -3.1885    1.1334 H   0  0  0  0  0  0  0  0  0  0  0  0
   -1.1444   -2.4856   -0.3293 H   0  0  0  0  0  0  0  0  0  0  0  0
   -2.4375    0.6791    3.1511 H   0  0  0  0  0  0  0  0  0  0  0  0
   -2.4699    2.1453    2.1919 H   0  0  0  0  0  0  0  0  0  0  0  0
   -1.0846    1.7942    3.2393 H   0  0  0  0  0  0  0  0  0  0  0  0
    4.4250    3.0566   -1.7339 H   0  0  0  0  0  0  0  0  0  0  0  0
    5.0152    3.2046   -0.0320 H   0  0  0  0  0  0  0  0  0  0  0  0
   -1.9819    3.3649    0.6332 H   0  0  0  0  0  0  0  0  0  0  0  0
    0.5511   -4.3853    0.8808 H   0  0  0  0  0  0  0  0  0  0  0  0
    2.6739    4.6588   -0.5189 H   0  0  0  0  0  0  0  0  0  0  0  0
   -3.1988   -3.7359   -0.4117 H   0  0  0  0  0  0  0  0  0  0  0  0
   -2.6307   -2.7738   -1.8004 H   0  0  0  0  0  0  0  0  0  0  0  0
   -4.3207   -3.2232   -1.6040 H   0  0  0  0  0  0  0  0  0  0  0  0
    4.9701   -2.8366   -0.7823 H   0  0  0  0  0  0  0  0  0  0  0  0
    6.6580    1.8484   -1.4387 H   0  0  0  0  0  0  0  0  0  0  0  0
   -2.0098    0.6791   -2.8089 H   0  0  0  0  0  0  0  0  0  0  0  0
   -3.3632    0.7945   -1.7415 H   0  0  0  0  0  0  0  0  0  0  0  0
   -2.7503   -0.8095   -2.4067 H   0  0  0  0  0  0  0  0  0  0  0  0
   -1.4356    5.6804    0.0703 H   0  0  0  0  0  0  0  0  0  0  0  0
    0.8779    6.3387   -0.4792 H   0  0  0  0  0  0  0  0  0  0  0  0
    2.2927   -6.0017    0.2309 H   0  0  0  0  0  0  0  0  0  0  0  0
    4.4830   -5.2211   -0.5946 H   0  0  0  0  0  0  0  0  0  0  0  0
   -4.9580   -0.2219    1.5888 H   0  0  0  0  0  0  0  0  0  0  0  0
   -5.0698   -1.4469   -2.5752 H   0  0  0  0  0  0  0  0  0  0  0  0
   -7.0045    1.0606    1.2433 H   0  0  0  0  0  0  0  0  0  0  0  0
   -7.1313   -0.1752   -2.8698 H   0  0  0  0  0  0  0  0  0  0  0  0
   -8.1116    1.0920   -0.9762 H   0  0  0  0  0  0  0  0  0  0  0  0
  1  8  1  0  0  0  0
  1 11  1  0  0  0  0
  2  9  1  0  0  0  0
  2 32  1  0  0  0  0
  3 26  2  0  0  0  0
  4  8  1  0  0  0  0
  4 13  1  0  0  0  0
  4 17  1  0  0  0  0
  5 11  1  0  0  0  0
  5 14  1  0  0  0  0
  5 19  1  0  0  0  0
  6 10  1  0  0  0  0
  6 29  1  0  0  0  0
  6 30  1  0  0  0  0
  7 24  1  0  0  0  0
  7 26  1  0  0  0  0
  7 59  1  0  0  0  0
  8  9  1  0  0  0  0
  8 18  1  0  0  0  0
  9 10  1  0  0  0  0
  9 42  1  0  0  0  0
 10 12  1  0  0  0  0
 10 43  1  0  0  0  0
 11 12  1  0  0  0  0
 11 44  1  0  0  0  0
 12 45  1  0  0  0  0
 12 46  1  0  0  0  0
 13 14  2  0  0  0  0
 13 15  1  0  0  0  0
 14 16  1  0  0  0  0
 15 20  1  0  0  0  0
 15 21  2  0  0  0  0
 16 22  2  0  0  0  0
 16 23  1  0  0  0  0
 17 20  1  0  0  0  0
 17 25  2  0  0  0  0
 18 47  1  0  0  0  0
 18 48  1  0  0  0  0
 18 49  1  0  0  0  0
 19 23  1  0  0  0  0
 19 27  2  0  0  0  0
 20 28  2  0  0  0  0
 21 22  1  0  0  0  0
 21 24  1  0  0  0  0
 22 26  1  0  0  0  0
 23 31  2  0  0  0  0
 24 50  1  0  0  0  0
 24 51  1  0  0  0  0
 25 33  1  0  0  0  0
 25 52  1  0  0  0  0
 27 35  1  0  0  0  0
 27 53  1  0  0  0  0
 28 34  1  0  0  0  0
 28 54  1  0  0  0  0
 29 55  1  0  0  0  0
 29 56  1  0  0  0  0
 29 57  1  0  0  0  0
 30 37  2  0  0  0  0
 30 38  1  0  0  0  0
 31 36  1  0  0  0  0
 31 58  1  0  0  0  0
 32 60  1  0  0  0  0
 32 61  1  0  0  0  0
 32 62  1  0  0  0  0
 33 34  2  0  0  0  0
 33 63  1  0  0  0  0
 34 64  1  0  0  0  0
 35 36  2  0  0  0  0
 35 65  1  0  0  0  0
 36 66  1  0  0  0  0
 37 39  1  0  0  0  0
 37 67  1  0  0  0  0
 38 40  2  0  0  0  0
 38 68  1  0  0  0  0
 39 41  2  0  0  0  0
 39 69  1  0  0  0  0
 40 41  1  0  0  0  0
 40 70  1  0  0  0  0
 41 71  1  0  0  0  0
M  END
> <PUBCHEM_COMPOUND_CID>
44353112

> <PUBCHEM_CONFORMER_RMSD>
0.8

> <PUBCHEM_CONFORMER_DIVERSEORDER>
1
3
4
2
5

> <PUBCHEM_MMFF94_PARTIAL_CHARGES>
51
1 -0.56
10 0.37
11 0.54
13 -0.05
14 -0.05
15 -0.01
16 -0.01
17 -0.15
19 -0.15
2 -0.56
21 -0.14
22 0.09
24 0.44
25 -0.15
26 0.54
27 -0.15
28 -0.15
29 0.37
3 -0.57
30 0.1
31 -0.15
32 0.28
33 -0.15
34 -0.15
35 -0.15
36 -0.15
37 -0.15
38 -0.15
39 -0.15
4 -0.04
40 -0.15
41 -0.15
5 -0.04
52 0.15
53 0.15
54 0.15
58 0.15
59 0.37
6 -0.84
63 0.15
64 0.15
65 0.15
66 0.15
67 0.15
68 0.15
69 0.15
7 -0.73
70 0.15
71 0.15
8 0.54
9 0.28

> <PUBCHEM_EFFECTIVE_ROTOR_COUNT>
4.2

> <PUBCHEM_PHARMACOPHORE_FEATURES>
16
1 1 acceptor
1 2 acceptor
1 3 acceptor
1 4 cation
1 5 cation
1 6 cation
1 7 donor
5 4 13 15 17 20 rings
5 5 14 16 19 23 rings
5 7 21 22 24 26 rings
6 1 8 9 10 11 12 rings
6 13 14 15 16 21 22 rings
6 17 20 25 28 33 34 rings
6 19 23 27 31 35 36 rings
6 30 37 38 39 40 41 rings
7 1 4 5 8 11 13 14 rings

> <PUBCHEM_HEAVY_ATOM_COUNT>
41

> <PUBCHEM_ATOM_DEF_STEREO_COUNT>
4

> <PUBCHEM_ATOM_UDEF_STEREO_COUNT>
0

> <PUBCHEM_BOND_DEF_STEREO_COUNT>
0

> <PUBCHEM_BOND_UDEF_STEREO_COUNT>
0

> <PUBCHEM_ISOTOPIC_ATOM_COUNT>
0

> <PUBCHEM_COMPONENT_COUNT>
1

> <PUBCHEM_CACTVS_TAUTO_COUNT>
2

> <PUBCHEM_CONFORMER_ID>
02A4C65800000001

> <PUBCHEM_MMFF94_ENERGY>
211.2278

> <PUBCHEM_FEATURE_SELFOVERLAP>
82.157

> <PUBCHEM_SHAPE_FINGERPRINT>
10483366 6 18410012147695059124
10675989 125 18409168827056565560
11115154 58 17846780715935928353
11135609 187 18266181806562167712
11135926 11 18410578400499482034
11445158 3 17321028472746835249
11513181 2 18053111614312420830
11621639 179 18043231485147555773
12788726 201 18335134241854804681
1361 2 18339360876373780920
13636023 51 13757782784844547362
13911987 19 18190194549608573876
14068700 675 17989205957938067929
14415360 78 18120928675116976140
14681490 219 18409729526046470197
15183329 4 18412822495790347077
15274700 232 16754943360957057367
15276724 80 18265618693632104389
15328829 1 17774463624047007979
15351339 4 18189043210341482873
15420108 30 17697060058135611569
15439362 3 17979354492699172036
15444296 8 17838904724191746670
15484559 13 18340481261743693054
15840311 113 18189061898403570765
15927050 60 17833563301895684996
15950262 2 15430892079969378332
16628084 112 18121223082677343283
20775438 99 17834350654430314253
23559900 14 18268707397497828713
24771293 8 18128809936327153008
24771750 20 17899710247307571117
3388396 114 18338244778120261564
3882209 13 17972860481231466162
4353968 344 18341057299311427798
4394409 98 18044672020940584980
463206 1 18338236071662954566
6004065 56 18268424818477067920
70251023 43 18192994816181735042
9961470 85 17766839812421758368

> <PUBCHEM_SHAPE_MULTIPOLES>
806.23
12.8
6.39
1.49
14.51
2.37
-0.21
-3.44
6.99
-6.83
-0.03
1.45
-0.02
-1.11

> <PUBCHEM_SHAPE_SELFOVERLAP>
1861.254

> <PUBCHEM_SHAPE_VOLUME>
411.2

> <PUBCHEM_COORDINATE_TYPE>
2
5
10

$$$$
