24809764
  -OEChem-10052115163D

 34 36  0     0  0  0  0  0  0999 V2000
   -3.1794   -2.1269   -0.0135 O   0  0  0  0  0  0  0  0  0  0  0  0
    0.1777    0.4311   -0.0020 N   0  0  0  0  0  0  0  0  0  0  0  0
    2.8388    1.0656   -0.0016 N   0  0  0  0  0  0  0  0  0  0  0  0
   -1.6430   -3.8293    0.0062 N   0  0  0  0  0  0  0  0  0  0  0  0
    5.1746    0.4726    0.0007 N   0  0  0  0  0  0  0  0  0  0  0  0
    4.5026    2.7206   -0.0029 N   0  0  0  0  0  0  0  0  0  0  0  0
   -1.0687   -0.1386   -0.0007 C   0  0  0  0  0  0  0  0  0  0  0  0
   -0.9075   -1.5066    0.0012 C   0  0  0  0  0  0  0  0  0  0  0  0
    1.1322   -0.5525   -0.0002 C   0  0  0  0  0  0  0  0  0  0  0  0
    0.4850   -1.7684    0.0013 C   0  0  0  0  0  0  0  0  0  0  0  0
   -2.2658    0.6668    0.0002 C   0  0  0  0  0  0  0  0  0  0  0  0
    2.5430   -0.2506   -0.0005 C   0  0  0  0  0  0  0  0  0  0  0  0
   -2.8422    1.0582    1.2087 C   0  0  0  0  0  0  0  0  0  0  0  0
   -2.8465    1.0544   -1.2073 C   0  0  0  0  0  0  0  0  0  0  0  0
   -1.9736   -2.4682    0.0035 C   0  0  0  0  0  0  0  0  0  0  0  0
    3.4941   -1.2504    0.0010 C   0  0  0  0  0  0  0  0  0  0  0  0
   -3.9992    1.8372    1.2096 C   0  0  0  0  0  0  0  0  0  0  0  0
   -4.0036    1.8334   -1.2063 C   0  0  0  0  0  0  0  0  0  0  0  0
   -4.5800    2.2249    0.0021 C   0  0  0  0  0  0  0  0  0  0  0  0
    4.8069   -0.8255    0.0017 C   0  0  0  0  0  0  0  0  0  0  0  0
    4.1548    1.3521   -0.0011 C   0  0  0  0  0  0  0  0  0  0  0  0
    0.3648    1.4251   -0.0033 H   0  0  0  0  0  0  0  0  0  0  0  0
    0.9633   -2.7383    0.0027 H   0  0  0  0  0  0  0  0  0  0  0  0
   -2.4021    0.7640    2.1586 H   0  0  0  0  0  0  0  0  0  0  0  0
   -2.4099    0.7573   -2.1579 H   0  0  0  0  0  0  0  0  0  0  0  0
    3.2611   -2.3073    0.0020 H   0  0  0  0  0  0  0  0  0  0  0  0
   -4.4481    2.1419    2.1505 H   0  0  0  0  0  0  0  0  0  0  0  0
   -4.4560    2.1351   -2.1464 H   0  0  0  0  0  0  0  0  0  0  0  0
   -5.4809    2.8313    0.0028 H   0  0  0  0  0  0  0  0  0  0  0  0
    5.6245   -1.5386    0.0030 H   0  0  0  0  0  0  0  0  0  0  0  0
   -0.6875   -4.1689    0.0130 H   0  0  0  0  0  0  0  0  0  0  0  0
   -2.3725   -4.5347    0.0016 H   0  0  0  0  0  0  0  0  0  0  0  0
    5.4778    2.9856   -0.0024 H   0  0  0  0  0  0  0  0  0  0  0  0
    3.7720    3.4188   -0.0042 H   0  0  0  0  0  0  0  0  0  0  0  0
  1 15  2  0  0  0  0
  2  7  1  0  0  0  0
  2  9  1  0  0  0  0
  2 22  1  0  0  0  0
  3 12  2  0  0  0  0
  3 21  1  0  0  0  0
  4 15  1  0  0  0  0
  4 31  1  0  0  0  0
  4 32  1  0  0  0  0
  5 20  1  0  0  0  0
  5 21  2  0  0  0  0
  6 21  1  0  0  0  0
  6 33  1  0  0  0  0
  6 34  1  0  0  0  0
  7  8  2  0  0  0  0
  7 11  1  0  0  0  0
  8 10  1  0  0  0  0
  8 15  1  0  0  0  0
  9 10  2  0  0  0  0
  9 12  1  0  0  0  0
 10 23  1  0  0  0  0
 11 13  2  0  0  0  0
 11 14  1  0  0  0  0
 12 16  1  0  0  0  0
 13 17  1  0  0  0  0
 13 24  1  0  0  0  0
 14 18  2  0  0  0  0
 14 25  1  0  0  0  0
 16 20  2  0  0  0  0
 16 26  1  0  0  0  0
 17 19  2  0  0  0  0
 17 27  1  0  0  0  0
 18 19  1  0  0  0  0
 18 28  1  0  0  0  0
 19 29  1  0  0  0  0
 20 30  1  0  0  0  0
M  END
> <PUBCHEM_COMPOUND_CID>
24809764

> <PUBCHEM_CONFORMER_RMSD>
0.6

> <PUBCHEM_CONFORMER_DIVERSEORDER>
1
34
36
25
23
26
24
4
31
32
5
15
29
35
16
3
18
6
30
33
14
27
17
12
28
2
19
21
10
8
11
13
20
22
9
7

> <PUBCHEM_MMFF94_PARTIAL_CHARGES>
34
1 -0.57
10 -0.15
11 0.05
12 0.36
13 -0.15
14 -0.15
15 0.72
16 -0.15
17 -0.15
18 -0.15
19 -0.15
2 0.03
20 0.16
21 0.72
22 0.27
23 0.15
24 0.15
25 0.15
26 0.15
27 0.15
28 0.15
29 0.15
3 -0.62
30 0.15
31 0.37
32 0.37
33 0.4
34 0.4
4 -0.8
5 -0.62
6 -0.9
7 -0.2
8 -0.09
9 -0.2

> <PUBCHEM_EFFECTIVE_ROTOR_COUNT>
3

> <PUBCHEM_PHARMACOPHORE_FEATURES>
10
1 1 acceptor
1 2 cation
1 2 donor
1 3 acceptor
1 4 donor
1 6 donor
4 3 5 6 21 cation
5 2 7 8 9 10 rings
6 11 13 14 17 18 19 rings
6 3 5 12 16 20 21 rings

> <PUBCHEM_HEAVY_ATOM_COUNT>
21

> <PUBCHEM_ATOM_DEF_STEREO_COUNT>
0

> <PUBCHEM_ATOM_UDEF_STEREO_COUNT>
0

> <PUBCHEM_BOND_DEF_STEREO_COUNT>
0

> <PUBCHEM_BOND_UDEF_STEREO_COUNT>
0

> <PUBCHEM_ISOTOPIC_ATOM_COUNT>
0

> <PUBCHEM_COMPONENT_COUNT>
1

> <PUBCHEM_CACTVS_TAUTO_COUNT>
21

> <PUBCHEM_CONFORMER_ID>
017A912400000001

> <PUBCHEM_MMFF94_ENERGY>
54.248

> <PUBCHEM_FEATURE_SELFOVERLAP>
50.746

> <PUBCHEM_SHAPE_FINGERPRINT>
10014705 185 18334573551122544572
11405975 8 18409727361889244914
11725454 13 17024571310562679565
12107183 9 18264200310789478882
12236239 1 17702939207107169293
12390115 104 18340784696544718185
12596602 18 14273752728415356276
12633257 1 18336255752911225114
12788726 201 18194104438263168267
12969540 114 18116134611436007669
13140716 1 18408324371887927298
13583140 156 17313103021087316881
13675066 3 17676494912675812976
14787075 74 18202563965442803825
14790565 3 18268717104034779465
14848178 96 18341887520083507232
15196674 1 18410574020207612676
15342168 16 18339931407282531445
1741750 31 18413107251383690995
17834072 32 18410576154115411752
18186145 218 18340491075732725956
20286276 3 18337679715069914382
204376 136 18337955576275871219
20510252 161 18340769359380307595
20602899 9 15410605999963126591
20645477 56 18333734585005973860
21033648 144 18411688903376142268
21033648 29 18189602878629186284
21033650 10 16844189865116058048
21065198 57 18410856581779478670
21236236 1 18412544327896581063
21524375 3 18129657483439279183
21756936 100 17489036959316915841
22079108 93 18271812298476263657
22182937 141 18412830213287597217
22224240 67 18337682915221074369
22950370 63 9150875205439355461
23227448 37 18409729581701677701
23402539 116 18059005086341080476
23557571 272 18200042853435255326
23558518 356 18115874177456723722
23559900 14 18272371928599533774
283562 15 18191862546828161163
335352 9 18338798897695119382
350125 39 18339084916425300185
4214541 1 18410856581589464166
474 4 18198905812335929777
5104073 3 18335696178997258600
559249 180 18337103485035493922
59755656 520 18411139091616545543
633830 44 17914622657326987261
9709674 26 18342462560427791638

> <PUBCHEM_SHAPE_MULTIPOLES>
401.4
10.44
3.21
0.89
7.42
2.08
0
-7.37
0
-1.6
0
-1.05
-0.38
-0.01

> <PUBCHEM_SHAPE_SELFOVERLAP>
890.565

> <PUBCHEM_SHAPE_VOLUME>
213.1

> <PUBCHEM_COORDINATE_TYPE>
2
5
10

$$$$
