24905298
  -OEChem-10052115143D

 52 55  0     0  0  0  0  0  0999 V2000
    3.8169    1.1125    1.9806 O   0  0  0  0  0  0  0  0  0  0  0  0
    5.0081    1.4547   -0.5070 O   0  0  0  0  0  0  0  0  0  0  0  0
   -2.4120   -0.0706   -0.0399 N   0  0  0  0  0  0  0  0  0  0  0  0
   -1.2968    0.6784   -0.1247 N   0  0  0  0  0  0  0  0  0  0  0  0
   -3.0758   -2.3964    0.0699 N   0  0  0  0  0  0  0  0  0  0  0  0
   -1.1469   -3.8886    0.0113 N   0  0  0  0  0  0  0  0  0  0  0  0
    1.0977   -3.0901   -0.1358 N   0  0  0  0  0  0  0  0  0  0  0  0
   -3.7680    0.6094    0.0130 C   0  0  0  0  0  0  0  0  0  0  0  0
   -4.0560    1.4136   -1.2668 C   0  0  0  0  0  0  0  0  0  0  0  0
   -3.9169    1.4933    1.2639 C   0  0  0  0  0  0  0  0  0  0  0  0
   -5.4265    2.0859   -1.2074 C   0  0  0  0  0  0  0  0  0  0  0  0
   -5.2881    2.1651    1.3128 C   0  0  0  0  0  0  0  0  0  0  0  0
   -5.5743    2.9543    0.0385 C   0  0  0  0  0  0  0  0  0  0  0  0
   -2.1673   -1.4114   -0.0111 C   0  0  0  0  0  0  0  0  0  0  0  0
   -0.7922   -1.5503   -0.0821 C   0  0  0  0  0  0  0  0  0  0  0  0
   -0.3138   -0.2285   -0.1500 C   0  0  0  0  0  0  0  0  0  0  0  0
    1.0579    0.2044   -0.2390 C   0  0  0  0  0  0  0  0  0  0  0  0
   -0.2860   -2.8457   -0.0689 C   0  0  0  0  0  0  0  0  0  0  0  0
   -2.4694   -3.6033    0.0747 C   0  0  0  0  0  0  0  0  0  0  0  0
    1.7873    0.4528    0.9237 C   0  0  0  0  0  0  0  0  0  0  0  0
    1.6559    0.3761   -1.4874 C   0  0  0  0  0  0  0  0  0  0  0  0
    3.1148    0.8725    0.8381 C   0  0  0  0  0  0  0  0  0  0  0  0
    2.9832    0.7962   -1.5731 C   0  0  0  0  0  0  0  0  0  0  0  0
    3.7128    1.0443   -0.4104 C   0  0  0  0  0  0  0  0  0  0  0  0
    5.9173    0.5799   -1.1720 C   0  0  0  0  0  0  0  0  0  0  0  0
    4.5357    0.0160    2.5420 C   0  0  0  0  0  0  0  0  0  0  0  0
    7.3024    0.7754   -0.5931 C   0  0  0  0  0  0  0  0  0  0  0  0
   -4.4898   -0.2150    0.0786 H   0  0  0  0  0  0  0  0  0  0  0  0
   -4.0085    0.7530   -2.1409 H   0  0  0  0  0  0  0  0  0  0  0  0
   -3.2840    2.1799   -1.4131 H   0  0  0  0  0  0  0  0  0  0  0  0
   -3.1362    2.2645    1.2765 H   0  0  0  0  0  0  0  0  0  0  0  0
   -3.7718    0.8885    2.1672 H   0  0  0  0  0  0  0  0  0  0  0  0
   -6.2095    1.3177   -1.2122 H   0  0  0  0  0  0  0  0  0  0  0  0
   -5.5748    2.6987   -2.1036 H   0  0  0  0  0  0  0  0  0  0  0  0
   -5.3395    2.8335    2.1797 H   0  0  0  0  0  0  0  0  0  0  0  0
   -6.0631    1.4014    1.4513 H   0  0  0  0  0  0  0  0  0  0  0  0
   -4.8845    3.8050   -0.0261 H   0  0  0  0  0  0  0  0  0  0  0  0
   -6.5882    3.3678    0.0812 H   0  0  0  0  0  0  0  0  0  0  0  0
   -3.1304   -4.4610    0.1380 H   0  0  0  0  0  0  0  0  0  0  0  0
    1.3288    0.3221    1.9018 H   0  0  0  0  0  0  0  0  0  0  0  0
    1.1005    0.1882   -2.4033 H   0  0  0  0  0  0  0  0  0  0  0  0
    1.7632   -2.3335   -0.1948 H   0  0  0  0  0  0  0  0  0  0  0  0
    1.4234   -4.0474   -0.1225 H   0  0  0  0  0  0  0  0  0  0  0  0
    3.4329    0.9336   -2.5526 H   0  0  0  0  0  0  0  0  0  0  0  0
    5.6184   -0.4682   -1.0453 H   0  0  0  0  0  0  0  0  0  0  0  0
    5.9236    0.8188   -2.2410 H   0  0  0  0  0  0  0  0  0  0  0  0
    5.0907    0.3792    3.4113 H   0  0  0  0  0  0  0  0  0  0  0  0
    5.2470   -0.3952    1.8194 H   0  0  0  0  0  0  0  0  0  0  0  0
    3.8423   -0.7647    2.8703 H   0  0  0  0  0  0  0  0  0  0  0  0
    7.6242    1.8159   -0.7066 H   0  0  0  0  0  0  0  0  0  0  0  0
    7.3074    0.5567    0.4797 H   0  0  0  0  0  0  0  0  0  0  0  0
    8.0287    0.1255   -1.0890 H   0  0  0  0  0  0  0  0  0  0  0  0
  1 22  1  0  0  0  0
  1 26  1  0  0  0  0
  2 24  1  0  0  0  0
  2 25  1  0  0  0  0
  3  4  1  0  0  0  0
  3  8  1  0  0  0  0
  3 14  1  0  0  0  0
  4 16  2  0  0  0  0
  5 14  2  0  0  0  0
  5 19  1  0  0  0  0
  6 18  1  0  0  0  0
  6 19  2  0  0  0  0
  7 18  1  0  0  0  0
  7 42  1  0  0  0  0
  7 43  1  0  0  0  0
  8  9  1  0  0  0  0
  8 10  1  0  0  0  0
  8 28  1  0  0  0  0
  9 11  1  0  0  0  0
  9 29  1  0  0  0  0
  9 30  1  0  0  0  0
 10 12  1  0  0  0  0
 10 31  1  0  0  0  0
 10 32  1  0  0  0  0
 11 13  1  0  0  0  0
 11 33  1  0  0  0  0
 11 34  1  0  0  0  0
 12 13  1  0  0  0  0
 12 35  1  0  0  0  0
 12 36  1  0  0  0  0
 13 37  1  0  0  0  0
 13 38  1  0  0  0  0
 14 15  1  0  0  0  0
 15 16  1  0  0  0  0
 15 18  2  0  0  0  0
 16 17  1  0  0  0  0
 17 20  2  0  0  0  0
 17 21  1  0  0  0  0
 19 39  1  0  0  0  0
 20 22  1  0  0  0  0
 20 40  1  0  0  0  0
 21 23  2  0  0  0  0
 21 41  1  0  0  0  0
 22 24  2  0  0  0  0
 23 24  1  0  0  0  0
 23 44  1  0  0  0  0
 25 27  1  0  0  0  0
 25 45  1  0  0  0  0
 25 46  1  0  0  0  0
 26 47  1  0  0  0  0
 26 48  1  0  0  0  0
 26 49  1  0  0  0  0
 27 50  1  0  0  0  0
 27 51  1  0  0  0  0
 27 52  1  0  0  0  0
M  END
> <PUBCHEM_COMPOUND_CID>
24905298

> <PUBCHEM_CONFORMER_RMSD>
0.8

> <PUBCHEM_CONFORMER_DIVERSEORDER>
1
49
5
50
45
47
18
35
22
8
36
48
40
38
43
29
13
30
23
44
17
39
16
42
19
9
20
37
31
41
6
25
7
4
33
21
28
15
24
32
11
10
12
34
14
46
3
26
27
2

> <PUBCHEM_MMFF94_PARTIAL_CHARGES>
26
1 -0.36
14 0.11
16 0.23
17 0.05
18 0.41
19 0.47
2 -0.36
20 -0.15
21 -0.15
22 0.08
23 -0.15
24 0.08
25 0.28
26 0.28
3 0.31
39 0.15
4 -0.71
40 0.15
41 0.15
42 0.4
43 0.4
44 0.15
5 -0.57
6 -0.62
7 -0.9
8 0.26

> <PUBCHEM_EFFECTIVE_ROTOR_COUNT>
6.2

> <PUBCHEM_PHARMACOPHORE_FEATURES>
11
1 1 acceptor
1 2 acceptor
1 4 acceptor
1 7 cation
1 7 donor
3 3 5 14 cation
3 5 6 19 cation
5 3 4 14 15 16 rings
6 17 20 21 22 23 24 rings
6 5 6 14 15 18 19 rings
6 8 9 10 11 12 13 rings

> <PUBCHEM_HEAVY_ATOM_COUNT>
27

> <PUBCHEM_ATOM_DEF_STEREO_COUNT>
0

> <PUBCHEM_ATOM_UDEF_STEREO_COUNT>
0

> <PUBCHEM_BOND_DEF_STEREO_COUNT>
0

> <PUBCHEM_BOND_UDEF_STEREO_COUNT>
0

> <PUBCHEM_ISOTOPIC_ATOM_COUNT>
0

> <PUBCHEM_COMPONENT_COUNT>
1

> <PUBCHEM_CACTVS_TAUTO_COUNT>
5

> <PUBCHEM_CONFORMER_ID>
017C065200000001

> <PUBCHEM_MMFF94_ENERGY>
76.1214

> <PUBCHEM_FEATURE_SELFOVERLAP>
56.105

> <PUBCHEM_SHAPE_FINGERPRINT>
10165383 225 18411145706088013081
10411042 1 17762062442740962487
105312 117 18409454678399300973
10835480 77 18201439225320166260
11545043 162 18129949004629318858
11582403 64 17416092097538335759
11796584 16 18342183276364086094
12107183 9 18261945246689664370
12236239 1 17749108907153538596
12293681 160 17917151594089885289
12390115 104 18413112758101327289
12403259 415 18060140998238423472
12422481 6 17750783368303278365
12788726 201 18045498874917051907
13140716 1 18265054639872282867
13911987 19 18335130961238704285
14294032 229 18409167715171862653
14856354 85 15936708032987429944
15042514 8 17976549630453014315
15230672 131 18335989680147064078
15439362 3 18194405489610428831
15537594 2 17385721409495615644
15842332 3 17677613244802775094
15927050 60 18412267211885103247
16752209 62 18265891547871038359
20554085 129 18201425939899078128
20681677 155 18261395585475728824
21033648 29 17560515209674874520
21065201 7 18269555112620653666
21279426 13 18200328645271304430
21756936 100 18060430088572224481
22149856 69 18192170218134308265
23557571 272 18129673017950938596
23559900 14 18272939336660072996
23569917 315 18337944611478650463
23598288 3 17897744273045249831
283562 15 18266175231220737283
4144715 1 18195530526925469560
5265222 85 18053962916212921422
5385378 56 18265905657254856569
57527295 17 17131553847310431751
59755656 520 18341900675514768701
6009941 240 18343026610393344452
7226269 152 18202287987286234520
7808743 9 18336552702027999029
9862522 239 17968365785033785877
9981440 41 18410285879668603691

> <PUBCHEM_SHAPE_MULTIPOLES>
519
13.98
3.66
1.55
9.19
4.57
-0.65
-13.47
0.46
-5.17
0.03
1.47
-0.78
-0.33

> <PUBCHEM_SHAPE_SELFOVERLAP>
1119.578

> <PUBCHEM_SHAPE_VOLUME>
284

> <PUBCHEM_COORDINATE_TYPE>
2
5
10

$$$$
