49830807
  -OEChem-10052115183D

 45 47  0     0  0  0  0  0  0999 V2000
    4.5908    1.2505   -0.1890 S   0  0  0  0  0  0  0  0  0  0  0  0
    0.0946    4.4979   -0.8820 O   0  0  0  0  0  0  0  0  0  0  0  0
    0.0791   -3.0527   -0.5628 O   0  0  0  0  0  0  0  0  0  0  0  0
    5.9899    1.1117   -0.5699 O   0  0  0  0  0  0  0  0  0  0  0  0
    3.6944    2.0518   -1.0102 O   0  0  0  0  0  0  0  0  0  0  0  0
   -2.3096    0.4498    0.4291 N   0  0  0  0  0  0  0  0  0  0  0  0
   -2.5397   -1.6403   -0.2909 N   0  0  0  0  0  0  0  0  0  0  0  0
   -0.3182   -0.8416    0.1488 N   0  0  0  0  0  0  0  0  0  0  0  0
   -1.6727    1.6659    0.8842 C   0  0  0  0  0  0  0  0  0  0  0  0
   -3.6584    0.2663    0.2629 C   0  0  0  0  0  0  0  0  0  0  0  0
   -1.6843   -0.7164    0.0858 C   0  0  0  0  0  0  0  0  0  0  0  0
   -1.0542    2.4962   -0.2425 C   0  0  0  0  0  0  0  0  0  0  0  0
   -3.7763   -1.0458   -0.1870 C   0  0  0  0  0  0  0  0  0  0  0  0
   -4.7520    1.1098    0.4616 C   0  0  0  0  0  0  0  0  0  0  0  0
   -0.4690    3.8206    0.2339 C   0  0  0  0  0  0  0  0  0  0  0  0
   -5.0535   -1.5641   -0.4600 C   0  0  0  0  0  0  0  0  0  0  0  0
    0.4827   -1.9645   -0.1665 C   0  0  0  0  0  0  0  0  0  0  0  0
    1.9508   -1.7814   -0.0220 C   0  0  0  0  0  0  0  0  0  0  0  0
   -6.0157    0.5776    0.1848 C   0  0  0  0  0  0  0  0  0  0  0  0
   -6.1660   -0.7352   -0.2679 C   0  0  0  0  0  0  0  0  0  0  0  0
    3.8894   -0.3395   -0.0219 C   0  0  0  0  0  0  0  0  0  0  0  0
    2.5118   -0.5115   -0.1571 C   0  0  0  0  0  0  0  0  0  0  0  0
    2.7675   -2.8796    0.2482 C   0  0  0  0  0  0  0  0  0  0  0  0
    4.7062   -1.4376    0.2483 C   0  0  0  0  0  0  0  0  0  0  0  0
    4.1451   -2.7077    0.3831 C   0  0  0  0  0  0  0  0  0  0  0  0
    4.5673    1.9198    1.4588 C   0  0  0  0  0  0  0  0  0  0  0  0
   -0.9168    1.3938    1.6300 H   0  0  0  0  0  0  0  0  0  0  0  0
   -2.4182    2.2629    1.4205 H   0  0  0  0  0  0  0  0  0  0  0  0
   -0.2730    1.9232   -0.7574 H   0  0  0  0  0  0  0  0  0  0  0  0
   -1.8102    2.6984   -1.0128 H   0  0  0  0  0  0  0  0  0  0  0  0
   -4.6435    2.1307    0.8090 H   0  0  0  0  0  0  0  0  0  0  0  0
    0.1623   -0.0219    0.5034 H   0  0  0  0  0  0  0  0  0  0  0  0
   -1.2453    4.4544    0.6737 H   0  0  0  0  0  0  0  0  0  0  0  0
    0.3192    3.6522    0.9745 H   0  0  0  0  0  0  0  0  0  0  0  0
   -5.1808   -2.5827   -0.8121 H   0  0  0  0  0  0  0  0  0  0  0  0
   -6.8972    1.1987    0.3241 H   0  0  0  0  0  0  0  0  0  0  0  0
   -7.1612   -1.1205   -0.4747 H   0  0  0  0  0  0  0  0  0  0  0  0
    1.8981    0.3512   -0.3960 H   0  0  0  0  0  0  0  0  0  0  0  0
    2.3495   -3.8763    0.3624 H   0  0  0  0  0  0  0  0  0  0  0  0
    5.7805   -1.3254    0.3644 H   0  0  0  0  0  0  0  0  0  0  0  0
    4.7807   -3.5622    0.5962 H   0  0  0  0  0  0  0  0  0  0  0  0
    4.9933    2.9247    1.4225 H   0  0  0  0  0  0  0  0  0  0  0  0
    3.5340    1.9663    1.8080 H   0  0  0  0  0  0  0  0  0  0  0  0
    5.1694    1.2832    2.1099 H   0  0  0  0  0  0  0  0  0  0  0  0
    0.4616    5.3354   -0.5510 H   0  0  0  0  0  0  0  0  0  0  0  0
  1  4  2  0  0  0  0
  1  5  2  0  0  0  0
  1 21  1  0  0  0  0
  1 26  1  0  0  0  0
  2 15  1  0  0  0  0
  2 45  1  0  0  0  0
  3 17  2  0  0  0  0
  6  9  1  0  0  0  0
  6 10  1  0  0  0  0
  6 11  1  0  0  0  0
  7 11  2  0  0  0  0
  7 13  1  0  0  0  0
  8 11  1  0  0  0  0
  8 17  1  0  0  0  0
  8 32  1  0  0  0  0
  9 12  1  0  0  0  0
  9 27  1  0  0  0  0
  9 28  1  0  0  0  0
 10 13  1  0  0  0  0
 10 14  2  0  0  0  0
 12 15  1  0  0  0  0
 12 29  1  0  0  0  0
 12 30  1  0  0  0  0
 13 16  2  0  0  0  0
 14 19  1  0  0  0  0
 14 31  1  0  0  0  0
 15 33  1  0  0  0  0
 15 34  1  0  0  0  0
 16 20  1  0  0  0  0
 16 35  1  0  0  0  0
 17 18  1  0  0  0  0
 18 22  2  0  0  0  0
 18 23  1  0  0  0  0
 19 20  2  0  0  0  0
 19 36  1  0  0  0  0
 20 37  1  0  0  0  0
 21 22  1  0  0  0  0
 21 24  2  0  0  0  0
 22 38  1  0  0  0  0
 23 25  2  0  0  0  0
 23 39  1  0  0  0  0
 24 25  1  0  0  0  0
 24 40  1  0  0  0  0
 25 41  1  0  0  0  0
 26 42  1  0  0  0  0
 26 43  1  0  0  0  0
 26 44  1  0  0  0  0
M  END
> <PUBCHEM_COMPOUND_CID>
49830807

> <PUBCHEM_CONFORMER_RMSD>
0.8

> <PUBCHEM_CONFORMER_DIVERSEORDER>
1
64
20
68
71
44
75
67
39
31
41
58
37
35
33
45
65
57
55
14
66
23
7
46
15
50
54
73
53
49
52
6
70
74
38
12
27
34
72
43
63
4
47
9
40
18
62
69
48
24
29
3
21
25
61
59
28
42
32
19
11
56
2
36
13
8
60
16
10
26
22
51
30
17
5

> <PUBCHEM_MMFF94_PARTIAL_CHARGES>
35
1 1.2
10 -0.15
11 0.25
13 0.23
14 -0.15
15 0.28
16 -0.15
17 0.54
18 0.09
19 -0.15
2 -0.68
20 -0.15
21 -0.01
22 -0.15
23 -0.15
24 -0.15
25 -0.15
26 0.11
3 -0.57
31 0.15
32 0.37
35 0.15
36 0.15
37 0.15
38 0.15
39 0.15
4 -0.65
40 0.15
41 0.15
45 0.4
5 -0.65
6 0.05
7 -0.57
8 -0.49
9 0.26

> <PUBCHEM_EFFECTIVE_ROTOR_COUNT>
7

> <PUBCHEM_PHARMACOPHORE_FEATURES>
9
1 2 acceptor
1 2 donor
1 3 acceptor
1 4 acceptor
1 5 acceptor
1 8 donor
5 6 7 10 11 13 rings
6 10 13 14 16 19 20 rings
6 18 21 22 23 24 25 rings

> <PUBCHEM_HEAVY_ATOM_COUNT>
26

> <PUBCHEM_ATOM_DEF_STEREO_COUNT>
0

> <PUBCHEM_ATOM_UDEF_STEREO_COUNT>
0

> <PUBCHEM_BOND_DEF_STEREO_COUNT>
0

> <PUBCHEM_BOND_UDEF_STEREO_COUNT>
0

> <PUBCHEM_ISOTOPIC_ATOM_COUNT>
0

> <PUBCHEM_COMPONENT_COUNT>
1

> <PUBCHEM_CACTVS_TAUTO_COUNT>
3

> <PUBCHEM_CONFORMER_ID>
02F85B9700000001

> <PUBCHEM_MMFF94_ENERGY>
51.9942

> <PUBCHEM_FEATURE_SELFOVERLAP>
45.797

> <PUBCHEM_SHAPE_FINGERPRINT>
10595046 47 18412824681655030627
10670039 82 18337125484068526436
10906281 52 18201453450056450987
1100329 8 18122908895478673478
11045515 52 18260828155734527781
12107183 9 17474389075964157170
12107698 1 18189049803190122378
12166972 35 17894917308264455942
12236239 1 18411981343393751199
12403259 226 18268707204345184274
12403260 363 18265331707890541074
12838862 33 18339064004361891828
13004483 165 18337945689076591437
13402501 40 18342736360171129432
13533116 47 18336546032334068010
1361 2 18337953527371412128
14394314 77 18412833486217064689
14528608 73 18343864432909332975
14784336 7 17915739993306906057
14790565 3 18343868792791333267
14840074 17 18131632300838491149
15196674 1 18412544293083142555
15927050 60 17621602043735635565
15961568 22 18410862044798557636
17492 89 18194962937764114778
18681886 176 18201714004126585490
19611394 137 17898585420984453154
20511986 3 18338785767721489591
20715895 44 17976816485387013997
21033648 29 16732976501502097567
21792934 111 18339351964854842273
22113638 7 18266739275947350492
221357 26 18271531905905054022
23402539 116 18341887442900475415
23559900 14 18057321678326277991
245318 6 17824280403767408940
24771750 20 17754747348883885997
3004659 81 18412263900638800122
34797466 226 16702027521111803037
350125 39 18339923710832570618
3680242 22 18409739434599312609
4073 2 18041285447237686371
46194498 28 17916596323891482278
474 4 18186804729384867010
5104073 3 18410295787657366043
513532 50 18201169810315717958
5283173 99 17970339331165122469
59755656 215 18409735062823531406
67856867 119 18411695461453592850

> <PUBCHEM_SHAPE_MULTIPOLES>
500.5
13.74
4.22
0.84
4.79
3.2
-0.08
-1.08
-0.2
-2.59
0.48
-0.43
0.37
-0.69

> <PUBCHEM_SHAPE_SELFOVERLAP>
1062.534

> <PUBCHEM_SHAPE_VOLUME>
280.8

> <PUBCHEM_COORDINATE_TYPE>
2
5
10

$$$$
