49830896
  -OEChem-10052115183D

 22 24  0     0  0  0  0  0  0999 V2000
    3.8385    2.4136   -0.0002 Br  0  0  0  0  0  0  0  0  0  0  0  0
    0.7497   -3.2059    0.0003 Cl  0  0  0  0  0  0  0  0  0  0  0  0
    0.3712    2.0602    0.0001 S   0  0  0  0  0  0  0  0  0  0  0  0
   -3.2320    0.4628    0.0002 O   0  0  0  0  0  0  0  0  0  0  0  0
   -2.6907    2.6702    0.0002 O   0  0  0  0  0  0  0  0  0  0  0  0
   -1.5802   -1.2927   -0.0007 N   0  0  0  0  0  0  0  0  0  0  0  0
    0.7865   -0.5032   -0.0002 C   0  0  0  0  0  0  0  0  0  0  0  0
   -0.6213   -0.2778   -0.0005 C   0  0  0  0  0  0  0  0  0  0  0  0
    1.4694    0.7211    0.0001 C   0  0  0  0  0  0  0  0  0  0  0  0
   -0.9742    1.0373   -0.0003 C   0  0  0  0  0  0  0  0  0  0  0  0
    1.5506   -1.6951   -0.0002 C   0  0  0  0  0  0  0  0  0  0  0  0
    2.8767    0.7788    0.0002 C   0  0  0  0  0  0  0  0  0  0  0  0
   -2.3279    1.4993    0.0001 C   0  0  0  0  0  0  0  0  0  0  0  0
    2.9470   -1.6393    0.0002 C   0  0  0  0  0  0  0  0  0  0  0  0
   -2.7965   -0.8397   -0.0002 C   0  0  0  0  0  0  0  0  0  0  0  0
    3.6005   -0.4149    0.0003 C   0  0  0  0  0  0  0  0  0  0  0  0
   -3.9671   -1.7747    0.0006 C   0  0  0  0  0  0  0  0  0  0  0  0
    3.5356   -2.5535    0.0004 H   0  0  0  0  0  0  0  0  0  0  0  0
    4.6882   -0.4037    0.0004 H   0  0  0  0  0  0  0  0  0  0  0  0
   -4.5721   -1.6031    0.8950 H   0  0  0  0  0  0  0  0  0  0  0  0
   -3.6243   -2.8132   -0.0002 H   0  0  0  0  0  0  0  0  0  0  0  0
   -4.5738   -1.6024   -0.8926 H   0  0  0  0  0  0  0  0  0  0  0  0
  1 12  1  0  0  0  0
  2 11  1  0  0  0  0
  3  9  1  0  0  0  0
  3 10  1  0  0  0  0
  4 13  1  0  0  0  0
  4 15  1  0  0  0  0
  5 13  2  0  0  0  0
  6  8  1  0  0  0  0
  6 15  2  0  0  0  0
  7  8  1  0  0  0  0
  7  9  1  0  0  0  0
  7 11  2  0  0  0  0
  8 10  2  0  0  0  0
  9 12  2  0  0  0  0
 10 13  1  0  0  0  0
 11 14  1  0  0  0  0
 12 16  1  0  0  0  0
 14 16  2  0  0  0  0
 14 18  1  0  0  0  0
 15 17  1  0  0  0  0
 16 19  1  0  0  0  0
 17 20  1  0  0  0  0
 17 21  1  0  0  0  0
 17 22  1  0  0  0  0
M  END
> <PUBCHEM_COMPOUND_CID>
49830896

> <PUBCHEM_CONFORMER_RMSD>
0.4

> <PUBCHEM_CONFORMER_DIVERSEORDER>
1

> <PUBCHEM_MMFF94_PARTIAL_CHARGES>
18
1 -0.11
10 -0.05
11 0.18
12 0.11
13 0.81
14 -0.15
15 0.54
16 -0.15
17 0.06
18 0.15
19 0.15
2 -0.18
3 -0.08
4 -0.3
5 -0.57
6 -0.57
8 0.12
9 0.04

> <PUBCHEM_EFFECTIVE_ROTOR_COUNT>
0

> <PUBCHEM_PHARMACOPHORE_FEATURES>
5
1 1 hydrophobe
1 5 acceptor
5 3 7 8 9 10 rings
6 4 6 8 10 13 15 rings
6 7 9 11 12 14 16 rings

> <PUBCHEM_HEAVY_ATOM_COUNT>
17

> <PUBCHEM_ATOM_DEF_STEREO_COUNT>
0

> <PUBCHEM_ATOM_UDEF_STEREO_COUNT>
0

> <PUBCHEM_BOND_DEF_STEREO_COUNT>
0

> <PUBCHEM_BOND_UDEF_STEREO_COUNT>
0

> <PUBCHEM_ISOTOPIC_ATOM_COUNT>
0

> <PUBCHEM_COMPONENT_COUNT>
1

> <PUBCHEM_CACTVS_TAUTO_COUNT>
1

> <PUBCHEM_CONFORMER_ID>
02F85BF000000001

> <PUBCHEM_MMFF94_ENERGY>
43.6295

> <PUBCHEM_FEATURE_SELFOVERLAP>
25.516

> <PUBCHEM_SHAPE_FINGERPRINT>
10411042 1 15456494805692002765
10608611 8 18410290276945123636
10616163 171 18411702054175384687
10967382 1 18194401323381212614
11132069 177 18337947892305150176
11806522 49 18265893734256954671
12382932 28 18268709407241452946
13140716 1 18339074891855580472
13380535 21 18266747882771290717
13897977 150 18338231536066330340
14178342 30 18267008467275039458
14223421 5 18411139121253775645
14787075 74 17771059685749184968
14790565 3 18050018980119720593
15196674 1 18410575110438170437
15375462 6 18411136978059898244
15442244 35 18122624955306915778
15536298 74 18342459253265491484
16945 1 18266459986855428261
18186145 218 18201167585211427832
19591789 44 18411420631086311254
200 152 18201991162597022199
20510252 161 18343304811518623625
20645477 70 18342734109486823759
21267235 1 18410865342922159190
21501502 16 18409730625410229352
221490 88 18410019818833814386
2334 1 18410855486177650848
23366157 5 18113621153925128810
23402539 116 18125433356964672534
23463225 33 18408602531070406570
23558518 356 18259709990789394113
23559900 14 18197209261905298194
2748010 2 18410012135020900564
2871803 45 18410288133941039967
3312278 4 18341051791970811512
335352 9 17978228262263295102
350125 39 18410577292730183584
43471831 8 18408037433575633490
474229 33 18266457805207370162
5104073 3 18410293614018344233
58051976 378 18339923843702334876
7364860 26 18268710507143542134
74978 22 18195529190330322785
7832392 63 18195526982791037696
8809292 202 18262243200844219610
9709674 26 18268712718835740255

> <PUBCHEM_SHAPE_MULTIPOLES>
344.79
6.55
3.26
0.62
0.8
0.53
0
-1.04
0
-0.41
0
-0.08
-0.01
0

> <PUBCHEM_SHAPE_SELFOVERLAP>
734.418

> <PUBCHEM_SHAPE_VOLUME>
198.2

> <PUBCHEM_COORDINATE_TYPE>
2
5
10

$$$$
