49831028
  -OEChem-10052120443D

 13 14  0     0  0  0  0  0  0999 V2000
   -3.6128   -0.3682    0.0002 Cl  0  0  0  0  0  0  0  0  0  0  0  0
   -0.8551   -1.6417   -0.0002 S   0  0  0  0  0  0  0  0  0  0  0  0
    2.0441    0.8311    0.0001 N   0  0  0  0  0  0  0  0  0  0  0  0
    1.0246    1.7644    0.0000 N   0  0  0  0  0  0  0  0  0  0  0  0
   -1.3483    1.1087    0.0000 N   0  0  0  0  0  0  0  0  0  0  0  0
    2.6323   -1.5147    0.0002 N   0  0  0  0  0  0  0  0  0  0  0  0
    0.3270   -0.4400   -0.0002 C   0  0  0  0  0  0  0  0  0  0  0  0
    1.6787   -0.5170    0.0000 C   0  0  0  0  0  0  0  0  0  0  0  0
    0.0131    0.9041   -0.0002 C   0  0  0  0  0  0  0  0  0  0  0  0
   -1.9037   -0.1266    0.0000 C   0  0  0  0  0  0  0  0  0  0  0  0
    3.0003    1.1636    0.0003 H   0  0  0  0  0  0  0  0  0  0  0  0
    2.4044   -2.5052    0.0002 H   0  0  0  0  0  0  0  0  0  0  0  0
    3.6335   -1.3393    0.0004 H   0  0  0  0  0  0  0  0  0  0  0  0
  1 10  1  0  0  0  0
  2  7  1  0  0  0  0
  2 10  1  0  0  0  0
  3  4  1  0  0  0  0
  3  8  1  0  0  0  0
  3 11  1  0  0  0  0
  4  9  2  0  0  0  0
  5  9  1  0  0  0  0
  5 10  2  0  0  0  0
  6  8  1  0  0  0  0
  6 12  1  0  0  0  0
  6 13  1  0  0  0  0
  7  8  2  0  0  0  0
  7  9  1  0  0  0  0
M  END
> <PUBCHEM_COMPOUND_CID>
49831028

> <PUBCHEM_CONFORMER_RMSD>
0.4

> <PUBCHEM_CONFORMER_DIVERSEORDER>
1

> <PUBCHEM_MMFF94_PARTIAL_CHARGES>
13
1 -0.12
10 0.5
11 0.27
12 0.4
13 0.4
2 -0.11
3 0.21
4 -0.71
5 -0.57
6 -0.9
7 0.08
8 0.03
9 0.5

> <PUBCHEM_EFFECTIVE_ROTOR_COUNT>
0

> <PUBCHEM_PHARMACOPHORE_FEATURES>
7
1 3 donor
1 5 acceptor
1 6 cation
1 6 donor
3 4 5 9 cation
5 2 5 7 9 10 rings
5 3 4 7 8 9 rings

> <PUBCHEM_HEAVY_ATOM_COUNT>
10

> <PUBCHEM_ATOM_DEF_STEREO_COUNT>
0

> <PUBCHEM_ATOM_UDEF_STEREO_COUNT>
0

> <PUBCHEM_BOND_DEF_STEREO_COUNT>
0

> <PUBCHEM_BOND_UDEF_STEREO_COUNT>
0

> <PUBCHEM_ISOTOPIC_ATOM_COUNT>
0

> <PUBCHEM_COMPONENT_COUNT>
1

> <PUBCHEM_CACTVS_TAUTO_COUNT>
5

> <PUBCHEM_CONFORMER_ID>
02F85C7400000001

> <PUBCHEM_MMFF94_ENERGY>
36.8508

> <PUBCHEM_FEATURE_SELFOVERLAP>
35.876

> <PUBCHEM_SHAPE_FINGERPRINT>
12032990 46 18339085882371175855
12423570 1 13576852159198651118
13380535 76 18265608977851305370
14325111 11 18410575119613602497
16945 1 18338517559371150885
20645477 70 18411132550735100015
20871998 22 18199475350679876270
21040471 1 18194683889242764641
23402655 69 18340757218230026309
23552423 10 18190462846923915510
241688 4 18265896847955218208
2748010 2 18338228250395275972
29004967 10 18334860549353189048
5084963 1 18273213067182975403

> <PUBCHEM_SHAPE_MULTIPOLES>
191.59
4.04
1.68
0.6
2.33
0.06
0
0.76
0
-0.62
0
0.07
0.04
0

> <PUBCHEM_SHAPE_SELFOVERLAP>
396.176

> <PUBCHEM_SHAPE_VOLUME>
111.1

> <PUBCHEM_COORDINATE_TYPE>
2
5
10

$$$$
