16095342
  -OEChem-10062121563D

 72 77  0     0  0  0  0  0  0999 V2000
  -11.8407   -3.7982    0.6251 O   0  0  0  0  0  0  0  0  0  0  0  0
   -7.4125    0.7721   -0.4986 O   0  0  0  0  0  0  0  0  0  0  0  0
    3.1303    2.6875    1.1217 O   0  0  0  0  0  0  0  0  0  0  0  0
    9.6257   -3.7523    0.1683 O   0  0  0  0  0  0  0  0  0  0  0  0
   -1.3080    1.1055    1.0712 O   0  0  0  0  0  0  0  0  0  0  0  0
   -9.6562   -2.1236   -0.0996 N   0  0  0  0  0  0  0  0  0  0  0  0
    6.5106   -0.8201    0.8840 N   0  0  0  0  0  0  0  0  0  0  0  0
    6.0122   -1.3040   -1.2277 N   0  0  0  0  0  0  0  0  0  0  0  0
    3.5255    1.4054   -0.7824 N   0  0  0  0  0  0  0  0  0  0  0  0
    8.9256   -2.5872    0.4873 N   0  0  0  0  0  0  0  0  0  0  0  0
   -1.4530    2.9669   -0.3499 N   0  0  0  0  0  0  0  0  0  0  0  0
    8.9260   -4.5233   -0.7622 N   0  0  0  0  0  0  0  0  0  0  0  0
    6.8129   -4.1746   -1.8458 N   0  0  0  0  0  0  0  0  0  0  0  0
  -10.5530   -1.7789    1.0123 C   0  0  0  0  0  0  0  0  0  0  0  0
  -10.3788   -2.9203   -1.1009 C   0  0  0  0  0  0  0  0  0  0  0  0
   -9.0921   -0.9184   -0.7039 C   0  0  0  0  0  0  0  0  0  0  0  0
  -11.1380   -3.0512    1.6189 C   0  0  0  0  0  0  0  0  0  0  0  0
  -10.9689   -4.1653   -0.4447 C   0  0  0  0  0  0  0  0  0  0  0  0
   -7.9402   -0.3866    0.1336 C   0  0  0  0  0  0  0  0  0  0  0  0
    5.4980    0.0380    0.5402 C   0  0  0  0  0  0  0  0  0  0  0  0
    7.1678   -0.8826    2.1703 C   0  0  0  0  0  0  0  0  0  0  0  0
    6.7823   -1.6013   -0.2049 C   0  0  0  0  0  0  0  0  0  0  0  0
    5.2052   -0.2840   -0.7811 C   0  0  0  0  0  0  0  0  0  0  0  0
   -6.0828    1.0350   -0.2964 C   0  0  0  0  0  0  0  0  0  0  0  0
    4.8339    1.0339    1.2430 C   0  0  0  0  0  0  0  0  0  0  0  0
    7.8155   -2.6570   -0.2453 C   0  0  0  0  0  0  0  0  0  0  0  0
    8.3764    0.0347    2.2436 C   0  0  0  0  0  0  0  0  0  0  0  0
    4.1971    0.4248   -1.4355 C   0  0  0  0  0  0  0  0  0  0  0  0
    3.8512    1.6785    0.5053 C   0  0  0  0  0  0  0  0  0  0  0  0
   -5.3453    1.6957   -1.2788 C   0  0  0  0  0  0  0  0  0  0  0  0
   -5.4674    0.6439    0.8928 C   0  0  0  0  0  0  0  0  0  0  0  0
   -3.3771    1.5740    0.1168 C   0  0  0  0  0  0  0  0  0  0  0  0
    7.8158   -3.8274   -1.0008 C   0  0  0  0  0  0  0  0  0  0  0  0
   -3.9925    1.9652   -1.0722 C   0  0  0  0  0  0  0  0  0  0  0  0
   -4.1147    0.9134    1.0994 C   0  0  0  0  0  0  0  0  0  0  0  0
    2.1666    3.3130    0.3920 C   0  0  0  0  0  0  0  0  0  0  0  0
   -1.9666    1.8555    0.3328 C   0  0  0  0  0  0  0  0  0  0  0  0
   -0.1267    3.4645   -0.3527 C   0  0  0  0  0  0  0  0  0  0  0  0
    0.8607    2.8231    0.3953 C   0  0  0  0  0  0  0  0  0  0  0  0
    2.4853    4.4443   -0.3592 C   0  0  0  0  0  0  0  0  0  0  0  0
    0.1919    4.5957   -1.1041 C   0  0  0  0  0  0  0  0  0  0  0  0
    1.4978    5.0856   -1.1072 C   0  0  0  0  0  0  0  0  0  0  0  0
  -11.3715   -1.1388    0.6576 H   0  0  0  0  0  0  0  0  0  0  0  0
  -10.0207   -1.2404    1.8026 H   0  0  0  0  0  0  0  0  0  0  0  0
  -11.1851   -2.3250   -1.5490 H   0  0  0  0  0  0  0  0  0  0  0  0
   -9.7005   -3.2336   -1.9028 H   0  0  0  0  0  0  0  0  0  0  0  0
   -8.6850   -1.1448   -1.6991 H   0  0  0  0  0  0  0  0  0  0  0  0
   -9.8487   -0.1403   -0.8711 H   0  0  0  0  0  0  0  0  0  0  0  0
  -10.3600   -3.6805    2.0682 H   0  0  0  0  0  0  0  0  0  0  0  0
  -11.8521   -2.7940    2.4077 H   0  0  0  0  0  0  0  0  0  0  0  0
  -11.5582   -4.7280   -1.1758 H   0  0  0  0  0  0  0  0  0  0  0  0
  -10.1855   -4.8331   -0.0658 H   0  0  0  0  0  0  0  0  0  0  0  0
   -7.1854   -1.1808    0.2147 H   0  0  0  0  0  0  0  0  0  0  0  0
   -8.2752   -0.1029    1.1367 H   0  0  0  0  0  0  0  0  0  0  0  0
    7.4288   -1.9206    2.3947 H   0  0  0  0  0  0  0  0  0  0  0  0
    6.4380   -0.5922    2.9348 H   0  0  0  0  0  0  0  0  0  0  0  0
    5.0604    1.2881    2.2699 H   0  0  0  0  0  0  0  0  0  0  0  0
    8.0741    1.0828    2.1410 H   0  0  0  0  0  0  0  0  0  0  0  0
    8.8755   -0.0760    3.2114 H   0  0  0  0  0  0  0  0  0  0  0  0
    9.1078   -0.1680    1.4568 H   0  0  0  0  0  0  0  0  0  0  0  0
    3.9063    0.2386   -2.4616 H   0  0  0  0  0  0  0  0  0  0  0  0
   -5.8182    1.9951   -2.2102 H   0  0  0  0  0  0  0  0  0  0  0  0
   -6.0114    0.1538    1.6948 H   0  0  0  0  0  0  0  0  0  0  0  0
   -3.4519    2.4470   -1.8814 H   0  0  0  0  0  0  0  0  0  0  0  0
   -3.6567    0.6103    2.0375 H   0  0  0  0  0  0  0  0  0  0  0  0
    0.6831    1.9450    1.0003 H   0  0  0  0  0  0  0  0  0  0  0  0
   -2.0953    3.5350   -0.8953 H   0  0  0  0  0  0  0  0  0  0  0  0
    3.5003    4.8324   -0.3658 H   0  0  0  0  0  0  0  0  0  0  0  0
   -0.5674    5.1051   -1.6918 H   0  0  0  0  0  0  0  0  0  0  0  0
    6.8403   -5.0351   -2.3839 H   0  0  0  0  0  0  0  0  0  0  0  0
    5.9852   -3.6040   -1.9895 H   0  0  0  0  0  0  0  0  0  0  0  0
    1.7462    5.9665   -1.6921 H   0  0  0  0  0  0  0  0  0  0  0  0
  1 17  1  0  0  0  0
  1 18  1  0  0  0  0
  2 19  1  0  0  0  0
  2 24  1  0  0  0  0
  3 29  1  0  0  0  0
  3 36  1  0  0  0  0
  4 10  1  0  0  0  0
  4 12  1  0  0  0  0
  5 37  2  0  0  0  0
  6 14  1  0  0  0  0
  6 15  1  0  0  0  0
  6 16  1  0  0  0  0
  7 20  1  0  0  0  0
  7 21  1  0  0  0  0
  7 22  1  0  0  0  0
  8 22  2  0  0  0  0
  8 23  1  0  0  0  0
  9 28  1  0  0  0  0
  9 29  2  0  0  0  0
 10 26  2  0  0  0  0
 11 37  1  0  0  0  0
 11 38  1  0  0  0  0
 11 67  1  0  0  0  0
 12 33  2  0  0  0  0
 13 33  1  0  0  0  0
 13 70  1  0  0  0  0
 13 71  1  0  0  0  0
 14 17  1  0  0  0  0
 14 43  1  0  0  0  0
 14 44  1  0  0  0  0
 15 18  1  0  0  0  0
 15 45  1  0  0  0  0
 15 46  1  0  0  0  0
 16 19  1  0  0  0  0
 16 47  1  0  0  0  0
 16 48  1  0  0  0  0
 17 49  1  0  0  0  0
 17 50  1  0  0  0  0
 18 51  1  0  0  0  0
 18 52  1  0  0  0  0
 19 53  1  0  0  0  0
 19 54  1  0  0  0  0
 20 23  1  0  0  0  0
 20 25  2  0  0  0  0
 21 27  1  0  0  0  0
 21 55  1  0  0  0  0
 21 56  1  0  0  0  0
 22 26  1  0  0  0  0
 23 28  2  0  0  0  0
 24 30  2  0  0  0  0
 24 31  1  0  0  0  0
 25 29  1  0  0  0  0
 25 57  1  0  0  0  0
 26 33  1  0  0  0  0
 27 58  1  0  0  0  0
 27 59  1  0  0  0  0
 27 60  1  0  0  0  0
 28 61  1  0  0  0  0
 30 34  1  0  0  0  0
 30 62  1  0  0  0  0
 31 35  2  0  0  0  0
 31 63  1  0  0  0  0
 32 34  2  0  0  0  0
 32 35  1  0  0  0  0
 32 37  1  0  0  0  0
 34 64  1  0  0  0  0
 35 65  1  0  0  0  0
 36 39  1  0  0  0  0
 36 40  2  0  0  0  0
 38 39  2  0  0  0  0
 38 41  1  0  0  0  0
 39 66  1  0  0  0  0
 40 42  1  0  0  0  0
 40 68  1  0  0  0  0
 41 42  2  0  0  0  0
 41 69  1  0  0  0  0
 42 72  1  0  0  0  0
M  END
> <PUBCHEM_COMPOUND_CID>
16095342

> <PUBCHEM_CONFORMER_RMSD>
1.2

> <PUBCHEM_CONFORMER_DIVERSEORDER>
1
49
184
69
167
147
183
58
166
192
86
133
178
190
81
5
75
119
60
95
156
189
45
43
199
53
161
24
73
78
188
21
118
56
149
101
37
165
79
11
179
6
99
128
89
139
174
98
93
42
154
92
85
176
152
107
145
106
90
59
76
186
74
88
173
201
142
19
102
55
204
104
144
125
134
50
181
97
105
112
61
34
169
71
164
170
157
103
162
202
100
108
41
120
132
77
63
15
180
80
126
23
84
191
44
153
72
205
10
146
116
197
182
111
196
194
150
29
17
172
124
4
7
70
48
26
38
148
13
123
206
129
159
137
187
52
168
12
117
127
163
198
115
177
94
114
175
160
47
91
110
122
18
64
31
67
151
200
35
141
39
27
185
36
28
2
32
158
195
33
51
193
9
203
62
40
14
87
155
121
96
3
68
131
113
136
54
22
20
30
57
16
130
143
65
66
83
25
135
138
171
82
109
140
46
8

> <PUBCHEM_MMFF94_PARTIAL_CHARGES>
54
1 -0.56
10 -0.41
11 -0.55
12 -0.41
13 -0.88
14 0.27
15 0.27
16 0.27
17 0.28
18 0.28
19 0.28
2 -0.36
20 -0.15
21 0.26
22 0.19
23 0.23
24 0.08
25 -0.15
26 0.29
28 0.16
29 0.39
3 -0.17
30 -0.15
31 -0.15
32 0.09
33 0.37
34 -0.15
35 -0.15
36 0.08
37 0.54
38 0.12
39 -0.15
4 0.24
40 -0.15
41 -0.15
42 -0.15
5 -0.57
57 0.15
6 -0.81
61 0.15
62 0.15
63 0.15
64 0.15
65 0.15
66 0.15
67 0.37
68 0.15
69 0.15
7 0.05
70 0.4
71 0.4
72 0.15
8 -0.57
9 -0.62

> <PUBCHEM_EFFECTIVE_ROTOR_COUNT>
12.2

> <PUBCHEM_PHARMACOPHORE_FEATURES>
15
1 1 acceptor
1 10 acceptor
1 11 donor
1 13 donor
1 2 acceptor
1 5 acceptor
1 6 cation
3 12 13 33 cation
3 7 8 22 cation
5 4 10 12 26 33 rings
5 7 8 20 22 23 rings
6 1 6 14 15 17 18 rings
6 24 30 31 32 34 35 rings
6 36 38 39 40 41 42 rings
6 9 20 23 25 28 29 rings

> <PUBCHEM_HEAVY_ATOM_COUNT>
42

> <PUBCHEM_ATOM_DEF_STEREO_COUNT>
0

> <PUBCHEM_ATOM_UDEF_STEREO_COUNT>
0

> <PUBCHEM_BOND_DEF_STEREO_COUNT>
0

> <PUBCHEM_BOND_UDEF_STEREO_COUNT>
0

> <PUBCHEM_ISOTOPIC_ATOM_COUNT>
0

> <PUBCHEM_COMPONENT_COUNT>
1

> <PUBCHEM_CACTVS_TAUTO_COUNT>
4

> <PUBCHEM_CONFORMER_ID>
00F5986E00000001

> <PUBCHEM_MMFF94_ENERGY>
112.8562

> <PUBCHEM_FEATURE_SELFOVERLAP>
76.24

> <PUBCHEM_SHAPE_FINGERPRINT>
10029044 110 10159704586662047115
10533779 1 8934995958475809702
11421887 103 9439108815396434490
11421887 45 8141787345329202998
11578821 258 9079126557933676747
11607047 74 18335423530548794844
11672396 167 18411133650663121373
117089 54 18337677412677072484
12124843 1 17749392541955649660
13974486 7 18337102380970617858
14359421 15 17968376728278569370
14617042 71 9943536223979693379
15152005 1 18339646633586386622
15152005 77 18130218255670390999
15510800 12 18339357445333507204
19304671 126 11314317110066764480
2026 5 18412262822918545767
20609170 94 18411425004618403766
20982279 24 17895486921041592595
21033648 29 10159111971407098232
212700 22 18411689990150320415
21895431 317 18340768230516103991
21987483 16 18342454868125137480
22002106 203 18411133619854506298
22899556 105 17968370161478957713
23523787 8 15285365015805933760
23523788 1 17560528279213248188
2835820 83 18410858754816977487
2851757 41 18411422791101848967
3525247 18 7924186297357783102
3918712 181 9007053565334751398
4516262 110 8574719005299075733
59521506 201 8358247121499697222

> <PUBCHEM_SHAPE_MULTIPOLES>
795.15
44.08
7.18
1.54
88.6
0.53
0.34
82.15
5.02
-4.82
-2.63
-1.64
0.44
3.47

> <PUBCHEM_SHAPE_SELFOVERLAP>
1738.56

> <PUBCHEM_SHAPE_VOLUME>
430.1

> <PUBCHEM_COORDINATE_TYPE>
2
5
10

$$$$
