11383888
  -OEChem-10052120443D

 43 46  0     0  0  0  0  0  0999 V2000
   -8.9771    0.4838    1.1698 Cl  0  0  0  0  0  0  0  0  0  0  0  0
    0.1502    2.1940    2.0115 F   0  0  0  0  0  0  0  0  0  0  0  0
   -2.5258   -0.6999   -1.1546 O   0  0  0  0  0  0  0  0  0  0  0  0
    6.5662   -1.4798    0.5880 N   0  0  0  0  0  0  0  0  0  0  0  0
    5.6417   -2.1201    1.3228 N   0  0  0  0  0  0  0  0  0  0  0  0
   -1.6405    0.7344    0.4727 N   0  0  0  0  0  0  0  0  0  0  0  0
    3.2909   -1.7813    1.5406 N   0  0  0  0  0  0  0  0  0  0  0  0
   -3.9225    0.3923    0.3703 N   0  0  0  0  0  0  0  0  0  0  0  0
    4.7055   -0.4268    0.1008 C   0  0  0  0  0  0  0  0  0  0  0  0
    3.8973    0.5322   -0.5323 C   0  0  0  0  0  0  0  0  0  0  0  0
    6.0693   -0.4528   -0.1683 C   0  0  0  0  0  0  0  0  0  0  0  0
    2.4784    0.5837   -0.2741 C   0  0  0  0  0  0  0  0  0  0  0  0
    4.5109   -1.4766    1.0239 C   0  0  0  0  0  0  0  0  0  0  0  0
    4.4992    1.4344   -1.4184 C   0  0  0  0  0  0  0  0  0  0  0  0
    6.6892    0.4372   -1.0481 C   0  0  0  0  0  0  0  0  0  0  0  0
    1.9832    1.3770    0.7635 C   0  0  0  0  0  0  0  0  0  0  0  0
    1.5945   -0.1582   -1.0611 C   0  0  0  0  0  0  0  0  0  0  0  0
    5.8715    1.3860   -1.6705 C   0  0  0  0  0  0  0  0  0  0  0  0
   -0.2684    0.6862    0.2246 C   0  0  0  0  0  0  0  0  0  0  0  0
    0.6117    1.4281    1.0127 C   0  0  0  0  0  0  0  0  0  0  0  0
    0.2232   -0.1071   -0.8121 C   0  0  0  0  0  0  0  0  0  0  0  0
   -2.6855    0.0604   -0.2051 C   0  0  0  0  0  0  0  0  0  0  0  0
   -5.2083   -0.0622   -0.0068 C   0  0  0  0  0  0  0  0  0  0  0  0
   -6.3182    0.3860    0.6904 C   0  0  0  0  0  0  0  0  0  0  0  0
   -5.3299   -0.9452   -1.0671 C   0  0  0  0  0  0  0  0  0  0  0  0
   -7.5853   -0.0618    0.3167 C   0  0  0  0  0  0  0  0  0  0  0  0
   -6.5968   -1.3929   -1.4407 C   0  0  0  0  0  0  0  0  0  0  0  0
   -7.7246   -0.9511   -0.7490 C   0  0  0  0  0  0  0  0  0  0  0  0
    3.9010    2.1894   -1.9251 H   0  0  0  0  0  0  0  0  0  0  0  0
    7.7551    0.3981   -1.2426 H   0  0  0  0  0  0  0  0  0  0  0  0
    2.6549    1.9617    1.3878 H   0  0  0  0  0  0  0  0  0  0  0  0
    1.9621   -0.7818   -1.8730 H   0  0  0  0  0  0  0  0  0  0  0  0
    6.3136    2.0981   -2.3629 H   0  0  0  0  0  0  0  0  0  0  0  0
    7.5264   -1.7950    0.6479 H   0  0  0  0  0  0  0  0  0  0  0  0
   -0.3904   -0.7101   -1.4659 H   0  0  0  0  0  0  0  0  0  0  0  0
   -1.9216    1.3342    1.2445 H   0  0  0  0  0  0  0  0  0  0  0  0
    2.4304   -1.2971    1.3185 H   0  0  0  0  0  0  0  0  0  0  0  0
    3.1798   -2.5424    2.2039 H   0  0  0  0  0  0  0  0  0  0  0  0
   -3.9006    1.0386    1.1551 H   0  0  0  0  0  0  0  0  0  0  0  0
   -6.2055    1.0795    1.5203 H   0  0  0  0  0  0  0  0  0  0  0  0
   -4.5106   -1.3342   -1.6525 H   0  0  0  0  0  0  0  0  0  0  0  0
   -6.7067   -2.0855   -2.2704 H   0  0  0  0  0  0  0  0  0  0  0  0
   -8.7057   -1.3082   -1.0514 H   0  0  0  0  0  0  0  0  0  0  0  0
  1 26  1  0  0  0  0
  2 20  1  0  0  0  0
  3 22  2  0  0  0  0
  4  5  1  0  0  0  0
  4 11  1  0  0  0  0
  4 34  1  0  0  0  0
  5 13  2  0  0  0  0
  6 19  1  0  0  0  0
  6 22  1  0  0  0  0
  6 36  1  0  0  0  0
  7 13  1  0  0  0  0
  7 37  1  0  0  0  0
  7 38  1  0  0  0  0
  8 22  1  0  0  0  0
  8 23  1  0  0  0  0
  8 39  1  0  0  0  0
  9 10  2  0  0  0  0
  9 11  1  0  0  0  0
  9 13  1  0  0  0  0
 10 12  1  0  0  0  0
 10 14  1  0  0  0  0
 11 15  2  0  0  0  0
 12 16  2  0  0  0  0
 12 17  1  0  0  0  0
 14 18  2  0  0  0  0
 14 29  1  0  0  0  0
 15 18  1  0  0  0  0
 15 30  1  0  0  0  0
 16 20  1  0  0  0  0
 16 31  1  0  0  0  0
 17 21  2  0  0  0  0
 17 32  1  0  0  0  0
 18 33  1  0  0  0  0
 19 20  2  0  0  0  0
 19 21  1  0  0  0  0
 21 35  1  0  0  0  0
 23 24  2  0  0  0  0
 23 25  1  0  0  0  0
 24 26  1  0  0  0  0
 24 40  1  0  0  0  0
 25 27  2  0  0  0  0
 25 41  1  0  0  0  0
 26 28  2  0  0  0  0
 27 28  1  0  0  0  0
 27 42  1  0  0  0  0
 28 43  1  0  0  0  0
M  END
> <PUBCHEM_COMPOUND_CID>
11383888

> <PUBCHEM_CONFORMER_RMSD>
0.8

> <PUBCHEM_CONFORMER_DIVERSEORDER>
1
22
27
19
30
16
23
37
38
7
20
21
8
29
35
11
24
9
40
10
32
17
12
26
31
33
18
34
6
13
36
39
5
4
25
28
15
14
3
2

> <PUBCHEM_MMFF94_PARTIAL_CHARGES>
40
1 -0.18
11 -0.15
13 0.37
14 -0.15
15 -0.15
16 -0.15
17 -0.15
18 -0.15
19 0.12
2 -0.19
20 0.19
21 -0.15
22 0.69
23 0.12
24 -0.15
25 -0.15
26 0.18
27 -0.15
28 -0.15
29 0.15
3 -0.57
30 0.15
31 0.15
32 0.15
33 0.15
34 0.27
35 0.15
36 0.37
37 0.4
38 0.4
39 0.37
4 0.3
40 0.15
41 0.15
42 0.15
43 0.15
5 -0.71
6 -0.55
7 -0.88
8 -0.55

> <PUBCHEM_EFFECTIVE_ROTOR_COUNT>
5

> <PUBCHEM_PHARMACOPHORE_FEATURES>
10
1 3 acceptor
1 4 donor
1 6 donor
1 7 donor
1 8 donor
3 5 7 13 cation
5 4 5 9 11 13 rings
6 12 16 17 19 20 21 rings
6 23 24 25 26 27 28 rings
6 9 10 11 14 15 18 rings

> <PUBCHEM_HEAVY_ATOM_COUNT>
28

> <PUBCHEM_ATOM_DEF_STEREO_COUNT>
0

> <PUBCHEM_ATOM_UDEF_STEREO_COUNT>
0

> <PUBCHEM_BOND_DEF_STEREO_COUNT>
0

> <PUBCHEM_BOND_UDEF_STEREO_COUNT>
0

> <PUBCHEM_ISOTOPIC_ATOM_COUNT>
0

> <PUBCHEM_COMPONENT_COUNT>
1

> <PUBCHEM_CACTVS_TAUTO_COUNT>
21

> <PUBCHEM_CONFORMER_ID>
00ADB45000000001

> <PUBCHEM_MMFF94_ENERGY>
82.3615

> <PUBCHEM_FEATURE_SELFOVERLAP>
50.887

> <PUBCHEM_SHAPE_FINGERPRINT>
10 15 15985096431492407522
10050765 1 17414987239298716661
10299344 5 18409450289164237663
10319688 140 16516230830505783635
106641 1 17561073727422376570
11524674 6 16200432498986258559
11646440 116 16272211907459803691
11719270 70 17346601867636383775
11963148 33 17918270952466637790
12082328 90 17749109985765115525
12166972 35 18410293635831543613
12236239 1 18410857634009503996
12516196 113 17131836473280452873
13533116 47 18260264136318107010
14068700 675 17988927786387482361
14251764 18 18413108368739761255
14294032 229 17772773597108242257
15119646 104 18410856529733793775
15183329 4 18273498983551411453
15301273 46 16200435753890959741
15328684 2 18199753540290936579
15348495 7 14692277500074395719
15352257 5 17967535701184643291
15419008 47 15936404568242356189
15419008 91 16271635707780324689
15461852 350 13830125097562035229
15510794 2 17022905662638111243
15849732 13 15410898461804056317
20157964 124 17676209091656435780
21150785 3 16443065006509745227
21267235 1 17418102039581176469
21344244 181 16732986396958626314
21344244 78 18335969897590814032
220451 1 18408602587242832095
221357 26 17022899047549900620
22224240 67 14045740418010003629
22956985 138 17627242160957357526
23081809 10 18409451379896293053
23516275 137 18264509311695495699
23522609 53 18196399020404519785
23559900 14 17822856506144809889
255183 451 18121218672190178678
3004659 81 17988928902471998989
335352 9 17704075114540928621
3383291 50 16988840631688146919
3411729 13 17273118315056388992
34797466 226 16732986444166284068
3633792 109 17676485016870852317
397830 11 14476664382311485735
4073 2 18122057865004949953
4098825 35 17822568314050219293
439807 62 18334857204090643089
5104073 3 17488459849188791267
5219985 9 18342739615666928729
57527293 21 16127502958242252710
59682541 52 17385441003839083158
59755656 520 18335416907439737591

> <PUBCHEM_SHAPE_MULTIPOLES>
540.05
25.04
1.64
1.5
35.88
0.3
0.06
5.37
-1.56
-2.45
0.5
-0.13
-0.11
-3.21

> <PUBCHEM_SHAPE_SELFOVERLAP>
1196.267

> <PUBCHEM_SHAPE_VOLUME>
290.6

> <PUBCHEM_COORDINATE_TYPE>
2
5
10

$$$$
