49830290
  -OEChem-10062121543D

 39 42  0     0  0  0  0  0  0999 V2000
    8.0284    0.8683   -0.0418 Cl  0  0  0  0  0  0  0  0  0  0  0  0
    1.3826    1.2493   -0.0884 O   0  0  0  0  0  0  0  0  0  0  0  0
   -3.5682   -2.8021    0.1453 N   0  0  0  0  0  0  0  0  0  0  0  0
   -1.2453   -3.4404    0.1442 N   0  0  0  0  0  0  0  0  0  0  0  0
    1.6005   -1.0903    0.0090 N   0  0  0  0  0  0  0  0  0  0  0  0
   -2.0825   -1.1372    0.0573 C   0  0  0  0  0  0  0  0  0  0  0  0
   -3.3911   -0.5861    0.0499 C   0  0  0  0  0  0  0  0  0  0  0  0
   -2.2278   -2.5201    0.1174 C   0  0  0  0  0  0  0  0  0  0  0  0
   -3.8144    0.7836   -0.0028 C   0  0  0  0  0  0  0  0  0  0  0  0
   -4.2846   -1.6340    0.1048 C   0  0  0  0  0  0  0  0  0  0  0  0
   -0.7751   -0.6259    0.0197 C   0  0  0  0  0  0  0  0  0  0  0  0
    0.2804   -1.5356    0.0451 C   0  0  0  0  0  0  0  0  0  0  0  0
   -0.0086   -2.8922    0.1060 C   0  0  0  0  0  0  0  0  0  0  0  0
   -4.6098    1.2268   -1.0593 C   0  0  0  0  0  0  0  0  0  0  0  0
   -3.4306    1.6720    1.0017 C   0  0  0  0  0  0  0  0  0  0  0  0
    2.0654    0.2312   -0.0535 C   0  0  0  0  0  0  0  0  0  0  0  0
   -5.0216    2.5587   -1.1115 C   0  0  0  0  0  0  0  0  0  0  0  0
   -3.8424    3.0037    0.9496 C   0  0  0  0  0  0  0  0  0  0  0  0
    3.5435    0.3886   -0.0501 C   0  0  0  0  0  0  0  0  0  0  0  0
   -4.6378    3.4470   -0.1070 C   0  0  0  0  0  0  0  0  0  0  0  0
    4.1186    1.5594    0.4441 C   0  0  0  0  0  0  0  0  0  0  0  0
    4.3554   -0.6335   -0.5418 C   0  0  0  0  0  0  0  0  0  0  0  0
    5.5055    1.7081    0.4465 C   0  0  0  0  0  0  0  0  0  0  0  0
    5.7422   -0.4850   -0.5393 C   0  0  0  0  0  0  0  0  0  0  0  0
    6.3173    0.6859   -0.0452 C   0  0  0  0  0  0  0  0  0  0  0  0
   -0.6607    0.4460   -0.0291 H   0  0  0  0  0  0  0  0  0  0  0  0
   -5.3660   -1.6612    0.1209 H   0  0  0  0  0  0  0  0  0  0  0  0
   -3.9668   -3.7296    0.1896 H   0  0  0  0  0  0  0  0  0  0  0  0
    0.7939   -3.6264    0.1267 H   0  0  0  0  0  0  0  0  0  0  0  0
   -4.9161    0.5520   -1.8553 H   0  0  0  0  0  0  0  0  0  0  0  0
   -2.8137    1.3448    1.8354 H   0  0  0  0  0  0  0  0  0  0  0  0
    2.2860   -1.8370    0.0784 H   0  0  0  0  0  0  0  0  0  0  0  0
   -5.6400    2.9042   -1.9347 H   0  0  0  0  0  0  0  0  0  0  0  0
   -3.5442    3.6954    1.7320 H   0  0  0  0  0  0  0  0  0  0  0  0
   -4.9582    4.4839   -0.1476 H   0  0  0  0  0  0  0  0  0  0  0  0
    3.5045    2.3658    0.8363 H   0  0  0  0  0  0  0  0  0  0  0  0
    3.9522   -1.5456   -0.9711 H   0  0  0  0  0  0  0  0  0  0  0  0
    5.9400    2.6254    0.8357 H   0  0  0  0  0  0  0  0  0  0  0  0
    6.3627   -1.2861   -0.9330 H   0  0  0  0  0  0  0  0  0  0  0  0
  1 25  1  0  0  0  0
  2 16  2  0  0  0  0
  3  8  1  0  0  0  0
  3 10  1  0  0  0  0
  3 28  1  0  0  0  0
  4  8  1  0  0  0  0
  4 13  2  0  0  0  0
  5 12  1  0  0  0  0
  5 16  1  0  0  0  0
  5 32  1  0  0  0  0
  6  7  1  0  0  0  0
  6  8  2  0  0  0  0
  6 11  1  0  0  0  0
  7  9  1  0  0  0  0
  7 10  2  0  0  0  0
  9 14  2  0  0  0  0
  9 15  1  0  0  0  0
 10 27  1  0  0  0  0
 11 12  2  0  0  0  0
 11 26  1  0  0  0  0
 12 13  1  0  0  0  0
 13 29  1  0  0  0  0
 14 17  1  0  0  0  0
 14 30  1  0  0  0  0
 15 18  2  0  0  0  0
 15 31  1  0  0  0  0
 16 19  1  0  0  0  0
 17 20  2  0  0  0  0
 17 33  1  0  0  0  0
 18 20  1  0  0  0  0
 18 34  1  0  0  0  0
 19 21  2  0  0  0  0
 19 22  1  0  0  0  0
 20 35  1  0  0  0  0
 21 23  1  0  0  0  0
 21 36  1  0  0  0  0
 22 24  2  0  0  0  0
 22 37  1  0  0  0  0
 23 25  2  0  0  0  0
 23 38  1  0  0  0  0
 24 25  1  0  0  0  0
 24 39  1  0  0  0  0
M  END
> <PUBCHEM_COMPOUND_CID>
49830290

> <PUBCHEM_CONFORMER_RMSD>
0.8

> <PUBCHEM_CONFORMER_DIVERSEORDER>
1
3
5
4
2

> <PUBCHEM_MMFF94_PARTIAL_CHARGES>
38
1 -0.18
10 -0.3
11 -0.15
12 0.12
13 0.16
14 -0.15
15 -0.15
16 0.54
17 -0.15
18 -0.15
19 0.09
2 -0.57
20 -0.15
21 -0.15
22 -0.15
23 -0.15
24 -0.15
25 0.18
26 0.15
27 0.15
28 0.27
29 0.15
3 0.03
30 0.15
31 0.15
32 0.37
33 0.15
34 0.15
35 0.15
36 0.15
37 0.15
38 0.15
39 0.15
4 -0.57
5 -0.55
7 -0.05
8 0.11
9 0.05

> <PUBCHEM_EFFECTIVE_ROTOR_COUNT>
4

> <PUBCHEM_PHARMACOPHORE_FEATURES>
9
1 2 acceptor
1 3 cation
1 3 donor
1 4 acceptor
1 5 donor
5 3 6 7 8 10 rings
6 19 21 22 23 24 25 rings
6 4 6 8 11 12 13 rings
6 9 14 15 17 18 20 rings

> <PUBCHEM_HEAVY_ATOM_COUNT>
25

> <PUBCHEM_ATOM_DEF_STEREO_COUNT>
0

> <PUBCHEM_ATOM_UDEF_STEREO_COUNT>
0

> <PUBCHEM_BOND_DEF_STEREO_COUNT>
0

> <PUBCHEM_BOND_UDEF_STEREO_COUNT>
0

> <PUBCHEM_ISOTOPIC_ATOM_COUNT>
0

> <PUBCHEM_COMPONENT_COUNT>
1

> <PUBCHEM_CACTVS_TAUTO_COUNT>
4

> <PUBCHEM_CONFORMER_ID>
02F8599200000001

> <PUBCHEM_MMFF94_ENERGY>
70.9541

> <PUBCHEM_FEATURE_SELFOVERLAP>
45.784

> <PUBCHEM_SHAPE_FINGERPRINT>
10050765 1 18337953381654026387
100830 39 18410575098054857280
10165383 225 18342745092340614025
10411042 1 17905890636891567347
105312 117 18336265660999915653
10670039 82 18410568509120948425
10835480 77 18343299280603013804
11135609 187 18265044727473151701
11273773 42 17987514824189443297
12107183 9 18190732030311211874
12390115 104 18410582760059852247
12422481 6 17240767211968466318
12788726 201 18189323727868047787
13073987 5 18334857234208681514
13885169 127 18411982495035206512
14251764 75 17839470990567340929
14347329 18 18340761572525401152
14466204 15 18409446986155162520
14508225 48 17695333064992577279
14713325 29 18336552689833973059
14790565 3 18194121819768078138
14931854 50 18129651990472247509
14950920 106 14635169914089376189
15021287 119 17095527314108732404
15042514 8 18048602817801853051
15183329 4 18412825768471056664
15419008 42 18059581213987383382
15513586 35 17170141345353266621
15980000 95 17040915361441456690
17093844 174 18409445921293306624
17349148 13 12895075137011745454
17844677 252 18337961215668319984
18608769 82 18412266160302917539
21033648 144 18188482468138044855
21033648 29 18201427125737410824
21236236 1 18411418431577596677
21279426 13 18270970046778529902
21315763 129 18340768268943521004
21315764 268 18199184177672208136
21421861 104 17750220427984667570
23559900 14 18202282537578923224
23569914 152 16838556916970747452
23569914 2 17483064498113380952
283562 15 18336262431892170171
2838139 119 18341888550426732677
32027 91 17843139012918204606
350125 39 18410577305941905939
4073 2 18261115227444008818
4144715 1 18335431153482644858
4214541 1 18339081592062434762
445580 37 18338528529572433924
474 4 17978223864944712483
5104073 3 18114463370672807458
5283173 99 18341613741708705392
531348 171 18060699485473405102
5372103 7 17242712223170818141
6299153 45 18262229998784489730
6327066 14 18261949631862219341
6328613 192 18334581278613092948
6677587 24 15873014244457900687
7226269 152 18202004309196841096
7288768 16 18041284253932239707
7808743 9 18409445869437278889
9980921 221 18057069959668945580
9981440 41 18334579023465008571

> <PUBCHEM_SHAPE_MULTIPOLES>
495.55
16.77
3.86
0.83
27.91
0.56
0.04
-11.81
1.48
-6.56
-0.33
-0.56
-0.38
0.74

> <PUBCHEM_SHAPE_SELFOVERLAP>
1100.79

> <PUBCHEM_SHAPE_VOLUME>
265.4

> <PUBCHEM_COORDINATE_TYPE>
2
5
10

$$$$
