135398504
  -OEChem-10062121553D

 60 64  0     1  0  0  0  0  0999 V2000
   -2.0278    3.1330   -0.7651 Cl  0  0  0  0  0  0  0  0  0  0  0  0
   -6.8268    0.5750    1.0688 O   0  0  0  0  0  0  0  0  0  0  0  0
    3.9430    3.9745   -1.1567 O   0  0  0  0  0  0  0  0  0  0  0  0
    2.4424   -3.8726    1.3101 O   0  0  0  0  0  0  0  0  0  0  0  0
   -4.3853   -0.5259    0.2164 N   0  0  0  0  0  0  0  0  0  0  0  0
    0.4776   -1.1129    0.7592 N   0  0  0  0  0  0  0  0  0  0  0  0
    0.7367   -2.1140   -1.2082 N   0  0  0  0  0  0  0  0  0  0  0  0
    3.2219    0.3928   -0.7543 N   0  0  0  0  0  0  0  0  0  0  0  0
    4.5418   -2.9400    1.3459 N   0  0  0  0  0  0  0  0  0  0  0  0
   -4.7230   -0.4905    1.6431 C   0  0  0  0  0  0  0  0  0  0  0  0
   -5.0980    0.4401   -0.6300 C   0  0  0  0  0  0  0  0  0  0  0  0
   -3.1122   -0.9444   -0.1863 C   0  0  0  0  0  0  0  0  0  0  0  0
   -6.2369   -0.4832    1.8200 C   0  0  0  0  0  0  0  0  0  0  0  0
   -6.5909    0.3971   -0.3261 C   0  0  0  0  0  0  0  0  0  0  0  0
   -0.7761   -1.1627    0.2059 C   0  0  0  0  0  0  0  0  0  0  0  0
   -0.5879   -1.7917   -1.0215 C   0  0  0  0  0  0  0  0  0  0  0  0
   -2.0205   -0.7248    0.6602 C   0  0  0  0  0  0  0  0  0  0  0  0
   -1.6958   -2.0043   -1.8591 C   0  0  0  0  0  0  0  0  0  0  0  0
   -2.9550   -1.5725   -1.4239 C   0  0  0  0  0  0  0  0  0  0  0  0
    1.3465   -1.6925   -0.1230 C   0  0  0  0  0  0  0  0  0  0  0  0
    2.7006   -1.7474    0.2483 C   0  0  0  0  0  0  0  0  0  0  0  0
    3.5592   -0.7448   -0.0661 C   0  0  0  0  0  0  0  0  0  0  0  0
   -1.5787   -2.6708   -3.1908 C   0  0  0  0  0  0  0  0  0  0  0  0
    4.0066    1.5948   -0.7164 C   0  0  0  0  0  0  0  0  0  0  0  0
    3.1606    2.7804   -1.1874 C   0  0  1  0  0  0  0  0  0  0  0  0
    3.2002   -2.9508    1.0127 C   0  0  0  0  0  0  0  0  0  0  0  0
    4.9530   -0.8537    0.3434 C   0  0  0  0  0  0  0  0  0  0  0  0
    1.9442    2.9834   -0.3135 C   0  0  0  0  0  0  0  0  0  0  0  0
    5.3908   -1.9198    1.0192 C   0  0  0  0  0  0  0  0  0  0  0  0
    0.6686    2.9654   -0.8772 C   0  0  0  0  0  0  0  0  0  0  0  0
    2.0980    3.1900    1.0574 C   0  0  0  0  0  0  0  0  0  0  0  0
   -0.4534    3.1538   -0.0701 C   0  0  0  0  0  0  0  0  0  0  0  0
    0.9762    3.3785    1.8645 C   0  0  0  0  0  0  0  0  0  0  0  0
   -0.2996    3.3605    1.3007 C   0  0  0  0  0  0  0  0  0  0  0  0
   -4.3067    0.4217    2.0882 H   0  0  0  0  0  0  0  0  0  0  0  0
   -4.3123   -1.3587    2.1720 H   0  0  0  0  0  0  0  0  0  0  0  0
   -4.9500    0.2500   -1.6984 H   0  0  0  0  0  0  0  0  0  0  0  0
   -4.7105    1.4423   -0.4114 H   0  0  0  0  0  0  0  0  0  0  0  0
   -6.4888   -0.3301    2.8742 H   0  0  0  0  0  0  0  0  0  0  0  0
   -6.6779   -1.4385    1.5100 H   0  0  0  0  0  0  0  0  0  0  0  0
   -7.0357   -0.5509   -0.6522 H   0  0  0  0  0  0  0  0  0  0  0  0
   -7.1036    1.2037   -0.8598 H   0  0  0  0  0  0  0  0  0  0  0  0
   -2.1039   -0.2271    1.6195 H   0  0  0  0  0  0  0  0  0  0  0  0
   -3.8200   -1.7482   -2.0612 H   0  0  0  0  0  0  0  0  0  0  0  0
    0.7097   -0.7131    1.6594 H   0  0  0  0  0  0  0  0  0  0  0  0
   -1.9155   -1.9949   -3.9835 H   0  0  0  0  0  0  0  0  0  0  0  0
   -2.1894   -3.5793   -3.2148 H   0  0  0  0  0  0  0  0  0  0  0  0
   -0.5451   -2.9561   -3.4108 H   0  0  0  0  0  0  0  0  0  0  0  0
    4.4044    1.7992    0.2858 H   0  0  0  0  0  0  0  0  0  0  0  0
    4.8744    1.5018   -1.3821 H   0  0  0  0  0  0  0  0  0  0  0  0
    2.8520    2.6225   -2.2283 H   0  0  0  0  0  0  0  0  0  0  0  0
    2.2886    0.4330   -1.1509 H   0  0  0  0  0  0  0  0  0  0  0  0
    5.6780   -0.0896    0.0886 H   0  0  0  0  0  0  0  0  0  0  0  0
    4.9263   -3.7279    1.8588 H   0  0  0  0  0  0  0  0  0  0  0  0
    6.4211   -2.0361    1.3306 H   0  0  0  0  0  0  0  0  0  0  0  0
    0.5476    2.8031   -1.9458 H   0  0  0  0  0  0  0  0  0  0  0  0
    3.0823    3.2205    1.5159 H   0  0  0  0  0  0  0  0  0  0  0  0
    4.7166    3.8319   -1.7283 H   0  0  0  0  0  0  0  0  0  0  0  0
    1.0960    3.5417    2.9315 H   0  0  0  0  0  0  0  0  0  0  0  0
   -1.1648    3.5086    1.9418 H   0  0  0  0  0  0  0  0  0  0  0  0
  1 32  1  0  0  0  0
  2 13  1  0  0  0  0
  2 14  1  0  0  0  0
  3 25  1  0  0  0  0
  3 58  1  0  0  0  0
  4 26  2  0  0  0  0
  5 10  1  0  0  0  0
  5 11  1  0  0  0  0
  5 12  1  0  0  0  0
  6 15  1  0  0  0  0
  6 20  1  0  0  0  0
  6 45  1  0  0  0  0
  7 16  1  0  0  0  0
  7 20  2  0  0  0  0
  8 22  1  0  0  0  0
  8 24  1  0  0  0  0
  8 52  1  0  0  0  0
  9 26  1  0  0  0  0
  9 29  1  0  0  0  0
  9 54  1  0  0  0  0
 10 13  1  0  0  0  0
 10 35  1  0  0  0  0
 10 36  1  0  0  0  0
 11 14  1  0  0  0  0
 11 37  1  0  0  0  0
 11 38  1  0  0  0  0
 12 17  2  0  0  0  0
 12 19  1  0  0  0  0
 13 39  1  0  0  0  0
 13 40  1  0  0  0  0
 14 41  1  0  0  0  0
 14 42  1  0  0  0  0
 15 16  2  0  0  0  0
 15 17  1  0  0  0  0
 16 18  1  0  0  0  0
 17 43  1  0  0  0  0
 18 19  2  0  0  0  0
 18 23  1  0  0  0  0
 19 44  1  0  0  0  0
 20 21  1  0  0  0  0
 21 22  2  0  0  0  0
 21 26  1  0  0  0  0
 22 27  1  0  0  0  0
 23 46  1  0  0  0  0
 23 47  1  0  0  0  0
 23 48  1  0  0  0  0
 24 25  1  0  0  0  0
 24 49  1  0  0  0  0
 24 50  1  0  0  0  0
 25 28  1  0  0  0  0
 25 51  1  0  0  0  0
 27 29  2  0  0  0  0
 27 53  1  0  0  0  0
 28 30  2  0  0  0  0
 28 31  1  0  0  0  0
 29 55  1  0  0  0  0
 30 32  1  0  0  0  0
 30 56  1  0  0  0  0
 31 33  2  0  0  0  0
 31 57  1  0  0  0  0
 32 34  2  0  0  0  0
 33 34  1  0  0  0  0
 33 59  1  0  0  0  0
 34 60  1  0  0  0  0
M  END
> <PUBCHEM_COMPOUND_CID>
135398504

> <PUBCHEM_CONFORMER_RMSD>
1

> <PUBCHEM_CONFORMER_DIVERSEORDER>
1
149
140
34
46
135
122
48
105
82
99
52
124
106
80
26
86
81
69
22
20
139
103
77
137
79
112
148
29
119
131
100
50
31
146
110
28
72
143
111
10
55
115
132
147
126
121
59
54
133
85
89
138
71
127
57
42
142
56
83
114
84
66
97
61
58
78
64
7
67
101
12
145
136
116
117
35
11
40
118
87
141
74
96
47
109
13
134
68
113
32
88
39
17
45
130
95
104
18
33
25
123
24
38
102
43
129
150
92
62
65
60
91
41
21
9
94
120
36
144
2
98
15
51
30
53
3
70
63
23
108
49
16
44
8
107
37
90
125
4
6
14
27
93
73
19
76
5
75
128

> <PUBCHEM_MMFF94_PARTIAL_CHARGES>
46
1 -0.18
10 0.37
11 0.37
12 0.1
13 0.28
14 0.28
15 -0.15
16 0.23
17 -0.15
18 -0.14
19 -0.15
2 -0.56
20 0.14
21 0.06
22 0.1
23 0.14
24 0.37
25 0.42
26 0.62
27 -0.15
28 -0.14
29 -0.04
3 -0.68
30 -0.15
31 -0.15
32 0.18
33 -0.15
34 -0.15
4 -0.57
43 0.15
44 0.15
45 0.27
5 -0.84
52 0.4
53 0.15
54 0.37
55 0.15
56 0.15
57 0.15
58 0.4
59 0.15
6 0.03
60 0.15
7 -0.57
8 -0.87
9 -0.54

> <PUBCHEM_EFFECTIVE_ROTOR_COUNT>
7.2

> <PUBCHEM_PHARMACOPHORE_FEATURES>
15
1 2 acceptor
1 3 acceptor
1 3 donor
1 4 acceptor
1 5 cation
1 6 donor
1 8 cation
1 8 donor
1 9 donor
3 6 7 20 cation
5 6 7 15 16 20 rings
6 12 15 16 17 18 19 rings
6 2 5 10 11 13 14 rings
6 28 30 31 32 33 34 rings
6 9 21 22 26 27 29 rings

> <PUBCHEM_HEAVY_ATOM_COUNT>
34

> <PUBCHEM_ATOM_DEF_STEREO_COUNT>
0

> <PUBCHEM_ATOM_UDEF_STEREO_COUNT>
1

> <PUBCHEM_BOND_DEF_STEREO_COUNT>
0

> <PUBCHEM_BOND_UDEF_STEREO_COUNT>
0

> <PUBCHEM_ISOTOPIC_ATOM_COUNT>
0

> <PUBCHEM_COMPONENT_COUNT>
1

> <PUBCHEM_CACTVS_TAUTO_COUNT>
-1

> <PUBCHEM_CONFORMER_ID>
0812046800000001

> <PUBCHEM_MMFF94_ENERGY>
101.7884

> <PUBCHEM_FEATURE_SELFOVERLAP>
76.231

> <PUBCHEM_SHAPE_FINGERPRINT>
10006869 2 18411141316251505349
10675989 125 18267309905355739440
11331351 85 18200869553463183102
11578080 2 17411291557691257914
12107698 1 18335980875146777577
12156800 1 17910700686102110940
12422481 6 18267035963956875057
12788726 201 18340494352961636206
13165054 235 18200031717118742509
13583140 156 18334862749010116443
13782708 43 16877940512396555555
13878862 14 18262217985649985309
14114211 68 17897190080983930340
14114211 80 17756720989298138140
14117953 113 18130509622077830461
14394314 77 18269834384253385096
14400156 96 17968667137567580925
15403338 16 18187644652952071603
15420108 30 17701524337584325222
15475509 84 18190740838655638804
16090146 7 17274561900171176815
19319366 153 18265060300216899988
20511986 3 17988076837143226596
20764821 26 18124010567660401964
21033648 29 17095232641124548503
21344244 78 18266443335579011122
21927370 108 17970895680270885090
22122407 14 18337404759858438185
25019877 29 16844717638838698774
3680242 22 18411426094068492545
397830 11 17823148963885647051
4144715 1 18187660076659426459
469060 322 17024881346765849494
513202 73 17908982102336905878
513532 50 17346040085856375228

> <PUBCHEM_SHAPE_MULTIPOLES>
659.06
12.24
5.44
1.91
14.31
3.69
0.55
-2.75
-4.21
-6.05
0.07
0.99
-0.78
-2.6

> <PUBCHEM_SHAPE_SELFOVERLAP>
1437.096

> <PUBCHEM_SHAPE_VOLUME>
359.9

> <PUBCHEM_COORDINATE_TYPE>
2
5
10

$$$$
