53341082
  -OEChem-10062121563D

 54 57  0     0  0  0  0  0  0999 V2000
    2.7618   -1.1976   -2.0108 Cl  0  0  0  0  0  0  0  0  0  0  0  0
   -5.2191   -0.2911   -0.7387 O   0  0  0  0  0  0  0  0  0  0  0  0
    3.9001    1.2163   -0.6253 O   0  0  0  0  0  0  0  0  0  0  0  0
   -1.1977   -3.2665    1.5300 O   0  0  0  0  0  0  0  0  0  0  0  0
   -1.6526    1.0619   -0.7594 N   0  0  0  0  0  0  0  0  0  0  0  0
   -3.5593   -0.9813    0.6337 N   0  0  0  0  0  0  0  0  0  0  0  0
   -2.3238    3.2586   -0.2003 N   0  0  0  0  0  0  0  0  0  0  0  0
   -2.7512   -3.9527   -0.0558 N   0  0  0  0  0  0  0  0  0  0  0  0
   -4.5213    3.6794    0.6948 N   0  0  0  0  0  0  0  0  0  0  0  0
   -6.0441    1.9025    1.0307 N   0  0  0  0  0  0  0  0  0  0  0  0
    6.9221    1.4679    0.6140 N   0  0  0  0  0  0  0  0  0  0  0  0
   -3.8593    1.4349    0.1315 C   0  0  0  0  0  0  0  0  0  0  0  0
   -2.6402    1.9485   -0.2616 C   0  0  0  0  0  0  0  0  0  0  0  0
   -0.2497    1.0939   -0.7294 C   0  0  0  0  0  0  0  0  0  0  0  0
   -4.1598    0.0324    0.0526 C   0  0  0  0  0  0  0  0  0  0  0  0
   -4.2780   -2.0626    0.1922 C   0  0  0  0  0  0  0  0  0  0  0  0
   -4.7704    2.3563    0.6062 C   0  0  0  0  0  0  0  0  0  0  0  0
   -3.9265   -3.4574    0.6229 C   0  0  0  0  0  0  0  0  0  0  0  0
    0.4845    0.0612   -1.3125 C   0  0  0  0  0  0  0  0  0  0  0  0
    0.4104    2.1591   -0.1166 C   0  0  0  0  0  0  0  0  0  0  0  0
    2.5387    1.1586   -0.6701 C   0  0  0  0  0  0  0  0  0  0  0  0
    1.8786    0.0935   -1.2830 C   0  0  0  0  0  0  0  0  0  0  0  0
    1.8045    2.1913   -0.0869 C   0  0  0  0  0  0  0  0  0  0  0  0
   -5.2868   -1.6480   -0.6413 C   0  0  0  0  0  0  0  0  0  0  0  0
    4.5040    1.2490    0.6659 C   0  0  0  0  0  0  0  0  0  0  0  0
   -3.2964    4.0561    0.2809 C   0  0  0  0  0  0  0  0  0  0  0  0
    5.8660    0.6245    0.5858 C   0  0  0  0  0  0  0  0  0  0  0  0
    5.9759   -0.7535    0.4900 C   0  0  0  0  0  0  0  0  0  0  0  0
   -1.4769   -3.8103    0.4663 C   0  0  0  0  0  0  0  0  0  0  0  0
    7.2520   -1.3009    0.4187 C   0  0  0  0  0  0  0  0  0  0  0  0
    8.1466    0.8994    0.5428 C   0  0  0  0  0  0  0  0  0  0  0  0
    8.3634   -0.4656    0.4451 C   0  0  0  0  0  0  0  0  0  0  0  0
   -0.4437   -4.4003   -0.4260 C   0  0  0  0  0  0  0  0  0  0  0  0
    0.8481   -4.3576   -0.0863 C   0  0  0  0  0  0  0  0  0  0  0  0
   -2.0315    0.2672   -1.2663 H   0  0  0  0  0  0  0  0  0  0  0  0
   -4.7483   -4.1441    0.3943 H   0  0  0  0  0  0  0  0  0  0  0  0
   -3.7610   -3.4750    1.7056 H   0  0  0  0  0  0  0  0  0  0  0  0
   -0.0318   -0.7700   -1.7886 H   0  0  0  0  0  0  0  0  0  0  0  0
   -0.1012    2.9740    0.3795 H   0  0  0  0  0  0  0  0  0  0  0  0
    2.3040    3.0290    0.3923 H   0  0  0  0  0  0  0  0  0  0  0  0
   -6.0723   -2.1334   -1.2007 H   0  0  0  0  0  0  0  0  0  0  0  0
    4.5909    2.2930    0.9896 H   0  0  0  0  0  0  0  0  0  0  0  0
    3.8999    0.7113    1.4088 H   0  0  0  0  0  0  0  0  0  0  0  0
   -2.8842   -4.4057   -0.9555 H   0  0  0  0  0  0  0  0  0  0  0  0
   -3.0691    5.1133    0.3414 H   0  0  0  0  0  0  0  0  0  0  0  0
   -6.6790    2.6100    1.3807 H   0  0  0  0  0  0  0  0  0  0  0  0
   -6.4524    1.0978    0.5718 H   0  0  0  0  0  0  0  0  0  0  0  0
    5.1023   -1.3961    0.4721 H   0  0  0  0  0  0  0  0  0  0  0  0
    7.3803   -2.3765    0.3432 H   0  0  0  0  0  0  0  0  0  0  0  0
    8.9800    1.5937    0.5670 H   0  0  0  0  0  0  0  0  0  0  0  0
    9.3674   -0.8704    0.3909 H   0  0  0  0  0  0  0  0  0  0  0  0
   -0.7491   -4.8660   -1.3566 H   0  0  0  0  0  0  0  0  0  0  0  0
    1.5962   -4.7891   -0.7432 H   0  0  0  0  0  0  0  0  0  0  0  0
    1.1957   -3.9003    0.8334 H   0  0  0  0  0  0  0  0  0  0  0  0
  1 22  1  0  0  0  0
  2 15  1  0  0  0  0
  2 24  1  0  0  0  0
  3 21  1  0  0  0  0
  3 25  1  0  0  0  0
  4 29  2  0  0  0  0
  5 13  1  0  0  0  0
  5 14  1  0  0  0  0
  5 35  1  0  0  0  0
  6 15  2  0  0  0  0
  6 16  1  0  0  0  0
  7 13  2  0  0  0  0
  7 26  1  0  0  0  0
  8 18  1  0  0  0  0
  8 29  1  0  0  0  0
  8 44  1  0  0  0  0
  9 17  1  0  0  0  0
  9 26  2  0  0  0  0
 10 17  1  0  0  0  0
 10 46  1  0  0  0  0
 10 47  1  0  0  0  0
 11 27  1  0  0  0  0
 11 31  2  0  0  0  0
 12 13  1  0  0  0  0
 12 15  1  0  0  0  0
 12 17  2  0  0  0  0
 14 19  2  0  0  0  0
 14 20  1  0  0  0  0
 16 18  1  0  0  0  0
 16 24  2  0  0  0  0
 18 36  1  0  0  0  0
 18 37  1  0  0  0  0
 19 22  1  0  0  0  0
 19 38  1  0  0  0  0
 20 23  2  0  0  0  0
 20 39  1  0  0  0  0
 21 22  2  0  0  0  0
 21 23  1  0  0  0  0
 23 40  1  0  0  0  0
 24 41  1  0  0  0  0
 25 27  1  0  0  0  0
 25 42  1  0  0  0  0
 25 43  1  0  0  0  0
 26 45  1  0  0  0  0
 27 28  2  0  0  0  0
 28 30  1  0  0  0  0
 28 48  1  0  0  0  0
 29 33  1  0  0  0  0
 30 32  2  0  0  0  0
 30 49  1  0  0  0  0
 31 32  1  0  0  0  0
 31 50  1  0  0  0  0
 32 51  1  0  0  0  0
 33 34  2  0  0  0  0
 33 52  1  0  0  0  0
 34 53  1  0  0  0  0
 34 54  1  0  0  0  0
M  END
> <PUBCHEM_COMPOUND_CID>
53341082

> <PUBCHEM_CONFORMER_RMSD>
1.2

> <PUBCHEM_CONFORMER_DIVERSEORDER>
1
62
54
3
29
74
59
65
35
53
40
69
24
68
23
46
41
57
43
71
67
2
37
19
47
32
7
44
52
56
30
26
31
73
9
50
51
25
58
22
61
55
72
48
36
10
49
4
18
45
34
13
28
6
12
64
8
15
63
70
33
42
20
5
17
14
39
21
66
60
11
27
38
16

> <PUBCHEM_MMFF94_PARTIAL_CHARGES>
50
1 -0.18
10 -0.9
11 -0.62
12 0.05
13 0.41
14 0.1
15 0.43
16 0.05
17 0.41
18 0.48
19 -0.15
2 -0.28
20 -0.15
21 0.08
22 0.18
23 -0.15
24 -0.01
25 0.42
26 0.47
27 0.17
28 -0.15
29 0.62
3 -0.36
30 -0.15
31 0.16
32 -0.15
33 -0.14
34 -0.3
35 0.4
38 0.15
39 0.15
4 -0.57
40 0.15
41 0.15
44 0.37
45 0.15
46 0.4
47 0.4
48 0.15
49 0.15
5 -0.6
50 0.15
51 0.15
52 0.15
53 0.15
54 0.15
6 -0.57
7 -0.62
8 -0.73
9 -0.62

> <PUBCHEM_EFFECTIVE_ROTOR_COUNT>
10

> <PUBCHEM_PHARMACOPHORE_FEATURES>
14
1 10 cation
1 10 donor
1 11 acceptor
1 3 acceptor
1 34 hydrophobe
1 4 acceptor
1 5 donor
1 8 donor
3 5 7 13 cation
3 7 9 26 cation
5 2 6 15 16 24 rings
6 11 27 28 30 31 32 rings
6 14 19 20 21 22 23 rings
6 7 9 12 13 17 26 rings

> <PUBCHEM_HEAVY_ATOM_COUNT>
34

> <PUBCHEM_ATOM_DEF_STEREO_COUNT>
0

> <PUBCHEM_ATOM_UDEF_STEREO_COUNT>
0

> <PUBCHEM_BOND_DEF_STEREO_COUNT>
0

> <PUBCHEM_BOND_UDEF_STEREO_COUNT>
0

> <PUBCHEM_ISOTOPIC_ATOM_COUNT>
0

> <PUBCHEM_COMPONENT_COUNT>
1

> <PUBCHEM_CACTVS_TAUTO_COUNT>
26

> <PUBCHEM_CONFORMER_ID>
032DEB9A00000001

> <PUBCHEM_MMFF94_ENERGY>
106.623

> <PUBCHEM_FEATURE_SELFOVERLAP>
71.183

> <PUBCHEM_SHAPE_FINGERPRINT>
10290309 65 18048881788633119757
10319926 262 18342727525528955312
12202916 173 18272930570611210727
12838863 1 18196644314782418735
14394314 77 18410576141916546209
14659021 117 18343296007526646463
14725015 67 18268991071898773339
14844126 61 18336270136872861425
15021287 119 16877663474394803076
15297060 5 18343584027638007747
15347590 135 18129392522855130385
15439362 3 17832418705764555621
15927050 60 18340764837022773342
19311894 1 18121497131155439835
19611394 137 18272652385626914584
20771845 165 17535736405125676973
21033648 29 18050860922696289077
23516275 137 17973180439093777994
3383291 50 18261678172359281747
3882209 13 17048491533548844159
4073 2 18412830162138366716
45266715 3 18194104232610815949
653340 110 18411420630675198926
68570916 9 18334577984441904412
9896288 288 18342178843440670329
9982175 49 17676496089855581262

> <PUBCHEM_SHAPE_MULTIPOLES>
649.1
18.68
5.77
1.12
36.3
4.74
0.29
-4.34
-5.79
-8.69
-1.01
0.34
0.24
-0.11

> <PUBCHEM_SHAPE_SELFOVERLAP>
1401.412

> <PUBCHEM_SHAPE_VOLUME>
355.6

> <PUBCHEM_COORDINATE_TYPE>
2
5
10

$$$$
