24905229
  -OEChem-10052115143D

 39 42  0     0  0  0  0  0  0999 V2000
   -4.6333    0.0958    1.2784 O   0  0  0  0  0  0  0  0  0  0  0  0
   -3.4240    0.3347   -2.6114 O   0  0  0  0  0  0  0  0  0  0  0  0
    2.7895    1.0404   -0.0257 N   0  0  0  0  0  0  0  0  0  0  0  0
    1.5123    1.3918    0.2132 N   0  0  0  0  0  0  0  0  0  0  0  0
    4.1294   -0.9472   -0.3667 N   0  0  0  0  0  0  0  0  0  0  0  0
    2.7803   -2.9759   -0.2482 N   0  0  0  0  0  0  0  0  0  0  0  0
    0.4283   -2.9390    0.1568 N   0  0  0  0  0  0  0  0  0  0  0  0
    3.7997    2.0650   -0.1422 C   0  0  0  0  0  0  0  0  0  0  0  0
    1.7264   -0.8776    0.0501 C   0  0  0  0  0  0  0  0  0  0  0  0
    2.9733   -0.3062   -0.1324 C   0  0  0  0  0  0  0  0  0  0  0  0
    0.8699    0.2195    0.2583 C   0  0  0  0  0  0  0  0  0  0  0  0
   -0.5459    0.1899    0.5000 C   0  0  0  0  0  0  0  0  0  0  0  0
    3.5216    2.9983   -1.3232 C   0  0  0  0  0  0  0  0  0  0  0  0
    3.9481    2.8599    1.1575 C   0  0  0  0  0  0  0  0  0  0  0  0
    1.6510   -2.2651   -0.0145 C   0  0  0  0  0  0  0  0  0  0  0  0
   -1.4365    0.2406   -0.5731 C   0  0  0  0  0  0  0  0  0  0  0  0
   -1.0257    0.1093    1.8086 C   0  0  0  0  0  0  0  0  0  0  0  0
   -2.8111    0.2100   -0.3279 C   0  0  0  0  0  0  0  0  0  0  0  0
   -3.2925    0.1292    0.9807 C   0  0  0  0  0  0  0  0  0  0  0  0
   -2.3993    0.0789    2.0509 C   0  0  0  0  0  0  0  0  0  0  0  0
    3.9329   -2.2827   -0.4074 C   0  0  0  0  0  0  0  0  0  0  0  0
   -3.7753    0.2620   -1.4421 C   0  0  0  0  0  0  0  0  0  0  0  0
   -5.2021    0.2234   -1.0674 C   0  0  0  0  0  0  0  0  0  0  0  0
   -5.5170    0.1450    0.2279 C   0  0  0  0  0  0  0  0  0  0  0  0
    4.7550    1.5617   -0.3345 H   0  0  0  0  0  0  0  0  0  0  0  0
    2.5954    3.5663   -1.1817 H   0  0  0  0  0  0  0  0  0  0  0  0
    3.4238    2.4296   -2.2547 H   0  0  0  0  0  0  0  0  0  0  0  0
    4.3396    3.7153   -1.4500 H   0  0  0  0  0  0  0  0  0  0  0  0
    3.0383    3.4226    1.3946 H   0  0  0  0  0  0  0  0  0  0  0  0
    4.7748    3.5741    1.0814 H   0  0  0  0  0  0  0  0  0  0  0  0
    4.1554    2.1922    2.0011 H   0  0  0  0  0  0  0  0  0  0  0  0
   -1.0595    0.3026   -1.5914 H   0  0  0  0  0  0  0  0  0  0  0  0
   -0.3404    0.0685    2.6522 H   0  0  0  0  0  0  0  0  0  0  0  0
   -2.7639    0.0157    3.0724 H   0  0  0  0  0  0  0  0  0  0  0  0
    4.8175   -2.8825   -0.5927 H   0  0  0  0  0  0  0  0  0  0  0  0
   -0.4292   -2.4365    0.3323 H   0  0  0  0  0  0  0  0  0  0  0  0
    0.4181   -3.9487    0.1024 H   0  0  0  0  0  0  0  0  0  0  0  0
   -5.9545    0.2588   -1.8447 H   0  0  0  0  0  0  0  0  0  0  0  0
   -6.5361    0.1120    0.5879 H   0  0  0  0  0  0  0  0  0  0  0  0
  1 19  1  0  0  0  0
  1 24  1  0  0  0  0
  2 22  2  0  0  0  0
  3  4  1  0  0  0  0
  3  8  1  0  0  0  0
  3 10  1  0  0  0  0
  4 11  2  0  0  0  0
  5 10  2  0  0  0  0
  5 21  1  0  0  0  0
  6 15  1  0  0  0  0
  6 21  2  0  0  0  0
  7 15  1  0  0  0  0
  7 36  1  0  0  0  0
  7 37  1  0  0  0  0
  8 13  1  0  0  0  0
  8 14  1  0  0  0  0
  8 25  1  0  0  0  0
  9 10  1  0  0  0  0
  9 11  1  0  0  0  0
  9 15  2  0  0  0  0
 11 12  1  0  0  0  0
 12 16  2  0  0  0  0
 12 17  1  0  0  0  0
 13 26  1  0  0  0  0
 13 27  1  0  0  0  0
 13 28  1  0  0  0  0
 14 29  1  0  0  0  0
 14 30  1  0  0  0  0
 14 31  1  0  0  0  0
 16 18  1  0  0  0  0
 16 32  1  0  0  0  0
 17 20  2  0  0  0  0
 17 33  1  0  0  0  0
 18 19  2  0  0  0  0
 18 22  1  0  0  0  0
 19 20  1  0  0  0  0
 20 34  1  0  0  0  0
 21 35  1  0  0  0  0
 22 23  1  0  0  0  0
 23 24  2  0  0  0  0
 23 38  1  0  0  0  0
 24 39  1  0  0  0  0
M  END
> <PUBCHEM_COMPOUND_CID>
24905229

> <PUBCHEM_CONFORMER_RMSD>
0.6

> <PUBCHEM_CONFORMER_DIVERSEORDER>
1
4
5
6
3
2

> <PUBCHEM_MMFF94_PARTIAL_CHARGES>
29
1 -0.16
10 0.11
11 0.23
12 0.05
15 0.41
16 -0.15
17 -0.15
18 0.09
19 0.08
2 -0.57
20 -0.15
21 0.47
22 0.47
23 -0.14
24 -0.07
3 0.31
32 0.15
33 0.15
34 0.15
35 0.15
36 0.4
37 0.4
38 0.15
39 0.15
4 -0.71
5 -0.57
6 -0.62
7 -0.9
8 0.26

> <PUBCHEM_EFFECTIVE_ROTOR_COUNT>
2

> <PUBCHEM_PHARMACOPHORE_FEATURES>
12
1 1 acceptor
1 2 acceptor
1 4 acceptor
1 7 cation
1 7 donor
3 3 5 10 cation
3 5 6 21 cation
3 8 13 14 hydrophobe
5 3 4 9 10 11 rings
6 1 18 19 22 23 24 rings
6 12 16 17 18 19 20 rings
6 5 6 9 10 15 21 rings

> <PUBCHEM_HEAVY_ATOM_COUNT>
24

> <PUBCHEM_ATOM_DEF_STEREO_COUNT>
0

> <PUBCHEM_ATOM_UDEF_STEREO_COUNT>
0

> <PUBCHEM_BOND_DEF_STEREO_COUNT>
0

> <PUBCHEM_BOND_UDEF_STEREO_COUNT>
0

> <PUBCHEM_ISOTOPIC_ATOM_COUNT>
0

> <PUBCHEM_COMPONENT_COUNT>
1

> <PUBCHEM_CACTVS_TAUTO_COUNT>
5

> <PUBCHEM_CONFORMER_ID>
017C060D00000001

> <PUBCHEM_MMFF94_ENERGY>
61.0911

> <PUBCHEM_FEATURE_SELFOVERLAP>
61.204

> <PUBCHEM_SHAPE_FINGERPRINT>
11582403 64 17680677579467440120
11725454 13 17750778012526858096
12236239 1 17632296739761823299
12403259 415 17821452348281133221
12616971 3 17988929942275590619
12730499 353 18337117859578208113
13009979 54 17273422660269693946
13134695 92 18190463762374584710
13140716 1 18339364188490022154
13631057 29 17770207577491916935
13911987 19 18120668077965877884
13955234 65 18411980256640100410
15375358 24 17749388200070468161
15842332 3 17631749165812304273
15961568 22 16516258460188745212
16752209 62 16415194538798487087
17138139 8 17557677430035132255
17818456 19 17199964245241369225
17844677 252 18337394846931662773
1813 80 17842573855182313534
18186145 218 17676489393785372953
200 152 18200875072047395411
20511986 3 17560787815080109577
20600515 1 16153991365000915933
20645477 70 18407760322232753114
21033648 29 17822285782189676917
21065201 7 16588031199131434963
21709351 56 18199189494572409188
2255824 54 18343308037571793014
23557571 272 17167869638518267653
23559900 14 16732989695572720810
238 59 18335699412464449670
312423 11 18059306365570183753
341906 21 15719389529777031237
4340502 62 18341891951998451130
46194498 28 18260264127358888455
469060 322 17830740120559351635
474 4 18271806886522214520
495365 180 18408038537482260664
5281201 14 18260547779768252717
6034566 193 17829338230180347620
633830 44 18129965436646880444
70251023 43 18269557134990996346
7471813 234 18059855000740518536
77492 1 17632300042591583075
8272917 22 18412833464403630493
9981440 41 15547946229591706928

> <PUBCHEM_SHAPE_MULTIPOLES>
457.27
10.63
2.81
1.58
7.83
0.6
-0.09
-2.86
-1.88
-6.17
-0.31
1.82
-0.54
0.4

> <PUBCHEM_SHAPE_SELFOVERLAP>
1022.748

> <PUBCHEM_SHAPE_VOLUME>
241.7

> <PUBCHEM_COORDINATE_TYPE>
2
5
10

$$$$
