44570600
  -OEChem-10062122023D

 50 52  0     0  0  0  0  0  0999 V2000
   10.3059    2.6826   -1.0012 I   0  0  0  0  0  0  0  0  0  0  0  0
  -11.2941    2.5676   -0.0870 Cl  0  0  0  0  0  0  0  0  0  0  0  0
   -6.1983   -1.0974    0.1044 S   0  0  0  0  0  0  0  0  0  0  0  0
    4.2702    1.8835    0.7256 F   0  0  0  0  0  0  0  0  0  0  0  0
    1.6270    2.4901    0.6309 F   0  0  0  0  0  0  0  0  0  0  0  0
    7.5868   -1.1454    1.6290 F   0  0  0  0  0  0  0  0  0  0  0  0
   -5.9658   -1.4637    1.4923 O   0  0  0  0  0  0  0  0  0  0  0  0
   -6.3859   -2.1317   -0.9001 O   0  0  0  0  0  0  0  0  0  0  0  0
   -3.4256   -1.9457   -0.6312 O   0  0  0  0  0  0  0  0  0  0  0  0
    2.3302   -3.6695    0.1460 O   0  0  0  0  0  0  0  0  0  0  0  0
    4.3498   -3.1268   -0.7448 O   0  0  0  0  0  0  0  0  0  0  0  0
    5.1828   -0.6952    0.3047 N   0  0  0  0  0  0  0  0  0  0  0  0
   -2.5135    0.1318   -0.1554 N   0  0  0  0  0  0  0  0  0  0  0  0
   -1.2479   -0.3451   -0.1456 N   0  0  0  0  0  0  0  0  0  0  0  0
   -4.8866   -0.0386   -0.4041 C   0  0  0  0  0  0  0  0  0  0  0  0
   -7.6341   -0.0651    0.0507 C   0  0  0  0  0  0  0  0  0  0  0  0
    3.8029   -0.3969    0.2499 C   0  0  0  0  0  0  0  0  0  0  0  0
    2.8667   -1.3961   -0.0168 C   0  0  0  0  0  0  0  0  0  0  0  0
    1.0857    0.2275    0.1524 C   0  0  0  0  0  0  0  0  0  0  0  0
   -8.3874    0.0214   -1.1203 C   0  0  0  0  0  0  0  0  0  0  0  0
   -8.0128    0.6625    1.1788 C   0  0  0  0  0  0  0  0  0  0  0  0
   -3.5538   -0.7445   -0.4090 C   0  0  0  0  0  0  0  0  0  0  0  0
    1.5082   -1.0839   -0.0656 C   0  0  0  0  0  0  0  0  0  0  0  0
    3.3803    0.9145    0.4677 C   0  0  0  0  0  0  0  0  0  0  0  0
    2.0217    1.2267    0.4189 C   0  0  0  0  0  0  0  0  0  0  0  0
    6.3321    0.0619    0.0138 C   0  0  0  0  0  0  0  0  0  0  0  0
   -9.5191    0.8356   -1.1630 C   0  0  0  0  0  0  0  0  0  0  0  0
   -9.1445    1.4768    1.1361 C   0  0  0  0  0  0  0  0  0  0  0  0
   -0.3504    0.5537    0.0991 C   0  0  0  0  0  0  0  0  0  0  0  0
   -9.8976    1.5634   -0.0347 C   0  0  0  0  0  0  0  0  0  0  0  0
    7.5239   -0.1857    0.6950 C   0  0  0  0  0  0  0  0  0  0  0  0
    6.2788    1.0615   -0.9577 C   0  0  0  0  0  0  0  0  0  0  0  0
    3.2761   -2.7755   -0.2492 C   0  0  0  0  0  0  0  0  0  0  0  0
    8.6622    0.5663    0.4049 C   0  0  0  0  0  0  0  0  0  0  0  0
    7.4171    1.8135   -1.2479 C   0  0  0  0  0  0  0  0  0  0  0  0
    8.6089    1.5658   -0.5665 C   0  0  0  0  0  0  0  0  0  0  0  0
   -4.8681    0.8138    0.2822 H   0  0  0  0  0  0  0  0  0  0  0  0
   -5.0984    0.3134   -1.4179 H   0  0  0  0  0  0  0  0  0  0  0  0
   -8.1063   -0.5308   -2.0125 H   0  0  0  0  0  0  0  0  0  0  0  0
   -7.4364    0.6145    2.0983 H   0  0  0  0  0  0  0  0  0  0  0  0
    0.7770   -1.8570   -0.2883 H   0  0  0  0  0  0  0  0  0  0  0  0
    5.3888   -1.6234    0.6626 H   0  0  0  0  0  0  0  0  0  0  0  0
  -10.0956    0.8947   -2.0826 H   0  0  0  0  0  0  0  0  0  0  0  0
   -9.4268    2.0392    2.0224 H   0  0  0  0  0  0  0  0  0  0  0  0
   -0.6217    1.6104    0.2802 H   0  0  0  0  0  0  0  0  0  0  0  0
   -2.6565    1.1225    0.0156 H   0  0  0  0  0  0  0  0  0  0  0  0
    5.3728    1.2584   -1.5243 H   0  0  0  0  0  0  0  0  0  0  0  0
    9.5805    0.3562    0.9472 H   0  0  0  0  0  0  0  0  0  0  0  0
    7.3557    2.5833   -2.0130 H   0  0  0  0  0  0  0  0  0  0  0  0
    2.6131   -4.5951   -0.0138 H   0  0  0  0  0  0  0  0  0  0  0  0
  1 36  1  0  0  0  0
  2 30  1  0  0  0  0
  3  7  2  0  0  0  0
  3  8  2  0  0  0  0
  3 15  1  0  0  0  0
  3 16  1  0  0  0  0
  4 24  1  0  0  0  0
  5 25  1  0  0  0  0
  6 31  1  0  0  0  0
  9 22  2  0  0  0  0
 10 33  1  0  0  0  0
 10 50  1  0  0  0  0
 11 33  2  0  0  0  0
 12 17  1  0  0  0  0
 12 26  1  0  0  0  0
 12 42  1  0  0  0  0
 13 14  1  0  0  0  0
 13 22  1  0  0  0  0
 13 46  1  0  0  0  0
 14 29  2  0  0  0  0
 15 22  1  0  0  0  0
 15 37  1  0  0  0  0
 15 38  1  0  0  0  0
 16 20  2  0  0  0  0
 16 21  1  0  0  0  0
 17 18  2  0  0  0  0
 17 24  1  0  0  0  0
 18 23  1  0  0  0  0
 18 33  1  0  0  0  0
 19 23  2  0  0  0  0
 19 25  1  0  0  0  0
 19 29  1  0  0  0  0
 20 27  1  0  0  0  0
 20 39  1  0  0  0  0
 21 28  2  0  0  0  0
 21 40  1  0  0  0  0
 23 41  1  0  0  0  0
 24 25  2  0  0  0  0
 26 31  2  0  0  0  0
 26 32  1  0  0  0  0
 27 30  2  0  0  0  0
 27 43  1  0  0  0  0
 28 30  1  0  0  0  0
 28 44  1  0  0  0  0
 29 45  1  0  0  0  0
 31 34  1  0  0  0  0
 32 35  2  0  0  0  0
 32 47  1  0  0  0  0
 34 36  2  0  0  0  0
 34 48  1  0  0  0  0
 35 36  1  0  0  0  0
 35 49  1  0  0  0  0
M  END
> <PUBCHEM_COMPOUND_CID>
44570600

> <PUBCHEM_CONFORMER_RMSD>
1

> <PUBCHEM_CONFORMER_DIVERSEORDER>
1
193
251
157
154
232
142
81
144
156
102
45
180
160
203
179
170
37
165
208
173
236
80
79
168
216
32
219
145
182
49
244
202
245
46
212
161
67
152
164
227
107
222
153
90
231
223
240
248
242
247
148
197
238
54
171
205
118
204
36
5
12
226
91
159
217
133
229
56
250
201
246
183
136
117
224
121
47
215
122
181
139
64
40
111
174
218
178
155
214
98
221
235
176
199
143
108
132
69
249
115
74
175
17
82
126
150
61
209
211
213
206
172
84
200
134
198
25
137
166
191
33
194
31
188
225
228
110
34
112
158
192
105
184
230
233
75
51
131
14
18
60
163
113
24
177
3
207
220
57
106
210
237
185
119
55
28
162
130
169
52
11
190
43
114
129
99
83
146
138
87
167
73
239
21
241
103
196
92
58
19
100
35
141
186
97
243
41
23
151
95
66
96
109
140
22
127
30
124
48
72
63
116
70
123
135
7
4
195
16
50
128
86
39
189
10
71
120
68
147
8
88
101
187
93
27
234
85
125
94
65
29
42
62
9
78
104
6
149
44
13
26
53
15
77
89
59
76
38
20
2

> <PUBCHEM_MMFF94_PARTIAL_CHARGES>
48
1 -0.08
10 -0.65
11 -0.57
12 -0.6
13 -0.37
14 -0.51
15 0.17
16 -0.01
17 0.1
18 0.09
19 0.09
2 -0.18
20 -0.15
21 -0.15
22 0.57
23 -0.15
24 0.19
25 0.19
26 0.1
27 -0.15
28 -0.15
29 0.3
3 1.2
30 0.18
31 0.19
32 -0.15
33 0.63
34 -0.15
35 -0.15
36 0.08
39 0.15
4 -0.19
40 0.15
41 0.15
42 0.4
43 0.15
44 0.15
45 0.06
46 0.37
47 0.15
48 0.15
49 0.15
5 -0.19
50 0.5
6 -0.19
7 -0.65
8 -0.65
9 -0.57

> <PUBCHEM_EFFECTIVE_ROTOR_COUNT>
9

> <PUBCHEM_PHARMACOPHORE_FEATURES>
14
1 1 hydrophobe
1 10 acceptor
1 11 acceptor
1 12 cation
1 12 donor
1 13 donor
1 14 acceptor
1 7 acceptor
1 8 acceptor
1 9 acceptor
3 10 11 33 anion
6 16 20 21 27 28 30 rings
6 17 18 19 23 24 25 rings
6 26 31 32 34 35 36 rings

> <PUBCHEM_HEAVY_ATOM_COUNT>
36

> <PUBCHEM_ATOM_DEF_STEREO_COUNT>
0

> <PUBCHEM_ATOM_UDEF_STEREO_COUNT>
0

> <PUBCHEM_BOND_DEF_STEREO_COUNT>
1

> <PUBCHEM_BOND_UDEF_STEREO_COUNT>
0

> <PUBCHEM_ISOTOPIC_ATOM_COUNT>
0

> <PUBCHEM_COMPONENT_COUNT>
1

> <PUBCHEM_CACTVS_TAUTO_COUNT>
11

> <PUBCHEM_CONFORMER_ID>
02A817E800000001

> <PUBCHEM_MMFF94_ENERGY>
96.0255

> <PUBCHEM_FEATURE_SELFOVERLAP>
71.129

> <PUBCHEM_SHAPE_FINGERPRINT>
10533779 47 15574709158227772912
10580692 12 18413106152958616565
10625338 86 17603863374375457789
11181472 205 18341620274370111433
12013929 94 18266180716152638531
12089408 11 18334853939382942943
12144603 126 18410292518764675075
12522641 33 18131356310941615326
12664476 115 18334570240468137789
13165053 371 18339077215893031408
13553643 46 17676486147012365381
13947947 74 18341332283373585944
14040222 383 18339920540672888267
14118638 360 17846222107218107097
15183329 4 18202562861725879499
15198563 99 15913062997188976240
15439362 3 17979071914686084168
15461852 350 15123788488385747593
15510794 2 17967535671430803099
16087824 20 18413671305144175016
1754911 235 18131354132580617652
19315958 150 18335706018330314495
21792934 111 18343576357723092184
21895431 317 9367076540501712764
22149856 69 18272084964511914994
335352 9 18273212027948745301
4017518 198 15985108535158466533
4073 2 18334859472129313899
4149490 64 8286186250327226309
45377200 153 15123499346649620399
5028188 123 17988080113923413404
5381727 24 9007064556473287212
6009941 240 18259989293198501171
6691757 9 16558476374713538903

> <PUBCHEM_SHAPE_MULTIPOLES>
692.41
42.34
2.93
1.08
48.66
1.18
0.04
-31.08
-3.42
-2.54
-0.42
0.28
-0.11
-1.89

> <PUBCHEM_SHAPE_SELFOVERLAP>
1455.846

> <PUBCHEM_SHAPE_VOLUME>
393.4

> <PUBCHEM_COORDINATE_TYPE>
2
5
10

$$$$
