49830479
  -OEChem-10052115183D

 42 44  0     1  0  0  0  0  0999 V2000
    3.5903   -2.4149    1.6337 O   0  0  0  0  0  0  0  0  0  0  0  0
    1.5432    0.0248   -2.2942 O   0  0  0  0  0  0  0  0  0  0  0  0
    1.9332   -1.0208   -0.2615 N   0  0  0  0  0  0  0  0  0  0  0  0
   -7.1017    0.4133    0.7704 N   0  0  0  0  0  0  0  0  0  0  0  0
    3.3544   -1.2125   -0.4414 C   0  0  1  0  0  0  0  0  0  0  0  0
    4.1246   -0.0041    0.0455 C   0  0  0  0  0  0  0  0  0  0  0  0
    3.8141   -2.5091    0.2305 C   0  0  0  0  0  0  0  0  0  0  0  0
    1.1085   -0.4068   -1.2115 C   0  0  0  0  0  0  0  0  0  0  0  0
   -0.2983   -0.2660   -0.8720 C   0  0  0  0  0  0  0  0  0  0  0  0
    3.6660    0.7185    1.1470 C   0  0  0  0  0  0  0  0  0  0  0  0
    5.2938    0.3867   -0.6071 C   0  0  0  0  0  0  0  0  0  0  0  0
   -2.9974    0.0039   -0.2207 C   0  0  0  0  0  0  0  0  0  0  0  0
   -1.0506    0.7672   -1.4309 C   0  0  0  0  0  0  0  0  0  0  0  0
   -0.8954   -1.1641    0.0127 C   0  0  0  0  0  0  0  0  0  0  0  0
   -2.4001    0.9021   -1.1053 C   0  0  0  0  0  0  0  0  0  0  0  0
   -2.2450   -1.0290    0.3383 C   0  0  0  0  0  0  0  0  0  0  0  0
    4.3765    1.8320    1.5958 C   0  0  0  0  0  0  0  0  0  0  0  0
    6.0044    1.5000   -0.1582 C   0  0  0  0  0  0  0  0  0  0  0  0
   -4.3970    0.1441    0.1173 C   0  0  0  0  0  0  0  0  0  0  0  0
    5.5456    2.2227    0.9431 C   0  0  0  0  0  0  0  0  0  0  0  0
   -4.9928    1.4005    0.1199 C   0  0  0  0  0  0  0  0  0  0  0  0
   -5.1521   -0.9779    0.4409 C   0  0  0  0  0  0  0  0  0  0  0  0
   -6.3360    1.4807    0.4506 C   0  0  0  0  0  0  0  0  0  0  0  0
   -6.4882   -0.7913    0.7571 C   0  0  0  0  0  0  0  0  0  0  0  0
    3.5266   -1.3154   -1.5207 H   0  0  0  0  0  0  0  0  0  0  0  0
    3.2485   -3.3662   -0.1502 H   0  0  0  0  0  0  0  0  0  0  0  0
    4.8820   -2.6846    0.0628 H   0  0  0  0  0  0  0  0  0  0  0  0
    1.5535   -1.2711    0.6458 H   0  0  0  0  0  0  0  0  0  0  0  0
    2.7670    0.4333    1.6861 H   0  0  0  0  0  0  0  0  0  0  0  0
    5.6628   -0.1689   -1.4651 H   0  0  0  0  0  0  0  0  0  0  0  0
   -0.6042    1.4761   -2.1235 H   0  0  0  0  0  0  0  0  0  0  0  0
   -0.3528   -1.9965    0.4510 H   0  0  0  0  0  0  0  0  0  0  0  0
   -2.9531    1.7043   -1.5862 H   0  0  0  0  0  0  0  0  0  0  0  0
   -2.6616   -1.7375    1.0491 H   0  0  0  0  0  0  0  0  0  0  0  0
    4.0213    2.3931    2.4552 H   0  0  0  0  0  0  0  0  0  0  0  0
    6.9152    1.8039   -0.6659 H   0  0  0  0  0  0  0  0  0  0  0  0
    6.0993    3.0890    1.2930 H   0  0  0  0  0  0  0  0  0  0  0  0
    3.8914   -3.2518    2.0265 H   0  0  0  0  0  0  0  0  0  0  0  0
   -4.4564    2.3183   -0.0945 H   0  0  0  0  0  0  0  0  0  0  0  0
   -4.7588   -1.9885    0.4303 H   0  0  0  0  0  0  0  0  0  0  0  0
   -6.8463    2.4380    0.4744 H   0  0  0  0  0  0  0  0  0  0  0  0
   -7.1226   -1.6347    1.0096 H   0  0  0  0  0  0  0  0  0  0  0  0
  1  7  1  0  0  0  0
  1 38  1  0  0  0  0
  2  8  2  0  0  0  0
  3  5  1  0  0  0  0
  3  8  1  0  0  0  0
  3 28  1  0  0  0  0
  4 23  2  0  0  0  0
  4 24  1  0  0  0  0
  5  6  1  0  0  0  0
  5  7  1  0  0  0  0
  5 25  1  0  0  0  0
  6 10  2  0  0  0  0
  6 11  1  0  0  0  0
  7 26  1  0  0  0  0
  7 27  1  0  0  0  0
  8  9  1  0  0  0  0
  9 13  2  0  0  0  0
  9 14  1  0  0  0  0
 10 17  1  0  0  0  0
 10 29  1  0  0  0  0
 11 18  2  0  0  0  0
 11 30  1  0  0  0  0
 12 15  2  0  0  0  0
 12 16  1  0  0  0  0
 12 19  1  0  0  0  0
 13 15  1  0  0  0  0
 13 31  1  0  0  0  0
 14 16  2  0  0  0  0
 14 32  1  0  0  0  0
 15 33  1  0  0  0  0
 16 34  1  0  0  0  0
 17 20  2  0  0  0  0
 17 35  1  0  0  0  0
 18 20  1  0  0  0  0
 18 36  1  0  0  0  0
 19 21  2  0  0  0  0
 19 22  1  0  0  0  0
 20 37  1  0  0  0  0
 21 23  1  0  0  0  0
 21 39  1  0  0  0  0
 22 24  2  0  0  0  0
 22 40  1  0  0  0  0
 23 41  1  0  0  0  0
 24 42  1  0  0  0  0
M  END
> <PUBCHEM_COMPOUND_CID>
49830479

> <PUBCHEM_CONFORMER_RMSD>
0.8

> <PUBCHEM_CONFORMER_DIVERSEORDER>
1
8
14
15
11
17
3
16
10
12
7
6
5
9
4
2
13

> <PUBCHEM_MMFF94_PARTIAL_CHARGES>
37
1 -0.68
10 -0.15
11 -0.15
13 -0.15
14 -0.15
15 -0.15
16 -0.15
17 -0.15
18 -0.15
2 -0.57
20 -0.15
21 -0.15
22 -0.15
23 0.16
24 0.16
28 0.37
29 0.15
3 -0.73
30 0.15
31 0.15
32 0.15
33 0.15
34 0.15
35 0.15
36 0.15
37 0.15
38 0.4
39 0.15
4 -0.62
40 0.15
41 0.15
42 0.15
5 0.44
6 -0.14
7 0.28
8 0.54
9 0.09

> <PUBCHEM_EFFECTIVE_ROTOR_COUNT>
6

> <PUBCHEM_PHARMACOPHORE_FEATURES>
8
1 1 acceptor
1 1 donor
1 2 acceptor
1 3 donor
1 4 acceptor
6 4 19 21 22 23 24 rings
6 6 10 11 17 18 20 rings
6 9 12 13 14 15 16 rings

> <PUBCHEM_HEAVY_ATOM_COUNT>
24

> <PUBCHEM_ATOM_DEF_STEREO_COUNT>
0

> <PUBCHEM_ATOM_UDEF_STEREO_COUNT>
1

> <PUBCHEM_BOND_DEF_STEREO_COUNT>
0

> <PUBCHEM_BOND_UDEF_STEREO_COUNT>
0

> <PUBCHEM_ISOTOPIC_ATOM_COUNT>
0

> <PUBCHEM_COMPONENT_COUNT>
1

> <PUBCHEM_CACTVS_TAUTO_COUNT>
2

> <PUBCHEM_CONFORMER_ID>
02F85A4F00000001

> <PUBCHEM_MMFF94_ENERGY>
74.3009

> <PUBCHEM_FEATURE_SELFOVERLAP>
40.599

> <PUBCHEM_SHAPE_FINGERPRINT>
10 15 18335138721558272729
10165383 225 18334862749515797756
10447042 23 13479129108137392572
10670039 82 15410627964431036088
11828532 37 12966835888353105637
11991303 11 15769487716551447045
12403259 415 18261388893183374637
12596602 18 18411140217024500083
12616971 3 17846203428627181918
12670543 26 10592047951280614789
12730499 353 18411421717924170178
12788726 201 17275110487552741080
12954195 1 9150633287380752239
13073987 5 18335143064344949099
13533116 47 18336828585083871458
13668630 136 11746929884909238192
13685833 64 12179843909612168061
13955234 65 18341608171400457394
14251732 16 18342740754075374371
14251740 57 14852152980823040384
14251751 18 12612760137491325273
14251764 75 17630315579213647536
14341114 176 18412547600033848180
14461889 52 18114749333763709410
14565420 104 18336540629787085696
146900 427 18342453746843111490
14840074 17 16773798117025010625
14933364 13 18273218603464482609
15183329 4 10880002353855184461
15475509 35 17241315856077395506
16760501 71 18341331201158514657
16992610 120 17751095794344633484
17857418 61 14490191630934054401
1813 80 15864075347023510055
18335252 114 16702021963461623456
20511986 3 18187639177417141783
20567600 247 12829491480307747249
21033648 29 18058721541896872352
21130935 74 18334300825791223619
21315764 119 13614252493994972228
21623969 137 13623523563060123232
21641784 216 15051746261187086907
21792934 111 17822844278525658829
21859007 373 16661189383424748565
22061861 79 8430316835749944969
22122407 14 17846789528190611040
2215653 11 10592046873059297964
22224240 67 17894629305718053098
23559900 14 18262813877596930614
2916195 48 18342739615930042561
29717793 49 9151174263742988206
312425 54 18259990336511212811
3383291 50 17168720742740387139
34797466 226 17561091289258754743
3663271 9 18410859841685985163
397830 11 18129952294611587083
4058900 60 15984841298183171927
4073 2 18261116325911430715
4340502 62 18261108587050016162
5104073 3 18115300060229409457
5718773 13 7853038055992903256
6438161 24 10159707854652488580
9841814 1 15791739607014324462
9862260 156 14404912371391999324

> <PUBCHEM_SHAPE_MULTIPOLES>
472.21
17.96
2.08
1.39
13.45
0.25
-0.26
-6.77
6.05
-2.75
0.8
-0.9
-0.05
0.63

> <PUBCHEM_SHAPE_SELFOVERLAP>
1027.143

> <PUBCHEM_SHAPE_VOLUME>
254.8

> <PUBCHEM_COORDINATE_TYPE>
2
5
10

$$$$
