24905316
  -OEChem-10052115143D

 46 49  0     1  0  0  0  0  0999 V2000
    4.1604    0.8947    2.3073 O   0  0  0  0  0  0  0  0  0  0  0  0
    5.3652    1.5238   -0.1170 O   0  0  0  0  0  0  0  0  0  0  0  0
   -2.0135   -0.2400    0.0991 N   0  0  0  0  0  0  0  0  0  0  0  0
   -0.9190    0.5433    0.1057 N   0  0  0  0  0  0  0  0  0  0  0  0
   -2.6130   -2.5817   -0.0393 N   0  0  0  0  0  0  0  0  0  0  0  0
   -0.6428   -4.0076   -0.2276 N   0  0  0  0  0  0  0  0  0  0  0  0
    1.5798   -3.1382   -0.2639 N   0  0  0  0  0  0  0  0  0  0  0  0
   -3.3834    0.3920    0.2048 C   0  0  2  0  0  0  0  0  0  0  0  0
   -4.5288    2.4605   -0.3348 C   0  0  1  0  0  0  0  0  0  0  0  0
   -3.6784    1.3561   -0.9595 C   0  0  0  0  0  0  0  0  0  0  0  0
   -3.6132    1.2098    1.4930 C   0  0  0  0  0  0  0  0  0  0  0  0
   -3.8836    2.6394    1.0350 C   0  0  0  0  0  0  0  0  0  0  0  0
   -4.5493    3.7374   -1.1568 C   0  0  0  0  0  0  0  0  0  0  0  0
   -1.7317   -1.5696   -0.0072 C   0  0  0  0  0  0  0  0  0  0  0  0
   -0.3527   -1.6635   -0.0752 C   0  0  0  0  0  0  0  0  0  0  0  0
    0.0891   -0.3293   -0.0008 C   0  0  0  0  0  0  0  0  0  0  0  0
    0.1894   -2.9393   -0.1892 C   0  0  0  0  0  0  0  0  0  0  0  0
    1.4491    0.1471   -0.0279 C   0  0  0  0  0  0  0  0  0  0  0  0
   -1.9733   -3.7659   -0.1514 C   0  0  0  0  0  0  0  0  0  0  0  0
    2.1602    0.2934    1.1631 C   0  0  0  0  0  0  0  0  0  0  0  0
    2.0538    0.4627   -1.2446 C   0  0  0  0  0  0  0  0  0  0  0  0
    3.4762    0.7552    1.1375 C   0  0  0  0  0  0  0  0  0  0  0  0
    3.3697    0.9248   -1.2701 C   0  0  0  0  0  0  0  0  0  0  0  0
    4.0809    1.0709   -0.0791 C   0  0  0  0  0  0  0  0  0  0  0  0
    5.9090    1.8239   -1.4010 C   0  0  0  0  0  0  0  0  0  0  0  0
   -4.0899   -0.4465    0.1821 H   0  0  0  0  0  0  0  0  0  0  0  0
   -5.5575    2.0981   -0.2083 H   0  0  0  0  0  0  0  0  0  0  0  0
   -4.2096    0.8481   -1.7718 H   0  0  0  0  0  0  0  0  0  0  0  0
   -2.7572    1.7712   -1.3857 H   0  0  0  0  0  0  0  0  0  0  0  0
   -2.7765    1.1628    2.1972 H   0  0  0  0  0  0  0  0  0  0  0  0
   -4.4990    0.8212    2.0104 H   0  0  0  0  0  0  0  0  0  0  0  0
   -4.5303    3.1779    1.7343 H   0  0  0  0  0  0  0  0  0  0  0  0
   -2.9379    3.1892    0.9542 H   0  0  0  0  0  0  0  0  0  0  0  0
   -3.5404    4.1368   -1.3048 H   0  0  0  0  0  0  0  0  0  0  0  0
   -5.1463    4.5076   -0.6577 H   0  0  0  0  0  0  0  0  0  0  0  0
   -4.9874    3.5539   -2.1433 H   0  0  0  0  0  0  0  0  0  0  0  0
   -2.6106   -4.6430   -0.1849 H   0  0  0  0  0  0  0  0  0  0  0  0
    1.6904    0.0477    2.1134 H   0  0  0  0  0  0  0  0  0  0  0  0
    1.5121    0.3535   -2.1813 H   0  0  0  0  0  0  0  0  0  0  0  0
    2.2243   -2.3619   -0.2383 H   0  0  0  0  0  0  0  0  0  0  0  0
    1.9320   -4.0826   -0.3464 H   0  0  0  0  0  0  0  0  0  0  0  0
    3.7745    1.1503   -2.2506 H   0  0  0  0  0  0  0  0  0  0  0  0
    3.5846    0.6301    3.0451 H   0  0  0  0  0  0  0  0  0  0  0  0
    6.9360    2.1695   -1.2432 H   0  0  0  0  0  0  0  0  0  0  0  0
    5.3688    2.6439   -1.8864 H   0  0  0  0  0  0  0  0  0  0  0  0
    5.9677    0.9313   -2.0331 H   0  0  0  0  0  0  0  0  0  0  0  0
  1 22  1  0  0  0  0
  1 43  1  0  0  0  0
  2 24  1  0  0  0  0
  2 25  1  0  0  0  0
  3  4  1  0  0  0  0
  3  8  1  0  0  0  0
  3 14  1  0  0  0  0
  4 16  2  0  0  0  0
  5 14  2  0  0  0  0
  5 19  1  0  0  0  0
  6 17  1  0  0  0  0
  6 19  2  0  0  0  0
  7 17  1  0  0  0  0
  7 40  1  0  0  0  0
  7 41  1  0  0  0  0
  8 10  1  0  0  0  0
  8 11  1  0  0  0  0
  8 26  1  0  0  0  0
  9 10  1  0  0  0  0
  9 12  1  0  0  0  0
  9 13  1  0  0  0  0
  9 27  1  0  0  0  0
 10 28  1  0  0  0  0
 10 29  1  0  0  0  0
 11 12  1  0  0  0  0
 11 30  1  0  0  0  0
 11 31  1  0  0  0  0
 12 32  1  0  0  0  0
 12 33  1  0  0  0  0
 13 34  1  0  0  0  0
 13 35  1  0  0  0  0
 13 36  1  0  0  0  0
 14 15  1  0  0  0  0
 15 16  1  0  0  0  0
 15 17  2  0  0  0  0
 16 18  1  0  0  0  0
 18 20  2  0  0  0  0
 18 21  1  0  0  0  0
 19 37  1  0  0  0  0
 20 22  1  0  0  0  0
 20 38  1  0  0  0  0
 21 23  2  0  0  0  0
 21 39  1  0  0  0  0
 22 24  2  0  0  0  0
 23 24  1  0  0  0  0
 23 42  1  0  0  0  0
 25 44  1  0  0  0  0
 25 45  1  0  0  0  0
 25 46  1  0  0  0  0
M  END
> <PUBCHEM_COMPOUND_CID>
24905316

> <PUBCHEM_CONFORMER_RMSD>
0.8

> <PUBCHEM_CONFORMER_DIVERSEORDER>
1
4
23
13
20
12
22
19
10
17
11
3
18
24
8
21
5
9
16
2
15
7
14
6

> <PUBCHEM_MMFF94_PARTIAL_CHARGES>
26
1 -0.53
14 0.11
16 0.23
17 0.41
18 0.05
19 0.47
2 -0.36
20 -0.15
21 -0.15
22 0.08
23 -0.15
24 0.08
25 0.28
3 0.31
37 0.15
38 0.15
39 0.15
4 -0.71
40 0.4
41 0.4
42 0.15
43 0.45
5 -0.57
6 -0.62
7 -0.9
8 0.26

> <PUBCHEM_EFFECTIVE_ROTOR_COUNT>
4

> <PUBCHEM_PHARMACOPHORE_FEATURES>
11
1 1 donor
1 2 acceptor
1 4 acceptor
1 7 cation
1 7 donor
3 3 5 14 cation
3 5 6 19 cation
5 3 4 14 15 16 rings
5 8 9 10 11 12 rings
6 18 20 21 22 23 24 rings
6 5 6 14 15 17 19 rings

> <PUBCHEM_HEAVY_ATOM_COUNT>
25

> <PUBCHEM_ATOM_DEF_STEREO_COUNT>
0

> <PUBCHEM_ATOM_UDEF_STEREO_COUNT>
2

> <PUBCHEM_BOND_DEF_STEREO_COUNT>
0

> <PUBCHEM_BOND_UDEF_STEREO_COUNT>
0

> <PUBCHEM_ISOTOPIC_ATOM_COUNT>
0

> <PUBCHEM_COMPONENT_COUNT>
1

> <PUBCHEM_CACTVS_TAUTO_COUNT>
15

> <PUBCHEM_CONFORMER_ID>
017C066400000001

> <PUBCHEM_MMFF94_ENERGY>
73.1137

> <PUBCHEM_FEATURE_SELFOVERLAP>
56.101

> <PUBCHEM_SHAPE_FINGERPRINT>
10165383 225 18270699618288899681
10411042 1 17546731911749964503
105312 117 18410578383266859308
11370993 144 14418398958773725925
11582403 64 17057767855395492058
11725454 13 17130395022184155568
11796584 16 18343029900444022238
12107183 9 18262226726182797394
12236239 1 17605546867931513318
12390115 104 18342752818332540961
12422481 6 17823969053145775488
12788726 201 18045496675471777307
13134695 92 17256243744911247111
13140716 1 18266181634784776443
13878862 14 17616246980397687133
13965767 371 18116136801610878152
14178342 30 18337946904510463146
14294032 229 18411142450829467125
14508225 48 17766272455520031423
14713325 29 18264218074231103675
14848178 96 18268710502701213113
15042514 8 17977674426379130107
15230672 131 18336273358600162422
15439362 3 18194683661667416548
16087824 20 18338799035794033751
16752209 62 18267296728189846690
167882 2 18265333893728227167
16988056 13 17038089629495293733
19784866 34 18270124500635268537
21033648 29 18413384332662346328
21065201 7 18199188567603317298
21279426 13 18201454541020180358
21304303 282 17983539079720040343
22122407 14 15936403485462081119
22149856 69 18120394077561584641
2255824 54 17909829830444327055
22907989 373 18120648295567351015
23557571 272 18129955605609138932
23559900 14 18202014231172239772
283562 15 18267021842057133883
3091708 16 9195502174913813299
469060 322 18337686320950473779
474 4 18196364815442158187
495365 180 18122900933078863377
57124632 79 18194117421964225219
57527295 17 16988571160389971486
59755656 520 17987537981813495587
6327066 14 18333447625752367013
633830 44 17773047345417031369
7808743 9 18336833082109828468
84936 182 17985543351920253249
9849439 229 18339357453586221489
9862522 239 18113611266594143157
9981440 41 18337945706636269491

> <PUBCHEM_SHAPE_MULTIPOLES>
477.84
10.56
4.54
1.34
6.27
4.21
-0.4
-13.32
0.93
-4.4
1.07
0.88
-0.92
0

> <PUBCHEM_SHAPE_SELFOVERLAP>
1047.612

> <PUBCHEM_SHAPE_VOLUME>
259.9

> <PUBCHEM_COORDINATE_TYPE>
2
5
10

$$$$
