49830643
  -OEChem-10062121543D

 34 37  0     0  0  0  0  0  0999 V2000
   -2.0910    1.5732   -0.6736 S   0  0  0  0  0  0  0  0  0  0  0  0
    0.4226    1.1529    0.0598 N   0  0  0  0  0  0  0  0  0  0  0  0
   -1.1768   -0.5546    0.4901 N   0  0  0  0  0  0  0  0  0  0  0  0
    2.0552    2.6578    0.1583 N   0  0  0  0  0  0  0  0  0  0  0  0
   -0.2202    3.4178    0.2048 N   0  0  0  0  0  0  0  0  0  0  0  0
    3.7700   -3.8463   -0.2607 N   0  0  0  0  0  0  0  0  0  0  0  0
   -5.3779   -0.7757    0.0725 C   0  0  0  0  0  0  0  0  0  0  0  0
   -4.6055   -2.1068    0.0531 C   0  0  0  0  0  0  0  0  0  0  0  0
   -4.6316    0.3391   -0.6835 C   0  0  0  0  0  0  0  0  0  0  0  0
   -3.2220   -1.9793    0.7157 C   0  0  0  0  0  0  0  0  0  0  0  0
   -3.1828    0.3132   -0.3340 C   0  0  0  0  0  0  0  0  0  0  0  0
   -2.5271   -0.7371    0.2776 C   0  0  0  0  0  0  0  0  0  0  0  0
   -0.8351    0.6289    0.0264 C   0  0  0  0  0  0  0  0  0  0  0  0
    1.5883    0.4319    0.0142 C   0  0  0  0  0  0  0  0  0  0  0  0
    0.7537    2.4765    0.1454 C   0  0  0  0  0  0  0  0  0  0  0  0
    2.5927    1.3938    0.0772 C   0  0  0  0  0  0  0  0  0  0  0  0
    1.8425   -0.9371   -0.0739 C   0  0  0  0  0  0  0  0  0  0  0  0
    3.9363    0.9834    0.0521 C   0  0  0  0  0  0  0  0  0  0  0  0
    3.1854   -1.3277   -0.0977 C   0  0  0  0  0  0  0  0  0  0  0  0
    4.2153   -0.3861   -0.0359 C   0  0  0  0  0  0  0  0  0  0  0  0
    3.5082   -2.7180   -0.1877 C   0  0  0  0  0  0  0  0  0  0  0  0
   -5.5314   -0.4698    1.1156 H   0  0  0  0  0  0  0  0  0  0  0  0
   -6.3714   -0.9132   -0.3691 H   0  0  0  0  0  0  0  0  0  0  0  0
   -4.4836   -2.4317   -0.9883 H   0  0  0  0  0  0  0  0  0  0  0  0
   -5.1850   -2.8834    0.5649 H   0  0  0  0  0  0  0  0  0  0  0  0
   -5.0805    1.3090   -0.4422 H   0  0  0  0  0  0  0  0  0  0  0  0
   -4.7413    0.1806   -1.7633 H   0  0  0  0  0  0  0  0  0  0  0  0
   -2.6156   -2.8598    0.4769 H   0  0  0  0  0  0  0  0  0  0  0  0
   -3.3416   -1.9471    1.8052 H   0  0  0  0  0  0  0  0  0  0  0  0
    1.0443   -1.6693   -0.1297 H   0  0  0  0  0  0  0  0  0  0  0  0
    4.7435    1.7074    0.0996 H   0  0  0  0  0  0  0  0  0  0  0  0
    5.2559   -0.7044   -0.0554 H   0  0  0  0  0  0  0  0  0  0  0  0
    0.0153    4.4041    0.2561 H   0  0  0  0  0  0  0  0  0  0  0  0
   -1.2107    3.2118    0.2597 H   0  0  0  0  0  0  0  0  0  0  0  0
  1 11  1  0  0  0  0
  1 13  1  0  0  0  0
  2 13  1  0  0  0  0
  2 14  1  0  0  0  0
  2 15  1  0  0  0  0
  3 12  1  0  0  0  0
  3 13  2  0  0  0  0
  4 15  2  0  0  0  0
  4 16  1  0  0  0  0
  5 15  1  0  0  0  0
  5 33  1  0  0  0  0
  5 34  1  0  0  0  0
  6 21  3  0  0  0  0
  7  8  1  0  0  0  0
  7  9  1  0  0  0  0
  7 22  1  0  0  0  0
  7 23  1  0  0  0  0
  8 10  1  0  0  0  0
  8 24  1  0  0  0  0
  8 25  1  0  0  0  0
  9 11  1  0  0  0  0
  9 26  1  0  0  0  0
  9 27  1  0  0  0  0
 10 12  1  0  0  0  0
 10 28  1  0  0  0  0
 10 29  1  0  0  0  0
 11 12  2  0  0  0  0
 14 16  2  0  0  0  0
 14 17  1  0  0  0  0
 16 18  1  0  0  0  0
 17 19  2  0  0  0  0
 17 30  1  0  0  0  0
 18 20  2  0  0  0  0
 18 31  1  0  0  0  0
 19 20  1  0  0  0  0
 19 21  1  0  0  0  0
 20 32  1  0  0  0  0
M  END
> <PUBCHEM_COMPOUND_CID>
49830643

> <PUBCHEM_CONFORMER_RMSD>
0.6

> <PUBCHEM_CONFORMER_DIVERSEORDER>
1
3
4
2
5

> <PUBCHEM_MMFF94_PARTIAL_CHARGES>
24
1 -0.08
10 0.18
11 -0.14
12 0.05
13 0.3
14 -0.15
15 0.27
16 0.23
17 -0.15
18 -0.15
19 0.07
2 0.38
20 -0.15
21 0.48
3 -0.57
30 0.15
31 0.15
32 0.15
33 0.4
34 0.4
4 -0.57
5 -0.88
6 -0.56
9 0.18

> <PUBCHEM_EFFECTIVE_ROTOR_COUNT>
1.8

> <PUBCHEM_PHARMACOPHORE_FEATURES>
7
1 5 donor
1 6 acceptor
4 2 4 5 15 cation
5 1 3 11 12 13 rings
5 2 4 14 15 16 rings
6 14 16 17 18 19 20 rings
6 7 8 9 10 11 12 rings

> <PUBCHEM_HEAVY_ATOM_COUNT>
21

> <PUBCHEM_ATOM_DEF_STEREO_COUNT>
0

> <PUBCHEM_ATOM_UDEF_STEREO_COUNT>
0

> <PUBCHEM_BOND_DEF_STEREO_COUNT>
0

> <PUBCHEM_BOND_UDEF_STEREO_COUNT>
0

> <PUBCHEM_ISOTOPIC_ATOM_COUNT>
0

> <PUBCHEM_COMPONENT_COUNT>
1

> <PUBCHEM_CACTVS_TAUTO_COUNT>
2

> <PUBCHEM_CONFORMER_ID>
02F85AF300000001

> <PUBCHEM_MMFF94_ENERGY>
45.6235

> <PUBCHEM_FEATURE_SELFOVERLAP>
35.698

> <PUBCHEM_SHAPE_FINGERPRINT>
10693767 8 18198599130787581495
10967382 1 18338797935163300888
116883 192 18338797797561018516
11963148 33 18336256938381448978
12107183 9 18055084168464152113
12506688 2 18411984671639626944
12553582 1 18341885312348484614
12596602 18 16773237425912864899
13140716 1 18055352427657804344
13533116 47 18343585170510498067
13544653 18 18408611344021577110
138480 1 18410856589894945424
13955234 65 18199186367904952433
14790565 3 17616538796969734012
14863182 85 18337396062538951492
14866123 147 17764309440495387089
15196674 1 18409166623448185877
15352361 1 18410573942376280262
15422964 175 18410848859111879852
15635459 17 18408325518417367922
15927050 60 17548416360122896044
17492 89 18267020557777438374
1813 80 17167864183994392909
19141452 34 18339082700623218839
19930381 70 18338234860540459035
200 152 18131350860374460137
20281475 54 18338522949750344640
20645477 70 18336262443847922971
21033650 10 16661490584505877460
21065198 57 18410574033092534077
21250096 35 18413669106220665555
21267235 1 18411145748419968390
21279426 13 18262792944516770653
21285901 2 17967525787708566445
21478907 32 18267023851594906593
221357 26 18408034118340773093
221490 88 18335987579005319979
2215653 11 18409441488939850287
22224240 67 17986659571487911904
23379529 103 18198912400890407774
23557571 272 17603857927644815173
23559900 14 18409162246729123600
2871803 45 18260545636468736810
3004659 81 18113617850926823874
314173 41 18334576849599204282
314194 84 18342174505344528703
335352 9 18338234835308141229
33824 294 18339922714299801274
3421961 26 18413106165020663818
4214541 1 18409448098820749781
46194498 28 17676769876503189749
463206 1 18338236071526077190
5104073 3 18270960146140233449
59755656 215 18409450310734084774
6433294 58 18409730698467598938
6443956 14 18408605863653824508
6669772 16 18056210309264197004
7364860 26 18267303320843242360
9709674 26 18334577988103589619

> <PUBCHEM_SHAPE_MULTIPOLES>
411.11
10.03
3.56
0.7
6.12
0.69
-0.02
6.49
-0.59
-3.03
0.03
0.26
0.02
0.9

> <PUBCHEM_SHAPE_SELFOVERLAP>
907.616

> <PUBCHEM_SHAPE_VOLUME>
223.3

> <PUBCHEM_COORDINATE_TYPE>
2
5
10

$$$$
