49830890
  -OEChem-10052120433D

 29 31  0     0  0  0  0  0  0999 V2000
    0.2430    2.9464    0.0580 Cl  0  0  0  0  0  0  0  0  0  0  0  0
    4.9110    0.0974    0.4125 S   0  0  0  0  0  0  0  0  0  0  0  0
   -3.3614   -2.1595   -0.4742 O   0  0  0  0  0  0  0  0  0  0  0  0
   -4.1417   -0.0342   -0.0362 N   0  0  0  0  0  0  0  0  0  0  0  0
   -0.8124   -1.4616   -0.0217 N   0  0  0  0  0  0  0  0  0  0  0  0
   -2.5978    1.8727   -0.1454 C   0  0  0  0  0  0  0  0  0  0  0  0
   -1.4921    0.8679   -0.0260 C   0  0  0  0  0  0  0  0  0  0  0  0
   -3.8754    1.3048    0.4538 C   0  0  0  0  0  0  0  0  0  0  0  0
   -1.7568   -0.4939   -0.0705 C   0  0  0  0  0  0  0  0  0  0  0  0
   -0.1564    1.2461    0.0635 C   0  0  0  0  0  0  0  0  0  0  0  0
    0.8529    0.2742    0.1252 C   0  0  0  0  0  0  0  0  0  0  0  0
    0.4751   -1.0845    0.0801 C   0  0  0  0  0  0  0  0  0  0  0  0
   -3.1472   -0.9808   -0.2096 C   0  0  0  0  0  0  0  0  0  0  0  0
    2.2088    0.6292    0.2259 C   0  0  0  0  0  0  0  0  0  0  0  0
    1.4791   -2.0467    0.1401 C   0  0  0  0  0  0  0  0  0  0  0  0
    3.1926   -0.3537    0.2843 C   0  0  0  0  0  0  0  0  0  0  0  0
    2.8269   -1.6933    0.2416 C   0  0  0  0  0  0  0  0  0  0  0  0
    5.1518    1.0695   -1.1014 C   0  0  0  0  0  0  0  0  0  0  0  0
   -2.3828    2.8086    0.3785 H   0  0  0  0  0  0  0  0  0  0  0  0
   -2.7473    2.1010   -1.2078 H   0  0  0  0  0  0  0  0  0  0  0  0
   -3.7963    1.2351    1.5451 H   0  0  0  0  0  0  0  0  0  0  0  0
   -4.7369    1.9347    0.2116 H   0  0  0  0  0  0  0  0  0  0  0  0
   -5.1084   -0.3335   -0.1199 H   0  0  0  0  0  0  0  0  0  0  0  0
    2.5197    1.6694    0.2721 H   0  0  0  0  0  0  0  0  0  0  0  0
    1.2185   -3.1030    0.1071 H   0  0  0  0  0  0  0  0  0  0  0  0
    3.5741   -2.4820    0.2850 H   0  0  0  0  0  0  0  0  0  0  0  0
    6.2088    1.3330   -1.1928 H   0  0  0  0  0  0  0  0  0  0  0  0
    4.5668    1.9921   -1.0671 H   0  0  0  0  0  0  0  0  0  0  0  0
    4.8600    0.4858   -1.9787 H   0  0  0  0  0  0  0  0  0  0  0  0
  1 10  1  0  0  0  0
  2 16  1  0  0  0  0
  2 18  1  0  0  0  0
  3 13  2  0  0  0  0
  4  8  1  0  0  0  0
  4 13  1  0  0  0  0
  4 23  1  0  0  0  0
  5  9  2  0  0  0  0
  5 12  1  0  0  0  0
  6  7  1  0  0  0  0
  6  8  1  0  0  0  0
  6 19  1  0  0  0  0
  6 20  1  0  0  0  0
  7  9  1  0  0  0  0
  7 10  2  0  0  0  0
  8 21  1  0  0  0  0
  8 22  1  0  0  0  0
  9 13  1  0  0  0  0
 10 11  1  0  0  0  0
 11 12  2  0  0  0  0
 11 14  1  0  0  0  0
 12 15  1  0  0  0  0
 14 16  2  0  0  0  0
 14 24  1  0  0  0  0
 15 17  2  0  0  0  0
 15 25  1  0  0  0  0
 16 17  1  0  0  0  0
 17 26  1  0  0  0  0
 18 27  1  0  0  0  0
 18 28  1  0  0  0  0
 18 29  1  0  0  0  0
M  END
> <PUBCHEM_COMPOUND_CID>
49830890

> <PUBCHEM_CONFORMER_RMSD>
0.6

> <PUBCHEM_CONFORMER_DIVERSEORDER>
1
3
2

> <PUBCHEM_MMFF94_PARTIAL_CHARGES>
21
1 -0.18
10 0.18
12 0.31
13 0.54
14 -0.15
15 -0.15
16 0.1
17 -0.15
18 0.23
2 -0.33
23 0.37
24 0.15
25 0.15
26 0.15
3 -0.57
4 -0.73
5 -0.62
6 0.14
7 -0.14
8 0.3
9 0.4

> <PUBCHEM_EFFECTIVE_ROTOR_COUNT>
1.6

> <PUBCHEM_PHARMACOPHORE_FEATURES>
7
1 18 hydrophobe
1 3 acceptor
1 4 donor
1 5 acceptor
6 11 12 14 15 16 17 rings
6 4 6 7 8 9 13 rings
6 5 7 9 10 11 12 rings

> <PUBCHEM_HEAVY_ATOM_COUNT>
18

> <PUBCHEM_ATOM_DEF_STEREO_COUNT>
0

> <PUBCHEM_ATOM_UDEF_STEREO_COUNT>
0

> <PUBCHEM_BOND_DEF_STEREO_COUNT>
0

> <PUBCHEM_BOND_UDEF_STEREO_COUNT>
0

> <PUBCHEM_ISOTOPIC_ATOM_COUNT>
0

> <PUBCHEM_COMPONENT_COUNT>
1

> <PUBCHEM_CACTVS_TAUTO_COUNT>
2

> <PUBCHEM_CONFORMER_ID>
02F85BEA00000001

> <PUBCHEM_MMFF94_ENERGY>
50.8033

> <PUBCHEM_FEATURE_SELFOVERLAP>
35.589

> <PUBCHEM_SHAPE_FINGERPRINT>
10090160 65 17821729442596819994
10498660 4 18410576154669416836
10608611 8 18339635625241866929
10616163 171 18412825806556543743
10967382 1 18339358544275104419
11132069 177 18339355279851955313
11680986 33 17903918103781058464
11806522 49 18337386149053026503
12236239 1 17967530190883390056
12390115 104 17915474804598294433
12403814 3 17676486116514427253
12553582 1 18411130368411152243
12954195 1 17914916248786371508
13132413 78 18412262830791029733
13140716 1 17977949312796270555
13214271 11 18343293764899323591
14787075 74 18259987106279093944
14790565 3 18337964483949119340
15196674 1 18339078194384711466
15442244 35 17978224963665549794
15536298 74 18270399387047588518
16945 1 18338514274011274363
17804303 29 18272087235900858833
19591789 44 18267021850403955600
200 152 18130493194165584927
20510252 161 18199183984161251153
21029758 11 18341043099057529953
21029758 27 18261960742414839589
21267235 1 18411425028879770627
21421861 104 17898847946623112290
21501502 16 18338230462366814818
221490 88 18192151718522922491
2334 1 18411132524405769459
23402539 116 18341606032221160510
23402655 69 18340201903879163333
23463225 33 18337388249275969611
23557571 272 18201446873996888118
23559900 14 18126278650201313186
2748010 2 18340481167106056495
296302 2 17894351072803496818
3312278 4 18341611490618204545
335352 9 17907012881052292727
34934 24 18337665317943282235
350125 39 18410577314495293865
474 4 17313677048415463828
4990 188 17989214733283578094
5104073 3 18411134693343279330
537710 114 18408326592507370892
7364860 26 18196930183003711889
9709674 26 18410578366245583034

> <PUBCHEM_SHAPE_MULTIPOLES>
360.32
8.58
2.49
0.73
4.5
0.5
-0.05
0.62
-0.74
-0.71
-0.09
0.39
0.09
-0.71

> <PUBCHEM_SHAPE_SELFOVERLAP>
771.044

> <PUBCHEM_SHAPE_VOLUME>
203.2

> <PUBCHEM_COORDINATE_TYPE>
2
5
10

$$$$
