44352842
  -OEChem-10062122013D

 76 84  0     1  0  0  0  0  0999 V2000
    0.9072   -0.0109    2.5559 O   0  0  0  0  0  0  0  0  0  0  0  0
   -0.5625    0.6355   -0.3675 O   0  0  0  0  0  0  0  0  0  0  0  0
    6.4087   -2.0885   -1.8614 O   0  0  0  0  0  0  0  0  0  0  0  0
   -3.7536    1.6190    1.4618 O   0  0  0  0  0  0  0  0  0  0  0  0
   -8.8190   -0.2101   -2.9893 O   0  0  0  0  0  0  0  0  0  0  0  0
   -9.8266   -1.0679   -1.1410 O   0  0  0  0  0  0  0  0  0  0  0  0
    1.5900    1.5073    0.9315 N   0  0  0  0  0  0  0  0  0  0  0  0
    1.7550   -1.4883    0.9718 N   0  0  0  0  0  0  0  0  0  0  0  0
   -2.8693   -0.4819    0.9389 N   0  0  0  0  0  0  0  0  0  0  0  0
    6.6444    0.2242   -2.1277 N   0  0  0  0  0  0  0  0  0  0  0  0
    0.4849    1.1268    1.7986 C   0  0  1  0  0  0  0  0  0  0  0  0
   -0.8394    0.9054    1.0139 C   0  0  2  0  0  0  0  0  0  0  0  0
    0.7160   -1.2662    1.9512 C   0  0  2  0  0  0  0  0  0  0  0  0
   -1.5974   -0.2868    1.5911 C   0  0  2  0  0  0  0  0  0  0  0  0
   -0.7179   -1.5278    1.4684 C   0  0  0  0  0  0  0  0  0  0  0  0
    2.6008    0.7594    0.3739 C   0  0  0  0  0  0  0  0  0  0  0  0
    2.6745   -0.6645    0.3838 C   0  0  0  0  0  0  0  0  0  0  0  0
    3.6646    1.4105   -0.3565 C   0  0  0  0  0  0  0  0  0  0  0  0
    3.8064   -1.2291   -0.3329 C   0  0  0  0  0  0  0  0  0  0  0  0
    1.8757    2.7802    0.4163 C   0  0  0  0  0  0  0  0  0  0  0  0
    0.2424    2.1298    2.9510 C   0  0  0  0  0  0  0  0  0  0  0  0
    2.2278   -2.7529    0.6062 C   0  0  0  0  0  0  0  0  0  0  0  0
    3.1349    2.7657   -0.2570 C   0  0  0  0  0  0  0  0  0  0  0  0
    4.7784    0.8546   -0.9775 C   0  0  0  0  0  0  0  0  0  0  0  0
    4.8366   -0.5302   -0.9585 C   0  0  0  0  0  0  0  0  0  0  0  0
    3.4320   -2.6366   -0.1497 C   0  0  0  0  0  0  0  0  0  0  0  0
    5.9272    1.4212   -1.7424 C   0  0  0  0  0  0  0  0  0  0  0  0
    1.1257    3.9737    0.4642 C   0  0  0  0  0  0  0  0  0  0  0  0
    6.0331   -0.9458   -1.6877 C   0  0  0  0  0  0  0  0  0  0  0  0
    1.6803   -4.0170    0.9113 C   0  0  0  0  0  0  0  0  0  0  0  0
    3.6341    3.9860   -0.7798 C   0  0  0  0  0  0  0  0  0  0  0  0
   -3.0675   -1.7799    0.2838 C   0  0  0  0  0  0  0  0  0  0  0  0
    4.0392   -3.8415   -0.5874 C   0  0  0  0  0  0  0  0  0  0  0  0
   -3.8613    0.5139    0.9313 C   0  0  0  0  0  0  0  0  0  0  0  0
   -1.6956    0.8895   -1.1877 C   0  0  0  0  0  0  0  0  0  0  0  0
    1.6500    5.1524   -0.0725 C   0  0  0  0  0  0  0  0  0  0  0  0
    2.8970    5.1648   -0.6732 C   0  0  0  0  0  0  0  0  0  0  0  0
    2.3169   -5.1718    0.4589 C   0  0  0  0  0  0  0  0  0  0  0  0
    3.4825   -5.0869   -0.2828 C   0  0  0  0  0  0  0  0  0  0  0  0
   -5.1411    0.2356    0.2603 C   0  0  0  0  0  0  0  0  0  0  0  0
   -6.1948   -0.3335    0.9757 C   0  0  0  0  0  0  0  0  0  0  0  0
   -5.3006    0.5413   -1.0913 C   0  0  0  0  0  0  0  0  0  0  0  0
   -7.4077   -0.5972    0.3394 C   0  0  0  0  0  0  0  0  0  0  0  0
   -6.5134    0.2776   -1.7276 C   0  0  0  0  0  0  0  0  0  0  0  0
   -7.5670   -0.2918   -1.0123 C   0  0  0  0  0  0  0  0  0  0  0  0
   -8.8314   -0.5674   -1.6756 C   0  0  0  0  0  0  0  0  0  0  0  0
   -1.4073    1.8399    1.0650 H   0  0  0  0  0  0  0  0  0  0  0  0
    0.9265   -1.9891    2.7499 H   0  0  0  0  0  0  0  0  0  0  0  0
   -1.8174   -0.0917    2.6487 H   0  0  0  0  0  0  0  0  0  0  0  0
   -1.1355   -2.3381    2.0804 H   0  0  0  0  0  0  0  0  0  0  0  0
   -0.6421   -1.9160    0.4484 H   0  0  0  0  0  0  0  0  0  0  0  0
    1.1877    2.4133    3.4300 H   0  0  0  0  0  0  0  0  0  0  0  0
   -0.3746    1.6744    3.7364 H   0  0  0  0  0  0  0  0  0  0  0  0
   -0.2709    3.0421    2.6457 H   0  0  0  0  0  0  0  0  0  0  0  0
    5.6090    1.9490   -2.6446 H   0  0  0  0  0  0  0  0  0  0  0  0
    6.5763    2.0425   -1.1208 H   0  0  0  0  0  0  0  0  0  0  0  0
    0.1312    4.0031    0.8931 H   0  0  0  0  0  0  0  0  0  0  0  0
    0.7668   -4.1054    1.4922 H   0  0  0  0  0  0  0  0  0  0  0  0
    4.5916    4.0098   -1.2939 H   0  0  0  0  0  0  0  0  0  0  0  0
   -2.3567   -1.9391   -0.5293 H   0  0  0  0  0  0  0  0  0  0  0  0
   -4.0558   -1.8732   -0.1689 H   0  0  0  0  0  0  0  0  0  0  0  0
   -3.0075   -2.5811    1.0263 H   0  0  0  0  0  0  0  0  0  0  0  0
    4.9510   -3.8245   -1.1735 H   0  0  0  0  0  0  0  0  0  0  0  0
    7.5049    0.2351   -2.6663 H   0  0  0  0  0  0  0  0  0  0  0  0
   -1.2973    1.2094   -2.1578 H   0  0  0  0  0  0  0  0  0  0  0  0
   -2.3128    1.7210   -0.8395 H   0  0  0  0  0  0  0  0  0  0  0  0
   -2.2599   -0.0113   -1.4109 H   0  0  0  0  0  0  0  0  0  0  0  0
    1.0671    6.0683   -0.0213 H   0  0  0  0  0  0  0  0  0  0  0  0
    3.2923    6.0879   -1.0873 H   0  0  0  0  0  0  0  0  0  0  0  0
    1.8931   -6.1448    0.6916 H   0  0  0  0  0  0  0  0  0  0  0  0
    3.9700   -5.9930   -0.6318 H   0  0  0  0  0  0  0  0  0  0  0  0
   -6.0805   -0.5758    2.0291 H   0  0  0  0  0  0  0  0  0  0  0  0
   -4.4965    0.9936   -1.6627 H   0  0  0  0  0  0  0  0  0  0  0  0
   -8.2161   -1.0413    0.9143 H   0  0  0  0  0  0  0  0  0  0  0  0
   -6.5951    0.5330   -2.7803 H   0  0  0  0  0  0  0  0  0  0  0  0
   -9.6762   -0.3999   -3.4271 H   0  0  0  0  0  0  0  0  0  0  0  0
  1 11  1  0  0  0  0
  1 13  1  0  0  0  0
  2 12  1  0  0  0  0
  2 35  1  0  0  0  0
  3 29  2  0  0  0  0
  4 34  2  0  0  0  0
  5 46  1  0  0  0  0
  5 76  1  0  0  0  0
  6 46  2  0  0  0  0
  7 11  1  0  0  0  0
  7 16  1  0  0  0  0
  7 20  1  0  0  0  0
  8 13  1  0  0  0  0
  8 17  1  0  0  0  0
  8 22  1  0  0  0  0
  9 14  1  0  0  0  0
  9 32  1  0  0  0  0
  9 34  1  0  0  0  0
 10 27  1  0  0  0  0
 10 29  1  0  0  0  0
 10 64  1  0  0  0  0
 11 12  1  0  0  0  0
 11 21  1  0  0  0  0
 12 14  1  0  0  0  0
 12 47  1  0  0  0  0
 13 15  1  0  0  0  0
 13 48  1  0  0  0  0
 14 15  1  0  0  0  0
 14 49  1  0  0  0  0
 15 50  1  0  0  0  0
 15 51  1  0  0  0  0
 16 17  2  0  0  0  0
 16 18  1  0  0  0  0
 17 19  1  0  0  0  0
 18 23  1  0  0  0  0
 18 24  2  0  0  0  0
 19 25  2  0  0  0  0
 19 26  1  0  0  0  0
 20 23  1  0  0  0  0
 20 28  2  0  0  0  0
 21 52  1  0  0  0  0
 21 53  1  0  0  0  0
 21 54  1  0  0  0  0
 22 26  1  0  0  0  0
 22 30  2  0  0  0  0
 23 31  2  0  0  0  0
 24 25  1  0  0  0  0
 24 27  1  0  0  0  0
 25 29  1  0  0  0  0
 26 33  2  0  0  0  0
 27 55  1  0  0  0  0
 27 56  1  0  0  0  0
 28 36  1  0  0  0  0
 28 57  1  0  0  0  0
 30 38  1  0  0  0  0
 30 58  1  0  0  0  0
 31 37  1  0  0  0  0
 31 59  1  0  0  0  0
 32 60  1  0  0  0  0
 32 61  1  0  0  0  0
 32 62  1  0  0  0  0
 33 39  1  0  0  0  0
 33 63  1  0  0  0  0
 34 40  1  0  0  0  0
 35 65  1  0  0  0  0
 35 66  1  0  0  0  0
 35 67  1  0  0  0  0
 36 37  2  0  0  0  0
 36 68  1  0  0  0  0
 37 69  1  0  0  0  0
 38 39  2  0  0  0  0
 38 70  1  0  0  0  0
 39 71  1  0  0  0  0
 40 41  2  0  0  0  0
 40 42  1  0  0  0  0
 41 43  1  0  0  0  0
 41 72  1  0  0  0  0
 42 44  2  0  0  0  0
 42 73  1  0  0  0  0
 43 45  2  0  0  0  0
 43 74  1  0  0  0  0
 44 45  1  0  0  0  0
 44 75  1  0  0  0  0
 45 46  1  0  0  0  0
M  END
> <PUBCHEM_COMPOUND_CID>
44352842

> <PUBCHEM_CONFORMER_RMSD>
1

> <PUBCHEM_CONFORMER_DIVERSEORDER>
1
5
6
3
7
2
4

> <PUBCHEM_MMFF94_PARTIAL_CHARGES>
56
1 -0.56
10 -0.73
11 0.54
12 0.28
13 0.54
14 0.3
16 -0.05
17 -0.05
18 -0.01
19 -0.01
2 -0.56
20 -0.15
22 -0.15
24 -0.14
25 0.09
27 0.44
28 -0.15
29 0.54
3 -0.57
30 -0.15
31 -0.15
32 0.3
33 -0.15
34 0.54
35 0.28
36 -0.15
37 -0.15
38 -0.15
39 -0.15
4 -0.57
40 0.09
41 -0.15
42 -0.15
43 -0.15
44 -0.15
45 0.09
46 0.63
5 -0.65
57 0.15
58 0.15
59 0.15
6 -0.57
63 0.15
64 0.37
68 0.15
69 0.15
7 -0.04
70 0.15
71 0.15
72 0.15
73 0.15
74 0.15
75 0.15
76 0.5
8 -0.04
9 -0.66

> <PUBCHEM_EFFECTIVE_ROTOR_COUNT>
6.2

> <PUBCHEM_PHARMACOPHORE_FEATURES>
19
1 1 acceptor
1 10 donor
1 2 acceptor
1 3 acceptor
1 4 acceptor
1 5 acceptor
1 6 acceptor
1 7 cation
1 8 cation
3 5 6 46 anion
5 10 24 25 27 29 rings
5 7 16 18 20 23 rings
5 8 17 19 22 26 rings
6 1 11 12 13 14 15 rings
6 16 17 18 19 24 25 rings
6 20 23 28 31 36 37 rings
6 22 26 30 33 38 39 rings
6 40 41 42 43 44 45 rings
7 1 7 8 11 13 16 17 rings

> <PUBCHEM_HEAVY_ATOM_COUNT>
46

> <PUBCHEM_ATOM_DEF_STEREO_COUNT>
4

> <PUBCHEM_ATOM_UDEF_STEREO_COUNT>
0

> <PUBCHEM_BOND_DEF_STEREO_COUNT>
0

> <PUBCHEM_BOND_UDEF_STEREO_COUNT>
0

> <PUBCHEM_ISOTOPIC_ATOM_COUNT>
0

> <PUBCHEM_COMPONENT_COUNT>
1

> <PUBCHEM_CACTVS_TAUTO_COUNT>
2

> <PUBCHEM_CONFORMER_ID>
02A4C54A00000001

> <PUBCHEM_MMFF94_ENERGY>
216.1887

> <PUBCHEM_FEATURE_SELFOVERLAP>
97.442

> <PUBCHEM_SHAPE_FINGERPRINT>
10556698 54 17897147054175820885
10622 236 18056477253749048083
10675989 125 18339368560060354616
10693767 8 18201446814094764646
10930396 42 18340192065623222136
11115154 58 17989214715930279401
11181472 205 18410853219595994237
12047536 79 7853039151003244023
1361 2 18410582807510110522
13911987 19 18117871917739576268
14068700 675 18059863814245648512
14117953 113 18410018754409723940
14415360 78 18192714664524606100
15082195 135 18410571803688412483
15324884 4 17536338147123404080
15439362 3 18122915493166670852
15444296 8 17477501806741942990
15484559 13 18410293627531668326
15950262 2 15142962965930255902
19319366 153 18200026377582336328
21133410 127 17250625742340620828
21133410 171 17391047267353105106
22121540 332 17386266749930052469
23522609 53 17845114955941310361
23559900 14 18339929323774844649
24771750 20 17899717913534050468
255183 451 18198905816525785479
3388396 114 18120678863493155182
3504750 166 16459942179200633218
3882209 13 17827066313378261922
3918712 181 15936682731931312541
4066623 53 17968652710318895652
42767 46 17132110247892642047
4353968 344 18050864221985124670
45266715 3 18200872980846981688
46194498 28 18261664914005286509
57527452 28 15913058599200318068
6004065 56 18411425033670610280
9831232 110 18338220593465807839

> <PUBCHEM_SHAPE_MULTIPOLES>
891.52
19.47
5.97
2.12
52.87
0.08
-0.13
-5.28
17.78
-12.22
-0.12
1.27
0.26
-0.43

> <PUBCHEM_SHAPE_SELFOVERLAP>
2048.586

> <PUBCHEM_SHAPE_VOLUME>
456.7

> <PUBCHEM_COORDINATE_TYPE>
2
5
10

$$$$
