49830729
  -OEChem-10052115183D

 53 55  0     1  0  0  0  0  0999 V2000
    5.3064    0.8882   -0.3357 O   0  0  0  0  0  0  0  0  0  0  0  0
    5.3974   -2.1475   -0.6435 O   0  0  0  0  0  0  0  0  0  0  0  0
    2.1376    0.8957    0.1964 N   0  0  0  0  0  0  0  0  0  0  0  0
    2.2393   -2.4474   -0.1431 N   0  0  0  0  0  0  0  0  0  0  0  0
    0.0853   -1.4296   -0.2850 N   0  0  0  0  0  0  0  0  0  0  0  0
   -2.0485   -0.4616   -0.4058 N   0  0  0  0  0  0  0  0  0  0  0  0
   -1.8514   -2.5959    0.5494 N   0  0  0  0  0  0  0  0  0  0  0  0
    1.2644    3.2081   -0.0310 C   0  0  0  0  0  0  0  0  0  0  0  0
    2.5105    2.2993    0.2197 C   0  0  1  0  0  0  0  0  0  0  0  0
    0.5612    2.8883   -1.3644 C   0  0  0  0  0  0  0  0  0  0  0  0
    0.2406    3.0348    1.1102 C   0  0  0  0  0  0  0  0  0  0  0  0
    1.6943    4.6920   -0.0491 C   0  0  0  0  0  0  0  0  0  0  0  0
    3.2573    2.5672    1.5279 C   0  0  0  0  0  0  0  0  0  0  0  0
    2.9958   -0.0632   -0.0400 C   0  0  0  0  0  0  0  0  0  0  0  0
    3.0362   -1.4133   -0.1771 C   0  0  0  0  0  0  0  0  0  0  0  0
    4.4335    0.0630   -0.2689 C   0  0  0  0  0  0  0  0  0  0  0  0
    4.4775   -1.4055   -0.4179 C   0  0  0  0  0  0  0  0  0  0  0  0
    0.8365   -2.4864    0.0884 C   0  0  0  0  0  0  0  0  0  0  0  0
    0.3233   -3.6177    0.6893 C   0  0  0  0  0  0  0  0  0  0  0  0
   -1.2312   -1.5494   -0.0284 C   0  0  0  0  0  0  0  0  0  0  0  0
   -1.0410   -3.6169    0.8972 C   0  0  0  0  0  0  0  0  0  0  0  0
   -3.4326   -0.2292   -0.3018 C   0  0  0  0  0  0  0  0  0  0  0  0
   -3.9128    1.0724   -0.1568 C   0  0  0  0  0  0  0  0  0  0  0  0
   -5.2847    1.3023   -0.0533 C   0  0  0  0  0  0  0  0  0  0  0  0
   -4.3244   -1.3010   -0.3433 C   0  0  0  0  0  0  0  0  0  0  0  0
   -6.1766    0.2305   -0.0948 C   0  0  0  0  0  0  0  0  0  0  0  0
   -5.6965   -1.0712   -0.2399 C   0  0  0  0  0  0  0  0  0  0  0  0
   -5.7977    2.6942    0.1013 C   0  0  0  0  0  0  0  0  0  0  0  0
    3.2047    2.4991   -0.6086 H   0  0  0  0  0  0  0  0  0  0  0  0
    1.2549    2.9989   -2.2053 H   0  0  0  0  0  0  0  0  0  0  0  0
    0.1727    1.8653   -1.3853 H   0  0  0  0  0  0  0  0  0  0  0  0
   -0.2851    3.5620   -1.5403 H   0  0  0  0  0  0  0  0  0  0  0  0
    0.6534    3.3169    2.0838 H   0  0  0  0  0  0  0  0  0  0  0  0
   -0.1416    2.0126    1.1860 H   0  0  0  0  0  0  0  0  0  0  0  0
   -0.6304    3.6808    0.9429 H   0  0  0  0  0  0  0  0  0  0  0  0
    2.0570    5.0305    0.9265 H   0  0  0  0  0  0  0  0  0  0  0  0
    0.8520    5.3411   -0.3161 H   0  0  0  0  0  0  0  0  0  0  0  0
    2.4871    4.8619   -0.7859 H   0  0  0  0  0  0  0  0  0  0  0  0
    1.1614    0.6797    0.3744 H   0  0  0  0  0  0  0  0  0  0  0  0
    4.1459    1.9409    1.6429 H   0  0  0  0  0  0  0  0  0  0  0  0
    3.6029    3.6029    1.5890 H   0  0  0  0  0  0  0  0  0  0  0  0
    2.6308    2.3637    2.4026 H   0  0  0  0  0  0  0  0  0  0  0  0
    2.6178   -3.3805   -0.2966 H   0  0  0  0  0  0  0  0  0  0  0  0
    0.9369   -4.4592    0.9859 H   0  0  0  0  0  0  0  0  0  0  0  0
   -1.5351   -4.4625    1.3635 H   0  0  0  0  0  0  0  0  0  0  0  0
   -1.5082    0.3440   -0.7055 H   0  0  0  0  0  0  0  0  0  0  0  0
   -3.2173    1.9083   -0.1216 H   0  0  0  0  0  0  0  0  0  0  0  0
   -3.9997   -2.3243   -0.4992 H   0  0  0  0  0  0  0  0  0  0  0  0
   -7.2477    0.3964   -0.0157 H   0  0  0  0  0  0  0  0  0  0  0  0
   -6.3919   -1.9044   -0.2821 H   0  0  0  0  0  0  0  0  0  0  0  0
   -5.8282    2.9677    1.1606 H   0  0  0  0  0  0  0  0  0  0  0  0
   -5.1601    3.4100   -0.4288 H   0  0  0  0  0  0  0  0  0  0  0  0
   -6.8058    2.7940   -0.3153 H   0  0  0  0  0  0  0  0  0  0  0  0
  1 16  2  0  0  0  0
  2 17  2  0  0  0  0
  3  9  1  0  0  0  0
  3 14  1  0  0  0  0
  3 39  1  0  0  0  0
  4 15  1  0  0  0  0
  4 18  1  0  0  0  0
  4 43  1  0  0  0  0
  5 18  2  0  0  0  0
  5 20  1  0  0  0  0
  6 20  1  0  0  0  0
  6 22  1  0  0  0  0
  6 46  1  0  0  0  0
  7 20  2  0  0  0  0
  7 21  1  0  0  0  0
  8  9  1  0  0  0  0
  8 10  1  0  0  0  0
  8 11  1  0  0  0  0
  8 12  1  0  0  0  0
  9 13  1  0  0  0  0
  9 29  1  0  0  0  0
 10 30  1  0  0  0  0
 10 31  1  0  0  0  0
 10 32  1  0  0  0  0
 11 33  1  0  0  0  0
 11 34  1  0  0  0  0
 11 35  1  0  0  0  0
 12 36  1  0  0  0  0
 12 37  1  0  0  0  0
 12 38  1  0  0  0  0
 13 40  1  0  0  0  0
 13 41  1  0  0  0  0
 13 42  1  0  0  0  0
 14 15  2  0  0  0  0
 14 16  1  0  0  0  0
 15 17  1  0  0  0  0
 16 17  1  0  0  0  0
 18 19  1  0  0  0  0
 19 21  2  0  0  0  0
 19 44  1  0  0  0  0
 21 45  1  0  0  0  0
 22 23  1  0  0  0  0
 22 25  2  0  0  0  0
 23 24  2  0  0  0  0
 23 47  1  0  0  0  0
 24 26  1  0  0  0  0
 24 28  1  0  0  0  0
 25 27  1  0  0  0  0
 25 48  1  0  0  0  0
 26 27  2  0  0  0  0
 26 49  1  0  0  0  0
 27 50  1  0  0  0  0
 28 51  1  0  0  0  0
 28 52  1  0  0  0  0
 28 53  1  0  0  0  0
M  END
> <PUBCHEM_COMPOUND_CID>
49830729

> <PUBCHEM_CONFORMER_RMSD>
1.4

> <PUBCHEM_CONFORMER_DIVERSEORDER>
1
113
2
43
53
59
11
31
41
39
17
20
54
40
66
28
101
72
93
12
82
23
30
65
107
47
22
84
26
61
48
102
81
79
89
33
112
70
71
9
56
80
64
90
60
100
109
95
85
49
98
6
108
68
52
27
114
115
37
44
74
16
32
45
67
35
55
75
3
111
29
46
87
97
91
62
94
50
25
19
106
57
42
88
7
36
5
69
116
96
110
92
76
78
86
13
58
103
73
15
10
104
24
63
99
77
34
38
51
18
8
105
83
14
4
21

> <PUBCHEM_MMFF94_PARTIAL_CHARGES>
32
1 -0.57
14 0.03
15 0.03
16 0.64
17 0.64
18 0.41
19 -0.15
2 -0.57
20 0.72
21 0.16
22 0.1
23 -0.15
24 -0.14
25 -0.15
26 -0.15
27 -0.15
28 0.14
3 -0.87
39 0.4
4 -0.6
43 0.4
44 0.15
45 0.15
46 0.4
47 0.15
48 0.15
49 0.15
5 -0.62
50 0.15
6 -0.6
7 -0.62
9 0.37

> <PUBCHEM_EFFECTIVE_ROTOR_COUNT>
7

> <PUBCHEM_PHARMACOPHORE_FEATURES>
11
1 1 acceptor
1 2 acceptor
1 3 cation
1 3 donor
1 4 donor
1 6 donor
4 14 15 16 17 rings
4 5 6 7 20 cation
4 8 10 11 12 hydrophobe
6 22 23 24 25 26 27 rings
6 5 7 18 19 20 21 rings

> <PUBCHEM_HEAVY_ATOM_COUNT>
28

> <PUBCHEM_ATOM_DEF_STEREO_COUNT>
0

> <PUBCHEM_ATOM_UDEF_STEREO_COUNT>
1

> <PUBCHEM_BOND_DEF_STEREO_COUNT>
0

> <PUBCHEM_BOND_UDEF_STEREO_COUNT>
0

> <PUBCHEM_ISOTOPIC_ATOM_COUNT>
0

> <PUBCHEM_COMPONENT_COUNT>
1

> <PUBCHEM_CACTVS_TAUTO_COUNT>
33

> <PUBCHEM_CONFORMER_ID>
02F85B4900000001

> <PUBCHEM_MMFF94_ENERGY>
93.1704

> <PUBCHEM_FEATURE_SELFOVERLAP>
55.821

> <PUBCHEM_SHAPE_FINGERPRINT>
10439779 11 18339349868588736666
1100329 8 18410294734973087563
11513181 2 18056202616143982454
12769317 202 18263351508965788535
12788726 201 18193280694249062090
12925494 130 18338232649544795009
13402501 40 18408322168210663996
14028597 1 17750786650566161522
14251764 38 18195243545246439959
14466204 15 18337102384879612465
14681490 219 18124036732796373926
14790565 3 18335989692092631285
15210252 30 18260275152978176708
15238133 3 18335707143816812278
15320467 1 18194119612625074965
15351339 4 18341043026328046713
15420108 30 17770478040710154106
15475509 84 17397256136663559587
16087824 20 18338802187054953556
17093844 170 18412820313810324136
20554085 129 16515955992424181849
20642791 178 18114479910924147589
21133410 127 17825941809146465181
21585483 110 18119802518192545181
21860390 5 18272658938939607830
23558518 356 17683519911356467050
23559900 14 18339920527955907683
24893992 56 18336828603196884491
3014063 31 18339922602251161660
338550 245 18336548304345458917
350125 39 18263934404868774995
3680242 22 18262513680762616722
437795 70 17842301188972381222
474 4 18410571795288186795
5104073 3 17896889751433456859
53794403 172 18118968228804703517
550186 83 17677315165514913136
5776283 40 18191599751091482276
6138700 20 18339082575404685022
6443956 14 18410857629113643837

> <PUBCHEM_SHAPE_MULTIPOLES>
539.58
12.59
5.52
0.91
12.26
2.21
-0.12
1.72
1.53
-2.54
-0.98
-0.39
0.33
0.8

> <PUBCHEM_SHAPE_SELFOVERLAP>
1151.913

> <PUBCHEM_SHAPE_VOLUME>
296.2

> <PUBCHEM_COORDINATE_TYPE>
2
5
10

$$$$
