11858109
  -OEChem-10062122013D

 79 84  0     0  0  0  0  0  0999 V2000
   -0.8141    3.9936   -1.8590 F   0  0  0  0  0  0  0  0  0  0  0  0
  -11.2748   -2.2041   -2.2684 F   0  0  0  0  0  0  0  0  0  0  0  0
    4.9679   -5.2695    0.8576 O   0  0  0  0  0  0  0  0  0  0  0  0
    7.3468    0.2777   -0.2179 O   0  0  0  0  0  0  0  0  0  0  0  0
    5.5401   -0.3353   -2.2387 O   0  0  0  0  0  0  0  0  0  0  0  0
    1.4858    2.5824   -1.3160 O   0  0  0  0  0  0  0  0  0  0  0  0
   -3.4692    1.7190    2.4611 O   0  0  0  0  0  0  0  0  0  0  0  0
    6.6578   -3.1063    0.1051 N   0  0  0  0  0  0  0  0  0  0  0  0
    4.2774    3.3985    1.6398 N   0  0  0  0  0  0  0  0  0  0  0  0
   -5.3680    0.4636    1.9293 N   0  0  0  0  0  0  0  0  0  0  0  0
   -7.2551   -0.8958    1.3121 N   0  0  0  0  0  0  0  0  0  0  0  0
   -5.4675   -0.6942   -0.1409 N   0  0  0  0  0  0  0  0  0  0  0  0
    6.9147   -3.8964    1.3172 C   0  0  0  0  0  0  0  0  0  0  0  0
    5.9743   -3.9330   -0.8992 C   0  0  0  0  0  0  0  0  0  0  0  0
    7.9027   -2.5606   -0.4320 C   0  0  0  0  0  0  0  0  0  0  0  0
    5.6037   -4.4657    1.8521 C   0  0  0  0  0  0  0  0  0  0  0  0
    4.6851   -4.5003   -0.3120 C   0  0  0  0  0  0  0  0  0  0  0  0
    8.5544   -1.6288    0.5846 C   0  0  0  0  0  0  0  0  0  0  0  0
    7.6340   -0.4732    0.9537 C   0  0  0  0  0  0  0  0  0  0  0  0
    6.1240    0.8947   -0.2729 C   0  0  0  0  0  0  0  0  0  0  0  0
    5.2292    0.5835   -1.2833 C   0  0  0  0  0  0  0  0  0  0  0  0
    5.7966    1.8369    0.6994 C   0  0  0  0  0  0  0  0  0  0  0  0
    3.6571    2.1749   -0.3414 C   0  0  0  0  0  0  0  0  0  0  0  0
    4.5683    2.4920    0.6877 C   0  0  0  0  0  0  0  0  0  0  0  0
    3.9937    1.2235   -1.3192 C   0  0  0  0  0  0  0  0  0  0  0  0
    2.4204    2.8342   -0.3538 C   0  0  0  0  0  0  0  0  0  0  0  0
    2.1179    3.7687    0.6259 C   0  0  0  0  0  0  0  0  0  0  0  0
   -2.2060    1.1454   -0.0771 C   0  0  0  0  0  0  0  0  0  0  0  0
    0.2552    2.1044   -0.9034 C   0  0  0  0  0  0  0  0  0  0  0  0
   -3.5155    0.6354    0.3627 C   0  0  0  0  0  0  0  0  0  0  0  0
    3.0730    4.0124    1.5920 C   0  0  0  0  0  0  0  0  0  0  0  0
   -4.1000    1.0047    1.6840 C   0  0  0  0  0  0  0  0  0  0  0  0
   -2.1254    2.3511   -0.7738 C   0  0  0  0  0  0  0  0  0  0  0  0
   -1.0462    0.4229    0.2031 C   0  0  0  0  0  0  0  0  0  0  0  0
   -0.8849    2.8346   -1.1901 C   0  0  0  0  0  0  0  0  0  0  0  0
    0.1942    0.9061   -0.2135 C   0  0  0  0  0  0  0  0  0  0  0  0
   -6.0156   -0.3822    1.0044 C   0  0  0  0  0  0  0  0  0  0  0  0
   -4.2399   -0.1698   -0.4265 C   0  0  0  0  0  0  0  0  0  0  0  0
    4.5554   -0.5900   -3.2389 C   0  0  0  0  0  0  0  0  0  0  0  0
   -6.0164    0.7891    3.1990 C   0  0  0  0  0  0  0  0  0  0  0  0
   -8.2647   -1.2240    0.4132 C   0  0  0  0  0  0  0  0  0  0  0  0
   -9.1739   -2.2552    0.7016 C   0  0  0  0  0  0  0  0  0  0  0  0
   -8.3958   -0.5315   -0.8018 C   0  0  0  0  0  0  0  0  0  0  0  0
  -10.1860   -2.5848   -0.2000 C   0  0  0  0  0  0  0  0  0  0  0  0
   -9.4080   -0.8610   -1.7033 C   0  0  0  0  0  0  0  0  0  0  0  0
  -10.3029   -1.8878   -1.4025 C   0  0  0  0  0  0  0  0  0  0  0  0
    7.6085   -4.7187    1.0991 H   0  0  0  0  0  0  0  0  0  0  0  0
    7.3375   -3.2948    2.1261 H   0  0  0  0  0  0  0  0  0  0  0  0
    5.7278   -3.3337   -1.7829 H   0  0  0  0  0  0  0  0  0  0  0  0
    6.6239   -4.7584   -1.2183 H   0  0  0  0  0  0  0  0  0  0  0  0
    7.7037   -2.0087   -1.3585 H   0  0  0  0  0  0  0  0  0  0  0  0
    8.6077   -3.3615   -0.6908 H   0  0  0  0  0  0  0  0  0  0  0  0
    5.8003   -5.1046    2.7191 H   0  0  0  0  0  0  0  0  0  0  0  0
    4.9187   -3.6716    2.1737 H   0  0  0  0  0  0  0  0  0  0  0  0
    3.9699   -3.7062   -0.0645 H   0  0  0  0  0  0  0  0  0  0  0  0
    4.2049   -5.1636   -1.0384 H   0  0  0  0  0  0  0  0  0  0  0  0
    9.4539   -1.2145    0.1096 H   0  0  0  0  0  0  0  0  0  0  0  0
    8.9079   -2.1490    1.4794 H   0  0  0  0  0  0  0  0  0  0  0  0
    6.7197   -0.8325    1.4419 H   0  0  0  0  0  0  0  0  0  0  0  0
    8.1536    0.1824    1.6622 H   0  0  0  0  0  0  0  0  0  0  0  0
    6.5151    2.0763    1.4817 H   0  0  0  0  0  0  0  0  0  0  0  0
    3.2564    1.0182   -2.0882 H   0  0  0  0  0  0  0  0  0  0  0  0
    1.1770    4.3074    0.6427 H   0  0  0  0  0  0  0  0  0  0  0  0
    2.8937    4.7348    2.3816 H   0  0  0  0  0  0  0  0  0  0  0  0
   -3.0201    2.9262   -0.9990 H   0  0  0  0  0  0  0  0  0  0  0  0
   -1.0930   -0.5193    0.7439 H   0  0  0  0  0  0  0  0  0  0  0  0
    1.0872    0.3275    0.0025 H   0  0  0  0  0  0  0  0  0  0  0  0
   -3.8555   -0.4601   -1.4009 H   0  0  0  0  0  0  0  0  0  0  0  0
    3.6437   -1.0177   -2.8078 H   0  0  0  0  0  0  0  0  0  0  0  0
    4.9710   -1.3461   -3.9132 H   0  0  0  0  0  0  0  0  0  0  0  0
    4.3550    0.3000   -3.8450 H   0  0  0  0  0  0  0  0  0  0  0  0
   -5.4639    1.5467    3.7602 H   0  0  0  0  0  0  0  0  0  0  0  0
   -6.0814   -0.1231    3.8002 H   0  0  0  0  0  0  0  0  0  0  0  0
   -7.0282    1.1582    3.0051 H   0  0  0  0  0  0  0  0  0  0  0  0
   -7.5167   -0.9992    2.2872 H   0  0  0  0  0  0  0  0  0  0  0  0
   -9.0951   -2.8084    1.6347 H   0  0  0  0  0  0  0  0  0  0  0  0
   -7.7331    0.2916   -1.0571 H   0  0  0  0  0  0  0  0  0  0  0  0
  -10.8829   -3.3842    0.0338 H   0  0  0  0  0  0  0  0  0  0  0  0
   -9.5033   -0.3147   -2.6371 H   0  0  0  0  0  0  0  0  0  0  0  0
  1 35  1  0  0  0  0
  2 46  1  0  0  0  0
  3 16  1  0  0  0  0
  3 17  1  0  0  0  0
  4 19  1  0  0  0  0
  4 20  1  0  0  0  0
  5 21  1  0  0  0  0
  5 39  1  0  0  0  0
  6 26  1  0  0  0  0
  6 29  1  0  0  0  0
  7 32  2  0  0  0  0
  8 13  1  0  0  0  0
  8 14  1  0  0  0  0
  8 15  1  0  0  0  0
  9 24  2  0  0  0  0
  9 31  1  0  0  0  0
 10 32  1  0  0  0  0
 10 37  1  0  0  0  0
 10 40  1  0  0  0  0
 11 37  1  0  0  0  0
 11 41  1  0  0  0  0
 11 75  1  0  0  0  0
 12 37  2  0  0  0  0
 12 38  1  0  0  0  0
 13 16  1  0  0  0  0
 13 47  1  0  0  0  0
 13 48  1  0  0  0  0
 14 17  1  0  0  0  0
 14 49  1  0  0  0  0
 14 50  1  0  0  0  0
 15 18  1  0  0  0  0
 15 51  1  0  0  0  0
 15 52  1  0  0  0  0
 16 53  1  0  0  0  0
 16 54  1  0  0  0  0
 17 55  1  0  0  0  0
 17 56  1  0  0  0  0
 18 19  1  0  0  0  0
 18 57  1  0  0  0  0
 18 58  1  0  0  0  0
 19 59  1  0  0  0  0
 19 60  1  0  0  0  0
 20 21  1  0  0  0  0
 20 22  2  0  0  0  0
 21 25  2  0  0  0  0
 22 24  1  0  0  0  0
 22 61  1  0  0  0  0
 23 24  1  0  0  0  0
 23 25  1  0  0  0  0
 23 26  2  0  0  0  0
 25 62  1  0  0  0  0
 26 27  1  0  0  0  0
 27 31  2  0  0  0  0
 27 63  1  0  0  0  0
 28 30  1  0  0  0  0
 28 33  2  0  0  0  0
 28 34  1  0  0  0  0
 29 35  2  0  0  0  0
 29 36  1  0  0  0  0
 30 32  1  0  0  0  0
 30 38  2  0  0  0  0
 31 64  1  0  0  0  0
 33 35  1  0  0  0  0
 33 65  1  0  0  0  0
 34 36  2  0  0  0  0
 34 66  1  0  0  0  0
 36 67  1  0  0  0  0
 38 68  1  0  0  0  0
 39 69  1  0  0  0  0
 39 70  1  0  0  0  0
 39 71  1  0  0  0  0
 40 72  1  0  0  0  0
 40 73  1  0  0  0  0
 40 74  1  0  0  0  0
 41 42  2  0  0  0  0
 41 43  1  0  0  0  0
 42 44  1  0  0  0  0
 42 76  1  0  0  0  0
 43 45  2  0  0  0  0
 43 77  1  0  0  0  0
 44 46  2  0  0  0  0
 44 78  1  0  0  0  0
 45 46  1  0  0  0  0
 45 79  1  0  0  0  0
M  END
> <PUBCHEM_COMPOUND_CID>
11858109

> <PUBCHEM_CONFORMER_RMSD>
1.2

> <PUBCHEM_CONFORMER_DIVERSEORDER>
1
68
41
235
161
191
152
70
165
212
96
215
91
179
160
102
95
28
86
170
90
44
55
65
87
125
196
230
171
105
216
118
240
24
67
50
121
187
209
138
223
243
74
184
100
106
188
207
155
147
40
210
57
30
34
62
201
242
80
141
248
115
227
226
53
153
157
111
120
197
103
88
133
12
85
182
180
122
72
183
130
156
107
31
131
208
52
69
159
178
169
117
172
185
205
151
60
190
174
56
186
129
128
163
249
225
213
64
79
247
175
51
123
246
77
66
23
200
15
43
109
149
221
158
202
241
214
49
127
71
82
92
75
148
181
99
110
20
189
2
61
233
193
140
228
81
250
93
84
76
73
231
59
135
136
45
37
217
173
89
244
234
177
245
137
167
42
114
9
195
139
112
46
238
144
25
219
142
154
83
113
124
143
97
126
222
168
134
119
54
47
239
38
166
4
39
78
176
218
98
150
16
229
203
194
211
108
236
224
11
237
6
22
58
35
162
198
36
27
232
48
220
204
199
13
63
145
116
26
104
206
94
164
19
32
146
132
10
33
192
8
101
5
21
29
3
18
17
14
7

> <PUBCHEM_MMFF94_PARTIAL_CHARGES>
57
1 -0.19
10 -0.42
11 -0.55
12 -0.62
13 0.27
14 0.27
15 0.27
16 0.28
17 0.28
19 0.28
2 -0.19
20 0.08
21 0.08
22 -0.15
24 0.31
25 -0.15
26 0.08
27 -0.15
28 0.03
29 0.08
3 -0.56
30 -0.01
31 0.16
32 0.62
33 -0.15
34 -0.15
35 0.19
36 -0.15
37 0.56
38 0.02
39 0.28
4 -0.36
40 0.3
41 0.1
42 -0.15
43 -0.15
44 -0.15
45 -0.15
46 0.19
5 -0.36
6 -0.17
61 0.15
62 0.15
63 0.15
64 0.15
65 0.15
66 0.15
67 0.15
68 0.15
7 -0.57
75 0.4
76 0.15
77 0.15
78 0.15
79 0.15
8 -0.81
9 -0.62

> <PUBCHEM_EFFECTIVE_ROTOR_COUNT>
12.2

> <PUBCHEM_PHARMACOPHORE_FEATURES>
14
1 11 donor
1 3 acceptor
1 4 acceptor
1 5 acceptor
1 6 acceptor
1 7 acceptor
1 8 cation
1 9 acceptor
6 10 12 30 32 37 38 rings
6 20 21 22 23 24 25 rings
6 28 29 33 34 35 36 rings
6 3 8 13 14 16 17 rings
6 41 42 43 44 45 46 rings
6 9 23 24 26 27 31 rings

> <PUBCHEM_HEAVY_ATOM_COUNT>
46

> <PUBCHEM_ATOM_DEF_STEREO_COUNT>
0

> <PUBCHEM_ATOM_UDEF_STEREO_COUNT>
0

> <PUBCHEM_BOND_DEF_STEREO_COUNT>
0

> <PUBCHEM_BOND_UDEF_STEREO_COUNT>
0

> <PUBCHEM_ISOTOPIC_ATOM_COUNT>
0

> <PUBCHEM_COMPONENT_COUNT>
1

> <PUBCHEM_CACTVS_TAUTO_COUNT>
3

> <PUBCHEM_CONFORMER_ID>
00B4F0BD00000001

> <PUBCHEM_MMFF94_ENERGY>
162.7879

> <PUBCHEM_FEATURE_SELFOVERLAP>
71.089

> <PUBCHEM_SHAPE_FINGERPRINT>
10055352 69 10303806606120247213
11181472 205 14057258893733901005
11408170 108 18408889542835163459
11534866 41 18411696626275375632
117089 54 18335426704053820242
12013929 112 15285352917077770699
12539765 74 8070032172717597121
13383668 1 18412258445592276935
13782708 43 18261958453804231132
14040221 8 14562797842471707743
14400156 188 18342458128622330970
14400156 96 17985827270397037968
14617042 71 9583524230834462103
14747281 78 9367345968421438912
19301679 30 18272093747683611888
19841028 212 18409728457138105827
2026 5 18335702789179266875
21895431 317 18342457050158752679
23569943 247 18335426703647983283
24204213 265 18260828228495784053
4112364 45 14836399264040925696
474113 269 18409444795964642509
6201460 15 17611181556166769466
9831232 110 18188778369593456183

> <PUBCHEM_SHAPE_MULTIPOLES>
877.86
35.17
6.07
2.25
72.89
4.23
0.03
40.93
-3.57
-13.61
1.3
1.49
-0.21
-2.71

> <PUBCHEM_SHAPE_SELFOVERLAP>
1923.196

> <PUBCHEM_SHAPE_VOLUME>
476.9

> <PUBCHEM_COORDINATE_TYPE>
2
5
10

$$$$
