49830888
  -OEChem-10062121543D

 27 29  0     0  0  0  0  0  0999 V2000
   -4.7726   -0.0283   -0.4497 F   0  0  0  0  0  0  0  0  0  0  0  0
    3.7017   -1.2097   -0.2713 N   0  0  0  0  0  0  0  0  0  0  0  0
    1.1825    1.8515    0.5074 N   0  0  0  0  0  0  0  0  0  0  0  0
    3.4937    1.0911    0.4192 N   0  0  0  0  0  0  0  0  0  0  0  0
    1.6316   -0.3851   -0.1487 C   0  0  0  0  0  0  0  0  0  0  0  0
    0.7247    0.6421    0.1087 C   0  0  0  0  0  0  0  0  0  0  0  0
   -0.6936    0.4672   -0.0333 C   0  0  0  0  0  0  0  0  0  0  0  0
    2.9772   -0.0864    0.0269 C   0  0  0  0  0  0  0  0  0  0  0  0
   -1.3572   -0.4964    0.7262 C   0  0  0  0  0  0  0  0  0  0  0  0
    1.5597   -1.7386   -0.5666 C   0  0  0  0  0  0  0  0  0  0  0  0
   -2.7347   -0.6662    0.5882 C   0  0  0  0  0  0  0  0  0  0  0  0
   -1.4076    1.2607   -0.9313 C   0  0  0  0  0  0  0  0  0  0  0  0
    2.8494   -2.2210   -0.6339 C   0  0  0  0  0  0  0  0  0  0  0  0
   -3.4487    0.1274   -0.3096 C   0  0  0  0  0  0  0  0  0  0  0  0
   -2.7852    1.0908   -1.0694 C   0  0  0  0  0  0  0  0  0  0  0  0
   -3.4413   -1.6982    1.4010 C   0  0  0  0  0  0  0  0  0  0  0  0
    2.5203    1.9990    0.6361 C   0  0  0  0  0  0  0  0  0  0  0  0
   -0.8088   -1.1118    1.4367 H   0  0  0  0  0  0  0  0  0  0  0  0
    0.6707   -2.3087   -0.7990 H   0  0  0  0  0  0  0  0  0  0  0  0
   -0.9071    2.0148   -1.5342 H   0  0  0  0  0  0  0  0  0  0  0  0
    4.7089   -1.2816   -0.2306 H   0  0  0  0  0  0  0  0  0  0  0  0
    3.2357   -3.1927   -0.9078 H   0  0  0  0  0  0  0  0  0  0  0  0
   -3.3414    1.7079   -1.7688 H   0  0  0  0  0  0  0  0  0  0  0  0
   -2.7403   -2.4034    1.8601 H   0  0  0  0  0  0  0  0  0  0  0  0
   -4.1224   -2.2828    0.7734 H   0  0  0  0  0  0  0  0  0  0  0  0
   -4.0163   -1.2189    2.1997 H   0  0  0  0  0  0  0  0  0  0  0  0
    2.8546    2.9797    0.9569 H   0  0  0  0  0  0  0  0  0  0  0  0
  1 14  1  0  0  0  0
  2  8  1  0  0  0  0
  2 13  1  0  0  0  0
  2 21  1  0  0  0  0
  3  6  1  0  0  0  0
  3 17  2  0  0  0  0
  4  8  2  0  0  0  0
  4 17  1  0  0  0  0
  5  6  2  0  0  0  0
  5  8  1  0  0  0  0
  5 10  1  0  0  0  0
  6  7  1  0  0  0  0
  7  9  2  0  0  0  0
  7 12  1  0  0  0  0
  9 11  1  0  0  0  0
  9 18  1  0  0  0  0
 10 13  2  0  0  0  0
 10 19  1  0  0  0  0
 11 14  2  0  0  0  0
 11 16  1  0  0  0  0
 12 15  2  0  0  0  0
 12 20  1  0  0  0  0
 13 22  1  0  0  0  0
 14 15  1  0  0  0  0
 15 23  1  0  0  0  0
 16 24  1  0  0  0  0
 16 25  1  0  0  0  0
 16 26  1  0  0  0  0
 17 27  1  0  0  0  0
M  END
> <PUBCHEM_COMPOUND_CID>
49830888

> <PUBCHEM_CONFORMER_RMSD>
0.6

> <PUBCHEM_CONFORMER_DIVERSEORDER>
1
4
3
2

> <PUBCHEM_MMFF94_PARTIAL_CHARGES>
22
1 -0.19
10 -0.15
11 -0.14
12 -0.15
13 -0.3
14 0.19
15 -0.15
16 0.14
17 0.47
18 0.15
19 0.15
2 0.03
20 0.15
21 0.27
22 0.15
23 0.15
27 0.15
3 -0.62
4 -0.57
6 0.31
8 0.11
9 -0.15

> <PUBCHEM_EFFECTIVE_ROTOR_COUNT>
1

> <PUBCHEM_PHARMACOPHORE_FEATURES>
6
1 2 donor
3 2 4 8 cation
3 3 4 17 cation
5 2 5 8 10 13 rings
6 3 4 5 6 8 17 rings
6 7 9 11 12 14 15 rings

> <PUBCHEM_HEAVY_ATOM_COUNT>
17

> <PUBCHEM_ATOM_DEF_STEREO_COUNT>
0

> <PUBCHEM_ATOM_UDEF_STEREO_COUNT>
0

> <PUBCHEM_BOND_DEF_STEREO_COUNT>
0

> <PUBCHEM_BOND_UDEF_STEREO_COUNT>
0

> <PUBCHEM_ISOTOPIC_ATOM_COUNT>
0

> <PUBCHEM_COMPONENT_COUNT>
1

> <PUBCHEM_CACTVS_TAUTO_COUNT>
3

> <PUBCHEM_CONFORMER_ID>
02F85BE800000001

> <PUBCHEM_MMFF94_ENERGY>
39.1119

> <PUBCHEM_FEATURE_SELFOVERLAP>
30.724

> <PUBCHEM_SHAPE_FINGERPRINT>
10608611 8 18408316674995400269
10922523 26 18334012804613706359
11471102 20 18343017800576754012
11582403 64 16749512133912788349
11615757 297 17846782922541146489
12236239 1 16630525145817209653
12553582 1 17836942096237099098
13296908 3 18260834812464195067
13538477 17 16271635788999333893
13544592 145 18261674770965832359
14251717 144 18272647948128807182
14252887 29 18189066450361854195
14289901 80 18131064974265876609
14386348 63 18333734619550432195
15219456 202 18409165536615881113
15375358 24 18334006216265742927
15635459 17 18410857629118756119
16945 1 18273212015105989208
17834074 16 18408887347442132691
1813 80 16915962673020656236
18175812 5 18334857242365462719
18186145 218 18115018585600955845
19049666 15 18263921051351052673
19141452 34 18337120068157340683
200 152 17989481914245136997
20201158 50 18410293579664022594
20279233 1 18334575750219490715
204376 136 17984975145190891408
20645477 70 18272928302134884663
21730867 7 18411701010650974696
221490 88 18410018732191342158
22721475 48 18337397049637591924
22802520 49 18335419041289039853
22943178 12 18334855030541694649
23402539 116 17531518884125406774
23557571 272 17967532410854169349
23559900 14 18113617863690159742
2748010 2 18407757044966880492
2838139 119 16227481610326888622
33824 294 18341327872685084010
474 4 16484981799928053976
495365 180 18129644383630946473
5104073 3 18411417293532693801
581208 293 18272082833706819976
6049 1 18334301958902479181
69090 78 18410847785602132039
7364860 26 18343861130432721776
77492 1 16630525145875244909
81228 2 17894917282938263573
8272917 22 17988932132714218991
8809292 202 18260553298743211987
9709674 26 18408319995294965079

> <PUBCHEM_SHAPE_MULTIPOLES>
327.64
7.36
2.08
1.01
2.95
0.24
0.05
1.48
-0.02
-1.33
0.08
0.56
0.07
1.71

> <PUBCHEM_SHAPE_SELFOVERLAP>
736.317

> <PUBCHEM_SHAPE_VOLUME>
175

> <PUBCHEM_COORDINATE_TYPE>
2
5
10

$$$$
