23647258
  -OEChem-10052120443D

 40 42  0     0  0  0  0  0  0999 V2000
    2.1354   -2.5944    1.3785 F   0  0  0  0  0  0  0  0  0  0  0  0
   -5.1991   -1.3788    1.2441 O   0  0  0  0  0  0  0  0  0  0  0  0
   -3.6946    0.1351    2.0257 O   0  0  0  0  0  0  0  0  0  0  0  0
   -2.1925    1.1072   -0.1016 N   0  0  0  0  0  0  0  0  0  0  0  0
    2.4421    1.9875    0.0134 N   0  0  0  0  0  0  0  0  0  0  0  0
    0.1424    1.5259   -0.0428 N   0  0  0  0  0  0  0  0  0  0  0  0
    0.9509    3.7950   -0.1081 N   0  0  0  0  0  0  0  0  0  0  0  0
   -2.3287   -0.2178   -0.5728 C   0  0  0  0  0  0  0  0  0  0  0  0
    2.9910    0.6935    0.0834 C   0  0  0  0  0  0  0  0  0  0  0  0
    4.0788   -1.8716    0.2225 C   0  0  0  0  0  0  0  0  0  0  0  0
   -3.2085   -1.1094    0.0411 C   0  0  0  0  0  0  0  0  0  0  0  0
   -1.1150    2.0115   -0.1032 C   0  0  0  0  0  0  0  0  0  0  0  0
    2.2809   -0.3324    0.7073 C   0  0  0  0  0  0  0  0  0  0  0  0
    4.2449    0.4366   -0.4711 C   0  0  0  0  0  0  0  0  0  0  0  0
    2.8249   -1.6150    0.7769 C   0  0  0  0  0  0  0  0  0  0  0  0
    4.7887   -0.8457   -0.4016 C   0  0  0  0  0  0  0  0  0  0  0  0
    1.1128    2.4594   -0.0489 C   0  0  0  0  0  0  0  0  0  0  0  0
   -1.5690   -0.6302   -1.6676 C   0  0  0  0  0  0  0  0  0  0  0  0
   -3.3285   -2.4132   -0.4400 C   0  0  0  0  0  0  0  0  0  0  0  0
   -1.4151    3.3569   -0.1671 C   0  0  0  0  0  0  0  0  0  0  0  0
   -1.6892   -1.9339   -2.1487 C   0  0  0  0  0  0  0  0  0  0  0  0
    4.6637   -3.2417    0.2954 C   0  0  0  0  0  0  0  0  0  0  0  0
   -2.5688   -2.8255   -1.5349 C   0  0  0  0  0  0  0  0  0  0  0  0
   -0.3312    4.2109   -0.1666 C   0  0  0  0  0  0  0  0  0  0  0  0
   -4.0162   -0.7099    1.1866 C   0  0  0  0  0  0  0  0  0  0  0  0
   -2.9838    1.4365    0.4439 H   0  0  0  0  0  0  0  0  0  0  0  0
    1.3221   -0.1700    1.1880 H   0  0  0  0  0  0  0  0  0  0  0  0
    4.8079    1.2273   -0.9607 H   0  0  0  0  0  0  0  0  0  0  0  0
    3.1236    2.7264   -0.1315 H   0  0  0  0  0  0  0  0  0  0  0  0
    5.7671   -1.0303   -0.8372 H   0  0  0  0  0  0  0  0  0  0  0  0
   -0.8857    0.0478   -2.1720 H   0  0  0  0  0  0  0  0  0  0  0  0
   -3.9944   -3.1364    0.0237 H   0  0  0  0  0  0  0  0  0  0  0  0
   -2.4291    3.7337   -0.2162 H   0  0  0  0  0  0  0  0  0  0  0  0
   -1.0993   -2.2545   -3.0024 H   0  0  0  0  0  0  0  0  0  0  0  0
    4.9302   -3.4830    1.3295 H   0  0  0  0  0  0  0  0  0  0  0  0
    3.9462   -3.9837   -0.0706 H   0  0  0  0  0  0  0  0  0  0  0  0
    5.5672   -3.3324   -0.3169 H   0  0  0  0  0  0  0  0  0  0  0  0
   -2.6600   -3.8414   -1.9082 H   0  0  0  0  0  0  0  0  0  0  0  0
   -0.4679    5.2860   -0.2148 H   0  0  0  0  0  0  0  0  0  0  0  0
   -5.7368   -1.1041    2.0173 H   0  0  0  0  0  0  0  0  0  0  0  0
  1 15  1  0  0  0  0
  2 25  1  0  0  0  0
  2 40  1  0  0  0  0
  3 25  2  0  0  0  0
  4  8  1  0  0  0  0
  4 12  1  0  0  0  0
  4 26  1  0  0  0  0
  5  9  1  0  0  0  0
  5 17  1  0  0  0  0
  5 29  1  0  0  0  0
  6 12  2  0  0  0  0
  6 17  1  0  0  0  0
  7 17  2  0  0  0  0
  7 24  1  0  0  0  0
  8 11  1  0  0  0  0
  8 18  2  0  0  0  0
  9 13  2  0  0  0  0
  9 14  1  0  0  0  0
 10 15  2  0  0  0  0
 10 16  1  0  0  0  0
 10 22  1  0  0  0  0
 11 19  2  0  0  0  0
 11 25  1  0  0  0  0
 12 20  1  0  0  0  0
 13 15  1  0  0  0  0
 13 27  1  0  0  0  0
 14 16  2  0  0  0  0
 14 28  1  0  0  0  0
 16 30  1  0  0  0  0
 18 21  1  0  0  0  0
 18 31  1  0  0  0  0
 19 23  1  0  0  0  0
 19 32  1  0  0  0  0
 20 24  2  0  0  0  0
 20 33  1  0  0  0  0
 21 23  2  0  0  0  0
 21 34  1  0  0  0  0
 22 35  1  0  0  0  0
 22 36  1  0  0  0  0
 22 37  1  0  0  0  0
 23 38  1  0  0  0  0
 24 39  1  0  0  0  0
M  END
> <PUBCHEM_COMPOUND_CID>
23647258

> <PUBCHEM_CONFORMER_RMSD>
1

> <PUBCHEM_CONFORMER_DIVERSEORDER>
1
10
100
2
26
29
102
90
57
35
79
61
33
83
89
71
55
85
51
11
107
15
64
53
92
82
31
12
76
38
16
45
80
68
56
39
44
25
111
13
47
112
48
37
69
3
27
63
59
110
86
40
95
14
50
99
9
58
74
87
21
98
65
54
78
77
106
101
36
75
105
70
113
97
109
28
81
108
52
88
73
96
104
46
72
32
22
67
84
4
91
34
94
43
60
5
41
17
66
42
62
30
20
23
6
103
18
49
19
24
93
8
7

> <PUBCHEM_MMFF94_PARTIAL_CHARGES>
37
1 -0.19
10 -0.14
11 0.09
12 0.41
13 -0.15
14 -0.15
15 0.19
16 -0.15
17 0.72
18 -0.15
19 -0.15
2 -0.65
20 -0.15
21 -0.15
22 0.14
23 -0.15
24 0.16
25 0.63
26 0.4
27 0.15
28 0.15
29 0.4
3 -0.57
30 0.15
31 0.15
32 0.15
33 0.15
34 0.15
38 0.15
39 0.15
4 -0.6
40 0.5
5 -0.6
6 -0.62
7 -0.62
8 0.1
9 0.1

> <PUBCHEM_EFFECTIVE_ROTOR_COUNT>
5

> <PUBCHEM_PHARMACOPHORE_FEATURES>
9
1 2 acceptor
1 3 acceptor
1 4 donor
1 5 donor
3 2 3 25 anion
4 5 6 7 17 cation
6 6 7 12 17 20 24 rings
6 8 11 18 19 21 23 rings
6 9 10 13 14 15 16 rings

> <PUBCHEM_HEAVY_ATOM_COUNT>
25

> <PUBCHEM_ATOM_DEF_STEREO_COUNT>
0

> <PUBCHEM_ATOM_UDEF_STEREO_COUNT>
0

> <PUBCHEM_BOND_DEF_STEREO_COUNT>
0

> <PUBCHEM_BOND_UDEF_STEREO_COUNT>
0

> <PUBCHEM_ISOTOPIC_ATOM_COUNT>
0

> <PUBCHEM_COMPONENT_COUNT>
1

> <PUBCHEM_CACTVS_TAUTO_COUNT>
13

> <PUBCHEM_CONFORMER_ID>
0168D41A00000001

> <PUBCHEM_MMFF94_ENERGY>
94.8199

> <PUBCHEM_FEATURE_SELFOVERLAP>
45.728

> <PUBCHEM_SHAPE_FINGERPRINT>
10616163 171 18122060901905608386
10622 236 17700394056648279335
10764073 3 18190754038108595597
11578080 2 17773290483236493337
12107183 9 18341628014259557249
12422481 6 17985005703587355347
12553582 1 18410284843853425870
12633257 1 17060336322963424802
13533116 47 17979917443469627791
13583140 156 18189620626219413059
13726171 33 17984452705501284044
138480 1 15169668487928675516
14279260 333 17681555832172802394
14844126 61 18121765150325776610
15042514 8 18193842539520259888
15403338 16 18333450941725438931
15537594 2 18339653325202955630
16110190 28 18272938232484160556
17349148 13 17560516326498006735
17809404 112 17905281330827761622
17818456 19 17774457087001339665
19319366 153 18116441534399863222
19930381 70 17975972386431213355
20291156 8 18411976983737688556
235170 7 16081084887809394582
23598288 3 18192427480892124149
23598291 2 18056764458074812493
23728640 28 17981029830522783116
3737641 26 18410579491911532382
392239 28 18267848649347494000
44880168 125 17417253113568017462
463206 1 18263648531576521490
56633871 153 18272655636410872231
7097593 13 18127412478279901453
86090 222 16952261056373335115

> <PUBCHEM_SHAPE_MULTIPOLES>
475.55
9.32
4.89
1.39
3.82
3.94
-0.08
-8.44
2.37
0.37
-0.64
-1.5
-1
-1.09

> <PUBCHEM_SHAPE_SELFOVERLAP>
1037.263

> <PUBCHEM_SHAPE_VOLUME>
256.2

> <PUBCHEM_COORDINATE_TYPE>
2
5
10

$$$$
