49830502
  -OEChem-10052120433D

 45 47  0     1  0  0  0  0  0999 V2000
    0.1408   -0.0526    1.5172 F   0  0  0  0  0  0  0  0  0  0  0  0
    3.0655   -3.4527    1.6387 O   0  0  0  0  0  0  0  0  0  0  0  0
    1.5359   -0.7425   -2.1230 O   0  0  0  0  0  0  0  0  0  0  0  0
    1.8100   -1.3827    0.0884 N   0  0  0  0  0  0  0  0  0  0  0  0
   -7.1283    0.7767    0.5009 N   0  0  0  0  0  0  0  0  0  0  0  0
    3.2215   -1.6934   -0.0022 C   0  0  1  0  0  0  0  0  0  0  0  0
    4.0363   -0.8207    0.9652 C   0  0  0  0  0  0  0  0  0  0  0  0
    3.4440   -3.1774    0.2948 C   0  0  0  0  0  0  0  0  0  0  0  0
    4.2334    0.5911    0.4661 C   0  0  0  0  0  0  0  0  0  0  0  0
    1.0813   -0.9278   -0.9972 C   0  0  0  0  0  0  0  0  0  0  0  0
   -0.3498   -0.6287   -0.7339 C   0  0  0  0  0  0  0  0  0  0  0  0
    5.3433    0.9052   -0.3183 C   0  0  0  0  0  0  0  0  0  0  0  0
    3.3052    1.5808    0.7893 C   0  0  0  0  0  0  0  0  0  0  0  0
   -3.0392   -0.0707   -0.2447 C   0  0  0  0  0  0  0  0  0  0  0  0
   -0.7544   -0.2002    0.5303 C   0  0  0  0  0  0  0  0  0  0  0  0
   -1.2899   -0.7782   -1.7535 C   0  0  0  0  0  0  0  0  0  0  0  0
    5.5249    2.2091   -0.7793 C   0  0  0  0  0  0  0  0  0  0  0  0
    3.4867    2.8847    0.3280 C   0  0  0  0  0  0  0  0  0  0  0  0
   -2.0991    0.0789    0.7749 C   0  0  0  0  0  0  0  0  0  0  0  0
   -2.6345   -0.4993   -1.5090 C   0  0  0  0  0  0  0  0  0  0  0  0
    4.5965    3.1988   -0.4564 C   0  0  0  0  0  0  0  0  0  0  0  0
   -4.4339    0.2181    0.0091 C   0  0  0  0  0  0  0  0  0  0  0  0
   -5.4264   -0.4630   -0.6871 C   0  0  0  0  0  0  0  0  0  0  0  0
   -4.7872    1.1781    0.9509 C   0  0  0  0  0  0  0  0  0  0  0  0
   -6.7466   -0.1497   -0.4069 C   0  0  0  0  0  0  0  0  0  0  0  0
   -6.1361    1.4180    1.1579 C   0  0  0  0  0  0  0  0  0  0  0  0
    3.5625   -1.5142   -1.0292 H   0  0  0  0  0  0  0  0  0  0  0  0
    5.0294   -1.2631    1.1224 H   0  0  0  0  0  0  0  0  0  0  0  0
    3.5672   -0.7910    1.9579 H   0  0  0  0  0  0  0  0  0  0  0  0
    4.4974   -3.4477    0.1675 H   0  0  0  0  0  0  0  0  0  0  0  0
    2.8376   -3.8032   -0.3688 H   0  0  0  0  0  0  0  0  0  0  0  0
    1.3558   -1.5280    0.9849 H   0  0  0  0  0  0  0  0  0  0  0  0
    6.0722    0.1425   -0.5790 H   0  0  0  0  0  0  0  0  0  0  0  0
    2.4379    1.3506    1.4017 H   0  0  0  0  0  0  0  0  0  0  0  0
   -0.9922   -1.1094   -2.7450 H   0  0  0  0  0  0  0  0  0  0  0  0
   -2.3712    0.3828    1.7819 H   0  0  0  0  0  0  0  0  0  0  0  0
   -3.3263   -0.6030   -2.3405 H   0  0  0  0  0  0  0  0  0  0  0  0
    6.3887    2.4536   -1.3906 H   0  0  0  0  0  0  0  0  0  0  0  0
    2.7640    3.6553    0.5799 H   0  0  0  0  0  0  0  0  0  0  0  0
    3.2215   -4.4005    1.7898 H   0  0  0  0  0  0  0  0  0  0  0  0
    4.7378    4.2140   -0.8157 H   0  0  0  0  0  0  0  0  0  0  0  0
   -5.2217   -1.2423   -1.4130 H   0  0  0  0  0  0  0  0  0  0  0  0
   -4.0653    1.7655    1.5077 H   0  0  0  0  0  0  0  0  0  0  0  0
   -7.5587   -0.6571   -0.9172 H   0  0  0  0  0  0  0  0  0  0  0  0
   -6.4644    2.1619    1.8764 H   0  0  0  0  0  0  0  0  0  0  0  0
  1 15  1  0  0  0  0
  2  8  1  0  0  0  0
  2 40  1  0  0  0  0
  3 10  2  0  0  0  0
  4  6  1  0  0  0  0
  4 10  1  0  0  0  0
  4 32  1  0  0  0  0
  5 25  2  0  0  0  0
  5 26  1  0  0  0  0
  6  7  1  0  0  0  0
  6  8  1  0  0  0  0
  6 27  1  0  0  0  0
  7  9  1  0  0  0  0
  7 28  1  0  0  0  0
  7 29  1  0  0  0  0
  8 30  1  0  0  0  0
  8 31  1  0  0  0  0
  9 12  2  0  0  0  0
  9 13  1  0  0  0  0
 10 11  1  0  0  0  0
 11 15  2  0  0  0  0
 11 16  1  0  0  0  0
 12 17  1  0  0  0  0
 12 33  1  0  0  0  0
 13 18  2  0  0  0  0
 13 34  1  0  0  0  0
 14 19  2  0  0  0  0
 14 20  1  0  0  0  0
 14 22  1  0  0  0  0
 15 19  1  0  0  0  0
 16 20  2  0  0  0  0
 16 35  1  0  0  0  0
 17 21  2  0  0  0  0
 17 38  1  0  0  0  0
 18 21  1  0  0  0  0
 18 39  1  0  0  0  0
 19 36  1  0  0  0  0
 20 37  1  0  0  0  0
 21 41  1  0  0  0  0
 22 23  2  0  0  0  0
 22 24  1  0  0  0  0
 23 25  1  0  0  0  0
 23 42  1  0  0  0  0
 24 26  2  0  0  0  0
 24 43  1  0  0  0  0
 25 44  1  0  0  0  0
 26 45  1  0  0  0  0
M  END
> <PUBCHEM_COMPOUND_CID>
49830502

> <PUBCHEM_CONFORMER_RMSD>
0.8

> <PUBCHEM_CONFORMER_DIVERSEORDER>
3
79
49
53
83
46
35
87
80
76
57
68
82
1
33
15
24
77
8
27
50
73
81
5
72
2
17
67
11
45
84
63
86
22
4
75
74
62
25
9
60
64
30
70
18
40
48
37
42
10
39
59
58
14
28
61
7
52
71
66
56
36
13
47
29
21
19
78
16
55
23
65
88
12
43
44
31
51
54
20
69
32
85
26
34
41
6
38

> <PUBCHEM_MMFF94_PARTIAL_CHARGES>
38
1 -0.19
10 0.54
11 0.09
12 -0.15
13 -0.15
15 0.19
16 -0.15
17 -0.15
18 -0.15
19 -0.15
2 -0.68
20 -0.15
21 -0.15
23 -0.15
24 -0.15
25 0.16
26 0.16
3 -0.57
32 0.37
33 0.15
34 0.15
35 0.15
36 0.15
37 0.15
38 0.15
39 0.15
4 -0.73
40 0.4
41 0.15
42 0.15
43 0.15
44 0.15
45 0.15
5 -0.62
6 0.3
7 0.14
8 0.28
9 -0.14

> <PUBCHEM_EFFECTIVE_ROTOR_COUNT>
7

> <PUBCHEM_PHARMACOPHORE_FEATURES>
8
1 2 acceptor
1 2 donor
1 3 acceptor
1 4 donor
1 5 acceptor
6 11 14 15 16 19 20 rings
6 5 22 23 24 25 26 rings
6 9 12 13 17 18 21 rings

> <PUBCHEM_HEAVY_ATOM_COUNT>
26

> <PUBCHEM_ATOM_DEF_STEREO_COUNT>
0

> <PUBCHEM_ATOM_UDEF_STEREO_COUNT>
1

> <PUBCHEM_BOND_DEF_STEREO_COUNT>
0

> <PUBCHEM_BOND_UDEF_STEREO_COUNT>
0

> <PUBCHEM_ISOTOPIC_ATOM_COUNT>
0

> <PUBCHEM_COMPONENT_COUNT>
1

> <PUBCHEM_CACTVS_TAUTO_COUNT>
2

> <PUBCHEM_CONFORMER_ID>
02F85A6600000003

> <PUBCHEM_MMFF94_ENERGY>
73.817

> <PUBCHEM_FEATURE_SELFOVERLAP>
40.599

> <PUBCHEM_SHAPE_FINGERPRINT>
10165383 225 17967538995814299774
10411042 1 17977101263637050706
10554248 39 17916012474595218765
10595046 47 18341893009219671857
10670039 82 16343718602921927808
10816530 23 18262801881669058986
10906281 52 17632030680298424843
11578080 2 18188505673366686922
11828532 37 15410602744161579486
12236239 1 17988922271105427182
12596602 18 18408324372352001779
12633257 1 17896300546096359482
12730499 353 18187649119817994066
12788726 201 17489315152553607553
13533116 47 18188210896802491579
13583140 156 18338524135182482731
13785724 45 17767691555284897206
13878862 14 18265309764681197133
13955234 65 18187077313769024890
14251740 57 12613295548557803432
14251764 75 18119532282955532236
14528608 73 18059856202962167273
14863182 85 14129051496557529208
15131766 46 18267293404048963317
15142526 21 18193552496584473168
15183329 4 17775289378575559513
15475509 8 14476697316252398595
15961568 22 18343309162827494069
17844677 252 18263925445392662357
20567600 234 17894914078670835453
21033648 29 17241027877665499916
21049683 271 17896042041048677718
21315764 119 16773810194525541652
21344244 78 18197479754772044106
21641784 216 16343433821289891697
22122407 14 18342186586824068217
23081809 10 17917704678967338863
23522609 53 17916885568559048297
23559900 14 17603884281342785254
23845131 108 18188207731986841610
25147074 1 18058996372074132943
255183 451 17984709918239375422
3004659 81 17846218808847150062
3178227 256 18113612375428889506
3472631 163 17987804136774237036
38570 142 18340217392201405932
394071 54 17821451282744596588
397830 11 18114475551853705811
4058900 60 17917444107317208071
4073 2 18260834842887993987
4340502 62 18260269655140592587
44555599 121 18198910215173943553
474 4 18410571829631743560
633830 44 18270115855139992964
8272917 22 18410011040221081802
8988823 20 18261108539198805330

> <PUBCHEM_SHAPE_MULTIPOLES>
506.09
16.4
2.93
1.43
19.22
0.34
-0.25
-8.47
1.58
-6.45
0.66
0.08
0.42
-2.23

> <PUBCHEM_SHAPE_SELFOVERLAP>
1096.435

> <PUBCHEM_SHAPE_VOLUME>
275.5

> <PUBCHEM_COORDINATE_TYPE>
2
5
10

$$$$
