22607499
  -OEChem-10052115183D

 52 56  0     1  0  0  0  0  0999 V2000
    2.4314    1.8064   -1.0431 O   0  0  0  0  0  0  0  0  0  0  0  0
   -6.8668   -1.3592   -1.8087 O   0  0  0  0  0  0  0  0  0  0  0  0
    3.7913   -2.0870    1.6716 N   0  0  0  0  0  0  0  0  0  0  0  0
    5.1070    1.5648   -2.5802 N   0  0  0  0  0  0  0  0  0  0  0  0
   -5.8092   -0.6029    0.1501 N   0  0  0  0  0  0  0  0  0  0  0  0
    0.6785    3.3421    1.7592 N   0  0  0  0  0  0  0  0  0  0  0  0
    4.1024   -0.4326   -1.5971 C   0  0  0  0  0  0  0  0  0  0  0  0
    4.7173    0.9504   -1.3060 C   0  0  2  0  0  0  0  0  0  0  0  0
    3.7187   -1.1926   -0.3586 C   0  0  0  0  0  0  0  0  0  0  0  0
    2.5045   -1.9022   -0.1414 C   0  0  0  0  0  0  0  0  0  0  0  0
    3.7739    1.9057   -0.5628 C   0  0  0  0  0  0  0  0  0  0  0  0
    2.5756   -2.4538    1.1395 C   0  0  0  0  0  0  0  0  0  0  0  0
    4.4891   -1.3247    0.7737 C   0  0  0  0  0  0  0  0  0  0  0  0
   -3.8635    0.1904   -0.7206 C   0  0  0  0  0  0  0  0  0  0  0  0
   -4.5951    0.0046    0.4497 C   0  0  0  0  0  0  0  0  0  0  0  0
   -4.6438   -0.3298   -1.8857 C   0  0  0  0  0  0  0  0  0  0  0  0
   -2.1147    1.1786    0.5601 C   0  0  0  0  0  0  0  0  0  0  0  0
    1.3482   -2.1288   -0.9142 C   0  0  0  0  0  0  0  0  0  0  0  0
   -2.6146    0.7791   -0.6837 C   0  0  0  0  0  0  0  0  0  0  0  0
    1.5441   -3.2238    1.6886 C   0  0  0  0  0  0  0  0  0  0  0  0
   -0.8093    1.7993    0.6401 C   0  0  0  0  0  0  0  0  0  0  0  0
   -5.9280   -0.8416   -1.2235 C   0  0  0  0  0  0  0  0  0  0  0  0
   -4.1256    0.3893    1.6891 C   0  0  0  0  0  0  0  0  0  0  0  0
   -2.8639    0.9851    1.7359 C   0  0  0  0  0  0  0  0  0  0  0  0
    1.4362    2.0958   -0.1691 C   0  0  0  0  0  0  0  0  0  0  0  0
    0.3084   -2.8971   -0.3780 C   0  0  0  0  0  0  0  0  0  0  0  0
    0.1920    1.4835   -0.2715 C   0  0  0  0  0  0  0  0  0  0  0  0
    0.4070   -3.4352    0.9037 C   0  0  0  0  0  0  0  0  0  0  0  0
   -0.5180    2.7265    1.6278 C   0  0  0  0  0  0  0  0  0  0  0  0
    1.6270    3.0097    0.8549 C   0  0  0  0  0  0  0  0  0  0  0  0
    3.2340   -0.3283   -2.2595 H   0  0  0  0  0  0  0  0  0  0  0  0
    4.8299   -1.0464   -2.1463 H   0  0  0  0  0  0  0  0  0  0  0  0
    5.6349    0.8414   -0.7150 H   0  0  0  0  0  0  0  0  0  0  0  0
    3.8196    1.6345    0.5009 H   0  0  0  0  0  0  0  0  0  0  0  0
    4.1166    2.9443   -0.6544 H   0  0  0  0  0  0  0  0  0  0  0  0
    5.4716   -0.9502    1.0251 H   0  0  0  0  0  0  0  0  0  0  0  0
    4.1203   -2.3443    2.5918 H   0  0  0  0  0  0  0  0  0  0  0  0
   -4.8890    0.4678   -2.5916 H   0  0  0  0  0  0  0  0  0  0  0  0
   -4.1278   -1.1604   -2.3739 H   0  0  0  0  0  0  0  0  0  0  0  0
    1.2524   -1.7172   -1.9148 H   0  0  0  0  0  0  0  0  0  0  0  0
    5.5811    2.4498   -2.4046 H   0  0  0  0  0  0  0  0  0  0  0  0
    5.7827    0.9680   -3.0559 H   0  0  0  0  0  0  0  0  0  0  0  0
   -2.0807    0.9327   -1.6154 H   0  0  0  0  0  0  0  0  0  0  0  0
    1.6197   -3.6427    2.6864 H   0  0  0  0  0  0  0  0  0  0  0  0
   -6.5080   -0.8370    0.8453 H   0  0  0  0  0  0  0  0  0  0  0  0
   -4.7025    0.2330    2.5932 H   0  0  0  0  0  0  0  0  0  0  0  0
   -2.4816    1.2617    2.7154 H   0  0  0  0  0  0  0  0  0  0  0  0
   -0.5866   -3.0735   -0.9687 H   0  0  0  0  0  0  0  0  0  0  0  0
    0.0475    0.7501   -1.0598 H   0  0  0  0  0  0  0  0  0  0  0  0
   -0.4131   -4.0280    1.3008 H   0  0  0  0  0  0  0  0  0  0  0  0
   -1.2457    3.0553    2.3631 H   0  0  0  0  0  0  0  0  0  0  0  0
    2.5571    3.5507    0.9931 H   0  0  0  0  0  0  0  0  0  0  0  0
  1 11  1  0  0  0  0
  1 25  1  0  0  0  0
  2 22  2  0  0  0  0
  3 12  1  0  0  0  0
  3 13  1  0  0  0  0
  3 37  1  0  0  0  0
  4  8  1  0  0  0  0
  4 41  1  0  0  0  0
  4 42  1  0  0  0  0
  5 15  1  0  0  0  0
  5 22  1  0  0  0  0
  5 45  1  0  0  0  0
  6 29  2  0  0  0  0
  6 30  1  0  0  0  0
  7  8  1  0  0  0  0
  7  9  1  0  0  0  0
  7 31  1  0  0  0  0
  7 32  1  0  0  0  0
  8 11  1  0  0  0  0
  8 33  1  0  0  0  0
  9 10  1  0  0  0  0
  9 13  2  0  0  0  0
 10 12  1  0  0  0  0
 10 18  2  0  0  0  0
 11 34  1  0  0  0  0
 11 35  1  0  0  0  0
 12 20  2  0  0  0  0
 13 36  1  0  0  0  0
 14 15  2  0  0  0  0
 14 16  1  0  0  0  0
 14 19  1  0  0  0  0
 15 23  1  0  0  0  0
 16 22  1  0  0  0  0
 16 38  1  0  0  0  0
 16 39  1  0  0  0  0
 17 19  2  0  0  0  0
 17 21  1  0  0  0  0
 17 24  1  0  0  0  0
 18 26  1  0  0  0  0
 18 40  1  0  0  0  0
 19 43  1  0  0  0  0
 20 28  1  0  0  0  0
 20 44  1  0  0  0  0
 21 27  2  0  0  0  0
 21 29  1  0  0  0  0
 23 24  2  0  0  0  0
 23 46  1  0  0  0  0
 24 47  1  0  0  0  0
 25 27  1  0  0  0  0
 25 30  2  0  0  0  0
 26 28  2  0  0  0  0
 26 48  1  0  0  0  0
 27 49  1  0  0  0  0
 28 50  1  0  0  0  0
 29 51  1  0  0  0  0
 30 52  1  0  0  0  0
M  END
> <PUBCHEM_COMPOUND_CID>
22607499

> <PUBCHEM_CONFORMER_RMSD>
1.4

> <PUBCHEM_CONFORMER_DIVERSEORDER>
1
16
13
12
40
74
36
86
7
32
29
68
15
56
54
49
83
21
65
53
55
43
78
59
72
41
28
62
22
42
31
58
88
14
90
46
11
27
30
26
4
37
24
10
20
71
80
48
50
17
35
60
47
64
70
9
38
73
33
6
81
45
63
18
39
82
84
69
3
44
66
89
34
5
57
8
79
52
77
51
19
61
2
25
23
76
87
85
91
75
67

> <PUBCHEM_MMFF94_PARTIAL_CHARGES>
42
1 -0.36
11 0.28
12 -0.15
13 -0.3
14 -0.14
15 0.12
16 0.2
18 -0.15
19 -0.15
2 -0.57
20 -0.15
22 0.57
23 -0.15
24 -0.15
25 0.08
26 -0.15
27 -0.15
28 -0.15
29 0.16
3 0.03
30 0.16
36 0.15
37 0.27
4 -0.99
40 0.15
41 0.36
42 0.36
43 0.15
44 0.15
45 0.37
46 0.15
47 0.15
48 0.15
49 0.15
5 -0.55
50 0.15
51 0.15
52 0.15
6 -0.62
7 0.18
8 0.27
9 -0.18

> <PUBCHEM_EFFECTIVE_ROTOR_COUNT>
6.4

> <PUBCHEM_PHARMACOPHORE_FEATURES>
13
1 1 acceptor
1 2 acceptor
1 3 cation
1 3 donor
1 4 cation
1 4 donor
1 5 donor
1 6 acceptor
5 3 9 10 12 13 rings
5 5 14 15 16 22 rings
6 10 12 18 20 26 28 rings
6 14 15 17 19 23 24 rings
6 6 21 25 27 29 30 rings

> <PUBCHEM_HEAVY_ATOM_COUNT>
30

> <PUBCHEM_ATOM_DEF_STEREO_COUNT>
0

> <PUBCHEM_ATOM_UDEF_STEREO_COUNT>
1

> <PUBCHEM_BOND_DEF_STEREO_COUNT>
0

> <PUBCHEM_BOND_UDEF_STEREO_COUNT>
0

> <PUBCHEM_ISOTOPIC_ATOM_COUNT>
0

> <PUBCHEM_COMPONENT_COUNT>
1

> <PUBCHEM_CACTVS_TAUTO_COUNT>
3

> <PUBCHEM_CONFORMER_ID>
0158F68B00000001

> <PUBCHEM_MMFF94_ENERGY>
81.6776

> <PUBCHEM_FEATURE_SELFOVERLAP>
66.155

> <PUBCHEM_SHAPE_FINGERPRINT>
10764073 3 11387799812977166518
10940486 97 17116647540719410350
1100329 8 18411412951458283586
11069576 57 18262519182895518350
11513181 2 17914069598377729350
12156800 1 17836907255799271010
12166972 35 17969213443832191786
12553582 1 18200880569415695009
12788726 201 18200609007440080264
14787075 74 18411145722634515950
14931854 50 18411430518037684940
15001296 14 17987505091370706727
15183329 4 18343300324385809061
17134984 74 18263076772819249503
17138139 8 18271809093897638140
17492 54 18335148613215848638
19026451 147 18340194224388428587
19319366 153 18334287682653396174
20028762 73 18272088245588075542
20775530 9 17683527234560543938
208703 8 18060418014981280095
21421861 104 18051157816019374177
21703447 108 17845640573532943153
235170 7 17313108548636412813
392239 28 18200293439355450290
397830 11 10519420905563374517
404807 78 17533789470654358563
4098825 35 18113612345332535021
4409770 3 16253043335005270289
4573279 79 15650671036889321130
46194498 28 16662075705333960885
463206 1 18341611555512218907
484989 97 18189630495411187946
513532 50 17632291337215093888
6287921 2 17770511828263511958
6669772 16 18124583438929988368

> <PUBCHEM_SHAPE_MULTIPOLES>
585.72
12.34
4.13
2.01
14.07
0.59
-0.21
3.08
-6.45
-3.71
1.84
-0.03
-0.17
-2.91

> <PUBCHEM_SHAPE_SELFOVERLAP>
1307.321

> <PUBCHEM_SHAPE_VOLUME>
312.5

> <PUBCHEM_COORDINATE_TYPE>
2
5
10

$$$$
