24905215
  -OEChem-10052115163D

 39 42  0     0  0  0  0  0  0999 V2000
    2.6505    1.0374   -0.0501 N   0  0  0  0  0  0  0  0  0  0  0  0
    1.3670    1.4006    0.1301 N   0  0  0  0  0  0  0  0  0  0  0  0
    3.9916   -0.9643   -0.2898 N   0  0  0  0  0  0  0  0  0  0  0  0
    2.6273   -2.9832   -0.1747 N   0  0  0  0  0  0  0  0  0  0  0  0
    0.2615   -2.9252    0.1367 N   0  0  0  0  0  0  0  0  0  0  0  0
   -5.7383    0.1952   -0.1853 N   0  0  0  0  0  0  0  0  0  0  0  0
    3.6705    2.0540   -0.1518 C   0  0  0  0  0  0  0  0  0  0  0  0
    1.5744   -0.8732    0.0307 C   0  0  0  0  0  0  0  0  0  0  0  0
    2.8308   -0.3123   -0.1165 C   0  0  0  0  0  0  0  0  0  0  0  0
    0.7167    0.2327    0.1784 C   0  0  0  0  0  0  0  0  0  0  0  0
   -0.7075    0.2158    0.3652 C   0  0  0  0  0  0  0  0  0  0  0  0
    3.7723    2.8798    1.1330 C   0  0  0  0  0  0  0  0  0  0  0  0
    3.4440    2.9592   -1.3652 C   0  0  0  0  0  0  0  0  0  0  0  0
    1.4938   -2.2614   -0.0028 C   0  0  0  0  0  0  0  0  0  0  0  0
   -1.5558    0.2451   -0.7430 C   0  0  0  0  0  0  0  0  0  0  0  0
   -1.2389    0.1698    1.6519 C   0  0  0  0  0  0  0  0  0  0  0  0
   -2.9502    0.2290   -0.5759 C   0  0  0  0  0  0  0  0  0  0  0  0
   -3.4844    0.1826    0.7284 C   0  0  0  0  0  0  0  0  0  0  0  0
   -2.6214    0.1531    1.8362 C   0  0  0  0  0  0  0  0  0  0  0  0
    3.7892   -2.2995   -0.3055 C   0  0  0  0  0  0  0  0  0  0  0  0
   -3.8270    0.2577   -1.6665 C   0  0  0  0  0  0  0  0  0  0  0  0
   -4.8749    0.1679    0.8551 C   0  0  0  0  0  0  0  0  0  0  0  0
   -5.1912    0.2391   -1.4186 C   0  0  0  0  0  0  0  0  0  0  0  0
    4.6296    1.5416   -0.2942 H   0  0  0  0  0  0  0  0  0  0  0  0
    2.8572    3.4525    1.3204 H   0  0  0  0  0  0  0  0  0  0  0  0
    4.6055    3.5880    1.0721 H   0  0  0  0  0  0  0  0  0  0  0  0
    3.9427    2.2320    2.0001 H   0  0  0  0  0  0  0  0  0  0  0  0
    2.5162    3.5350   -1.2739 H   0  0  0  0  0  0  0  0  0  0  0  0
    3.3793    2.3684   -2.2856 H   0  0  0  0  0  0  0  0  0  0  0  0
    4.2704    3.6691   -1.4774 H   0  0  0  0  0  0  0  0  0  0  0  0
   -1.1342    0.2804   -1.7468 H   0  0  0  0  0  0  0  0  0  0  0  0
   -0.5898    0.1460    2.5242 H   0  0  0  0  0  0  0  0  0  0  0  0
   -3.0197    0.1169    2.8476 H   0  0  0  0  0  0  0  0  0  0  0  0
    4.6769   -2.9078   -0.4415 H   0  0  0  0  0  0  0  0  0  0  0  0
   -3.4617    0.2936   -2.6883 H   0  0  0  0  0  0  0  0  0  0  0  0
   -0.5993   -2.4144    0.2662 H   0  0  0  0  0  0  0  0  0  0  0  0
    0.2477   -3.9358    0.1068 H   0  0  0  0  0  0  0  0  0  0  0  0
   -5.3514    0.1326    1.8310 H   0  0  0  0  0  0  0  0  0  0  0  0
   -5.9025    0.2602   -2.2379 H   0  0  0  0  0  0  0  0  0  0  0  0
  1  2  1  0  0  0  0
  1  7  1  0  0  0  0
  1  9  1  0  0  0  0
  2 10  2  0  0  0  0
  3  9  2  0  0  0  0
  3 20  1  0  0  0  0
  4 14  1  0  0  0  0
  4 20  2  0  0  0  0
  5 14  1  0  0  0  0
  5 36  1  0  0  0  0
  5 37  1  0  0  0  0
  6 22  2  0  0  0  0
  6 23  1  0  0  0  0
  7 12  1  0  0  0  0
  7 13  1  0  0  0  0
  7 24  1  0  0  0  0
  8  9  1  0  0  0  0
  8 10  1  0  0  0  0
  8 14  2  0  0  0  0
 10 11  1  0  0  0  0
 11 15  2  0  0  0  0
 11 16  1  0  0  0  0
 12 25  1  0  0  0  0
 12 26  1  0  0  0  0
 12 27  1  0  0  0  0
 13 28  1  0  0  0  0
 13 29  1  0  0  0  0
 13 30  1  0  0  0  0
 15 17  1  0  0  0  0
 15 31  1  0  0  0  0
 16 19  2  0  0  0  0
 16 32  1  0  0  0  0
 17 18  2  0  0  0  0
 17 21  1  0  0  0  0
 18 19  1  0  0  0  0
 18 22  1  0  0  0  0
 19 33  1  0  0  0  0
 20 34  1  0  0  0  0
 21 23  2  0  0  0  0
 21 35  1  0  0  0  0
 22 38  1  0  0  0  0
 23 39  1  0  0  0  0
M  END
> <PUBCHEM_COMPOUND_CID>
24905215

> <PUBCHEM_CONFORMER_RMSD>
0.6

> <PUBCHEM_CONFORMER_DIVERSEORDER>
2
5
4
3
6
1

> <PUBCHEM_MMFF94_PARTIAL_CHARGES>
27
1 0.31
10 0.23
11 0.05
14 0.41
15 -0.15
16 -0.15
19 -0.15
2 -0.71
20 0.47
21 -0.15
22 0.16
23 0.16
3 -0.57
31 0.15
32 0.15
33 0.15
34 0.15
35 0.15
36 0.4
37 0.4
38 0.15
39 0.15
4 -0.62
5 -0.9
6 -0.62
7 0.26
9 0.11

> <PUBCHEM_EFFECTIVE_ROTOR_COUNT>
2

> <PUBCHEM_PHARMACOPHORE_FEATURES>
11
1 2 acceptor
1 5 cation
1 5 donor
1 6 acceptor
3 1 3 9 cation
3 3 4 20 cation
3 7 12 13 hydrophobe
5 1 2 8 9 10 rings
6 11 15 16 17 18 19 rings
6 3 4 8 9 14 20 rings
6 6 17 18 21 22 23 rings

> <PUBCHEM_HEAVY_ATOM_COUNT>
23

> <PUBCHEM_ATOM_DEF_STEREO_COUNT>
0

> <PUBCHEM_ATOM_UDEF_STEREO_COUNT>
0

> <PUBCHEM_BOND_DEF_STEREO_COUNT>
0

> <PUBCHEM_BOND_UDEF_STEREO_COUNT>
0

> <PUBCHEM_ISOTOPIC_ATOM_COUNT>
0

> <PUBCHEM_COMPONENT_COUNT>
1

> <PUBCHEM_CACTVS_TAUTO_COUNT>
5

> <PUBCHEM_CONFORMER_ID>
017C05FF00000002

> <PUBCHEM_MMFF94_ENERGY>
60.3035

> <PUBCHEM_FEATURE_SELFOVERLAP>
56.127

> <PUBCHEM_SHAPE_FINGERPRINT>
10366900 7 17896047558952316606
11582403 64 17680396104395809880
11725454 13 17677594514324017425
12236239 1 17704071759432738539
12403259 415 17821736026686791185
12616971 3 17988648463125231969
12730499 353 18337116764456538577
13009979 54 17344917299969530058
13140716 1 18338799035165617442
13533116 47 18342741810610715265
13631057 29 17769363152646194023
13911987 19 18120385499071808941
13955234 65 18411697682056783938
15375358 24 17749105617076597521
15842332 3 17703243805749562617
15961568 22 16733273459577376780
16752209 62 16486970666433834301
17138139 8 17557113380686153735
17818456 19 17271176310658660105
17844677 252 18337112272527720421
1813 80 17914348874731896542
18222031 100 18199185084327240042
200 152 18272648992201382107
20369508 70 17968652710171306562
204376 136 18265054806705639392
20511986 3 17631997694311528385
20554085 129 17702086162504813832
20600515 1 16153706578604465709
20612939 158 18412544301446113549
20645477 70 18335421253017680410
21033648 29 17748823004012694557
21065201 7 16515693234065790259
2255824 54 18342743983743191910
23557571 272 17167874053850207647
23559900 14 16660649527067481938
312423 11 18058743415695909657
341906 21 15719389529887853013
4340502 62 18341609377457306547
469060 322 17758684729892400659
474 4 18270961357732713880
495365 180 18408318908541632360
5281201 14 18260547775547164445
6034566 193 17828494900356093404
633830 44 18057629657471669577
70251023 43 18269275660003723163
7471813 234 18059290951143613608
7615 1 17917717846577608505
77492 1 17704076161779381395
8272917 22 18412268315500826245

> <PUBCHEM_SHAPE_MULTIPOLES>
443.44
10.51
2.88
1.37
9.38
0.65
0.12
-2.94
-1.94
-6.11
-0.27
1.3
-0.53
0.23

> <PUBCHEM_SHAPE_SELFOVERLAP>
993.384

> <PUBCHEM_SHAPE_VOLUME>
232.4

> <PUBCHEM_COORDINATE_TYPE>
2
5
10

$$$$
