13009352
  -OEChem-10062121583D

 67 73  0     1  0  0  0  0  0999 V2000
    4.5001    0.5493    0.5115 O   0  0  0  0  0  0  0  0  0  0  0  0
    5.3634   -1.1707   -2.5193 O   0  0  0  0  0  0  0  0  0  0  0  0
    6.8462    2.0599    0.1188 O   0  0  0  0  0  0  0  0  0  0  0  0
   -2.8333    2.6980    0.5075 O   0  0  0  0  0  0  0  0  0  0  0  0
   -4.0697   -1.7725    0.3523 O   0  0  0  0  0  0  0  0  0  0  0  0
    3.7490    4.9656    0.5973 O   0  0  0  0  0  0  0  0  0  0  0  0
    0.4085   -7.0992    0.1747 O   0  0  0  0  0  0  0  0  0  0  0  0
   -7.1598    2.8767    0.6053 O   0  0  0  0  0  0  0  0  0  0  0  0
   -5.4216    1.8687   -3.1109 O   0  0  0  0  0  0  0  0  0  0  0  0
    2.1390    0.3590    0.4352 N   0  0  0  0  0  0  0  0  0  0  0  0
    1.3972   -2.3206    0.3408 N   0  0  0  0  0  0  0  0  0  0  0  0
   -3.8248    0.5666    0.4332 N   0  0  0  0  0  0  0  0  0  0  0  0
   -5.1505    0.9243    0.4438 N   0  0  0  0  0  0  0  0  0  0  0  0
    3.4032   -0.3779    0.4094 C   0  0  1  0  0  0  0  0  0  0  0  0
    0.8345    0.0032    0.4209 C   0  0  0  0  0  0  0  0  0  0  0  0
    3.6108   -1.2011   -0.8566 C   0  0  0  0  0  0  0  0  0  0  0  0
    4.5878   -0.3663   -1.6546 C   0  0  1  0  0  0  0  0  0  0  0  0
   -0.2316    0.9635    0.4528 C   0  0  0  0  0  0  0  0  0  0  0  0
    5.4208    0.2704   -0.5552 C   0  0  1  0  0  0  0  0  0  0  0  0
    2.0325    1.7407    0.4834 C   0  0  0  0  0  0  0  0  0  0  0  0
    0.4612   -1.3451    0.3734 C   0  0  0  0  0  0  0  0  0  0  0  0
    0.6527    2.1374    0.4953 C   0  0  0  0  0  0  0  0  0  0  0  0
   -1.5926    0.6706    0.4404 C   0  0  0  0  0  0  0  0  0  0  0  0
   -0.9470   -1.6212    0.3617 C   0  0  0  0  0  0  0  0  0  0  0  0
   -1.9638   -0.6706    0.3932 C   0  0  0  0  0  0  0  0  0  0  0  0
   -0.7923   -3.0824    0.3114 C   0  0  0  0  0  0  0  0  0  0  0  0
    6.1125    1.5525   -0.9819 C   0  0  0  0  0  0  0  0  0  0  0  0
    0.5950   -3.4512    0.3006 C   0  0  0  0  0  0  0  0  0  0  0  0
   -2.8001    1.4841    0.4666 C   0  0  0  0  0  0  0  0  0  0  0  0
    3.0722    2.6825    0.5181 C   0  0  0  0  0  0  0  0  0  0  0  0
   -3.4177   -0.7479    0.3881 C   0  0  0  0  0  0  0  0  0  0  0  0
    0.3808    3.5261    0.5437 C   0  0  0  0  0  0  0  0  0  0  0  0
    2.7495    4.0392    0.5654 C   0  0  0  0  0  0  0  0  0  0  0  0
    1.4251    4.4565    0.5781 C   0  0  0  0  0  0  0  0  0  0  0  0
   -1.7399   -4.1338    0.2737 C   0  0  0  0  0  0  0  0  0  0  0  0
    1.0025   -4.7933    0.2549 C   0  0  0  0  0  0  0  0  0  0  0  0
   -5.4497    1.7794   -0.6970 C   0  0  0  0  0  0  0  0  0  0  0  0
   -1.3228   -5.4685    0.2284 C   0  0  0  0  0  0  0  0  0  0  0  0
    0.0277   -5.7911    0.2191 C   0  0  0  0  0  0  0  0  0  0  0  0
   -6.9149    2.2098   -0.6269 C   0  0  0  0  0  0  0  0  0  0  0  0
   -5.1402    1.0295   -1.9965 C   0  0  0  0  0  0  0  0  0  0  0  0
    3.4325   -0.9716    1.3293 H   0  0  0  0  0  0  0  0  0  0  0  0
    2.7273   -1.3957   -1.4713 H   0  0  0  0  0  0  0  0  0  0  0  0
    4.0796   -2.1661   -0.6223 H   0  0  0  0  0  0  0  0  0  0  0  0
    4.0462    0.3857   -2.2411 H   0  0  0  0  0  0  0  0  0  0  0  0
    6.1683   -0.4324   -0.1646 H   0  0  0  0  0  0  0  0  0  0  0  0
    2.3799   -2.3441    0.5131 H   0  0  0  0  0  0  0  0  0  0  0  0
    5.3974    2.3160   -1.3016 H   0  0  0  0  0  0  0  0  0  0  0  0
    6.8098    1.3611   -1.8036 H   0  0  0  0  0  0  0  0  0  0  0  0
    4.1269    2.4921    0.5679 H   0  0  0  0  0  0  0  0  0  0  0  0
   -0.6412    3.8908    0.5549 H   0  0  0  0  0  0  0  0  0  0  0  0
    6.0135   -0.5930   -2.9536 H   0  0  0  0  0  0  0  0  0  0  0  0
    1.1803    5.5154    0.6147 H   0  0  0  0  0  0  0  0  0  0  0  0
   -2.8042   -3.9216    0.2795 H   0  0  0  0  0  0  0  0  0  0  0  0
    2.0582   -5.0499    0.2473 H   0  0  0  0  0  0  0  0  0  0  0  0
   -5.3292    1.4273    1.3125 H   0  0  0  0  0  0  0  0  0  0  0  0
   -4.8725    2.7104   -0.6692 H   0  0  0  0  0  0  0  0  0  0  0  0
   -2.0775   -6.2510    0.2004 H   0  0  0  0  0  0  0  0  0  0  0  0
    7.2807    2.8774   -0.1787 H   0  0  0  0  0  0  0  0  0  0  0  0
   -7.5872    1.3466   -0.6914 H   0  0  0  0  0  0  0  0  0  0  0  0
   -7.1606    2.9011   -1.4397 H   0  0  0  0  0  0  0  0  0  0  0  0
   -4.0865    0.7461   -2.0774 H   0  0  0  0  0  0  0  0  0  0  0  0
   -5.7522    0.1249   -2.0876 H   0  0  0  0  0  0  0  0  0  0  0  0
    3.3556    5.8546    0.6275 H   0  0  0  0  0  0  0  0  0  0  0  0
   -0.3862   -7.6596    0.1543 H   0  0  0  0  0  0  0  0  0  0  0  0
   -8.0977    3.1334    0.6092 H   0  0  0  0  0  0  0  0  0  0  0  0
   -5.2255    1.3544   -3.9126 H   0  0  0  0  0  0  0  0  0  0  0  0
  1 14  1  0  0  0  0
  1 19  1  0  0  0  0
  2 17  1  0  0  0  0
  2 52  1  0  0  0  0
  3 27  1  0  0  0  0
  3 59  1  0  0  0  0
  4 29  2  0  0  0  0
  5 31  2  0  0  0  0
  6 33  1  0  0  0  0
  6 64  1  0  0  0  0
  7 39  1  0  0  0  0
  7 65  1  0  0  0  0
  8 40  1  0  0  0  0
  8 66  1  0  0  0  0
  9 41  1  0  0  0  0
  9 67  1  0  0  0  0
 10 14  1  0  0  0  0
 10 15  1  0  0  0  0
 10 20  1  0  0  0  0
 11 21  1  0  0  0  0
 11 28  1  0  0  0  0
 11 47  1  0  0  0  0
 12 13  1  0  0  0  0
 12 29  1  0  0  0  0
 12 31  1  0  0  0  0
 13 37  1  0  0  0  0
 13 56  1  0  0  0  0
 14 16  1  0  0  0  0
 14 42  1  0  0  0  0
 15 18  1  0  0  0  0
 15 21  2  0  0  0  0
 16 17  1  0  0  0  0
 16 43  1  0  0  0  0
 16 44  1  0  0  0  0
 17 19  1  0  0  0  0
 17 45  1  0  0  0  0
 18 22  1  0  0  0  0
 18 23  2  0  0  0  0
 19 27  1  0  0  0  0
 19 46  1  0  0  0  0
 20 22  2  0  0  0  0
 20 30  1  0  0  0  0
 21 24  1  0  0  0  0
 22 32  1  0  0  0  0
 23 25  1  0  0  0  0
 23 29  1  0  0  0  0
 24 25  2  0  0  0  0
 24 26  1  0  0  0  0
 25 31  1  0  0  0  0
 26 28  2  0  0  0  0
 26 35  1  0  0  0  0
 27 48  1  0  0  0  0
 27 49  1  0  0  0  0
 28 36  1  0  0  0  0
 30 33  2  0  0  0  0
 30 50  1  0  0  0  0
 32 34  2  0  0  0  0
 32 51  1  0  0  0  0
 33 34  1  0  0  0  0
 34 53  1  0  0  0  0
 35 38  2  0  0  0  0
 35 54  1  0  0  0  0
 36 39  2  0  0  0  0
 36 55  1  0  0  0  0
 37 40  1  0  0  0  0
 37 41  1  0  0  0  0
 37 57  1  0  0  0  0
 38 39  1  0  0  0  0
 38 58  1  0  0  0  0
 40 60  1  0  0  0  0
 40 61  1  0  0  0  0
 41 62  1  0  0  0  0
 41 63  1  0  0  0  0
M  END
> <PUBCHEM_COMPOUND_CID>
13009352

> <PUBCHEM_CONFORMER_RMSD>
1

> <PUBCHEM_CONFORMER_DIVERSEORDER>
1
2
4
3

> <PUBCHEM_MMFF94_PARTIAL_CHARGES>
52
1 -0.56
10 -0.04
11 -0.05
12 -0.11
13 -0.64
14 0.54
15 -0.05
17 0.28
18 -0.01
19 0.28
2 -0.68
20 -0.15
21 -0.05
23 0.09
24 -0.01
25 0.09
27 0.28
28 -0.15
29 0.54
3 -0.68
30 -0.15
31 0.54
32 -0.15
33 0.08
34 -0.15
35 -0.15
36 -0.15
37 0.27
38 -0.15
39 0.08
4 -0.57
40 0.28
41 0.28
47 0.27
5 -0.57
50 0.15
51 0.15
52 0.4
53 0.15
54 0.15
55 0.15
56 0.36
58 0.15
59 0.4
6 -0.53
64 0.45
65 0.45
66 0.4
67 0.4
7 -0.53
8 -0.68
9 -0.68

> <PUBCHEM_EFFECTIVE_ROTOR_COUNT>
7.2

> <PUBCHEM_PHARMACOPHORE_FEATURES>
24
1 1 acceptor
1 10 cation
1 11 cation
1 11 donor
1 13 donor
1 2 acceptor
1 2 donor
1 3 acceptor
1 3 donor
1 4 acceptor
1 5 acceptor
1 6 donor
1 7 donor
1 8 acceptor
1 8 donor
1 9 acceptor
1 9 donor
5 1 14 16 17 19 rings
5 10 15 18 20 22 rings
5 11 21 24 26 28 rings
5 12 23 25 29 31 rings
6 15 18 21 23 24 25 rings
6 20 22 30 32 33 34 rings
6 26 28 35 36 38 39 rings

> <PUBCHEM_HEAVY_ATOM_COUNT>
41

> <PUBCHEM_ATOM_DEF_STEREO_COUNT>
3

> <PUBCHEM_ATOM_UDEF_STEREO_COUNT>
0

> <PUBCHEM_BOND_DEF_STEREO_COUNT>
0

> <PUBCHEM_BOND_UDEF_STEREO_COUNT>
0

> <PUBCHEM_ISOTOPIC_ATOM_COUNT>
0

> <PUBCHEM_COMPONENT_COUNT>
1

> <PUBCHEM_CACTVS_TAUTO_COUNT>
128

> <PUBCHEM_CONFORMER_ID>
00C681C800000001

> <PUBCHEM_MMFF94_ENERGY>
161.0924

> <PUBCHEM_FEATURE_SELFOVERLAP>
122.287

> <PUBCHEM_SHAPE_FINGERPRINT>
10050765 1 17906452478911854888
10411042 1 17474667257513341139
10675989 125 18194125122878003782
10693767 8 17987511503261462583
10864689 126 18410865339280916996
10940486 97 18117004492679708852
1100329 8 18339645650154270706
11062273 19 18193276295422342259
11115154 58 16988570061016202649
11135926 11 18265331712338216111
11578080 2 17030176865712415166
12202916 173 18059297561715669062
12608794 3 17976217440301518784
13140716 1 18050578626868472635
13617811 41 16391002362220263572
13636023 51 17023471811414071491
13642711 20 18339069398312665727
138480 1 17906732505977879315
13911987 19 18263941972189350004
13944108 23 18046343037833287509
140371 6 18129682892914650216
14415360 78 18337662100939542117
14725015 67 18198060271368467538
14790565 3 18339091388830323592
15320467 1 18339647862257892554
15361156 5 17612041764736683978
15400415 2 18338793520381013473
15484559 13 18269834233364949471
15927050 60 18413107243728205983
15950262 2 15792600494385453414
19319366 153 18339355249771847703
20775438 99 18201426035021439668
21133410 171 17116861297575083970
22121540 332 17677872579081384980
22311459 1 18339080372524312297
23559900 14 18271804687393853792
25223398 141 18041568065165658143
3178227 256 18338532871420393217
3380486 145 17398683783793263635
3882209 13 17181062459265154291
4394409 98 18334018272202254132
563151 97 18268998583242998145
6700243 42 16260681011129291703

> <PUBCHEM_SHAPE_MULTIPOLES>
771.01
12.99
8.31
1.29
5.59
12.62
-1.22
-14.77
-6.05
-0.15
1.8
0.42
-0.54
2.11

> <PUBCHEM_SHAPE_SELFOVERLAP>
1751.942

> <PUBCHEM_SHAPE_VOLUME>
401.4

> <PUBCHEM_COORDINATE_TYPE>
2
5
10

$$$$
