49830874
  -OEChem-10052120433D

 49 52  0     1  0  0  0  0  0999 V2000
   -2.5092   -2.2148    0.9775 N   0  0  0  0  0  0  0  0  0  0  0  0
   -1.6329    3.1761    2.8049 N   0  0  0  0  0  0  0  0  0  0  0  0
   -0.1672    3.4224   -1.5791 N   0  0  0  0  0  0  0  0  0  0  0  0
    6.8700   -1.7666   -0.0466 N   0  0  0  0  0  0  0  0  0  0  0  0
   -2.0760    1.4101    1.0486 C   0  0  1  0  0  0  0  0  0  0  0  0
   -2.4337   -0.0028    0.8097 C   0  0  0  0  0  0  0  0  0  0  0  0
   -3.3537   -0.4912   -0.1599 C   0  0  0  0  0  0  0  0  0  0  0  0
   -3.3824   -1.8817   -0.0335 C   0  0  0  0  0  0  0  0  0  0  0  0
   -1.9311   -1.0860    1.4931 C   0  0  0  0  0  0  0  0  0  0  0  0
   -1.8170    1.7464    2.5584 C   0  0  0  0  0  0  0  0  0  0  0  0
   -0.9302    1.9044    0.1408 C   0  0  0  0  0  0  0  0  0  0  0  0
   -4.1671    0.1180   -1.1357 C   0  0  0  0  0  0  0  0  0  0  0  0
   -4.1870   -2.6966   -0.8376 C   0  0  0  0  0  0  0  0  0  0  0  0
   -2.2313   -3.5574    1.4401 C   0  0  0  0  0  0  0  0  0  0  0  0
    0.3315    1.3227    0.1976 C   0  0  0  0  0  0  0  0  0  0  0  0
   -1.1264    2.9418   -0.7567 C   0  0  0  0  0  0  0  0  0  0  0  0
   -4.9773   -0.6846   -1.9473 C   0  0  0  0  0  0  0  0  0  0  0  0
   -4.9856   -2.0701   -1.7987 C   0  0  0  0  0  0  0  0  0  0  0  0
    1.3442    1.7897   -0.6330 C   0  0  0  0  0  0  0  0  0  0  0  0
    1.0464    2.8322   -1.4957 C   0  0  0  0  0  0  0  0  0  0  0  0
    2.6718    1.2038   -0.5977 C   0  0  0  0  0  0  0  0  0  0  0  0
    2.9741   -0.0222   -0.1039 C   0  0  0  0  0  0  0  0  0  0  0  0
    4.3190   -0.6242   -0.0840 C   0  0  0  0  0  0  0  0  0  0  0  0
    5.4465    0.1817   -0.1980 C   0  0  0  0  0  0  0  0  0  0  0  0
    4.4657   -2.0005    0.0488 C   0  0  0  0  0  0  0  0  0  0  0  0
    6.6880   -0.4330   -0.1740 C   0  0  0  0  0  0  0  0  0  0  0  0
    5.7511   -2.5176    0.0618 C   0  0  0  0  0  0  0  0  0  0  0  0
   -2.9636    2.0036    0.7793 H   0  0  0  0  0  0  0  0  0  0  0  0
   -1.2111   -1.1499    2.2983 H   0  0  0  0  0  0  0  0  0  0  0  0
   -2.6632    1.3935    3.1607 H   0  0  0  0  0  0  0  0  0  0  0  0
   -0.9243    1.2233    2.9202 H   0  0  0  0  0  0  0  0  0  0  0  0
   -4.1732    1.1962   -1.2668 H   0  0  0  0  0  0  0  0  0  0  0  0
   -4.1981   -3.7758   -0.7271 H   0  0  0  0  0  0  0  0  0  0  0  0
    0.5083    0.5275    0.9151 H   0  0  0  0  0  0  0  0  0  0  0  0
   -1.4997   -3.5228    2.2514 H   0  0  0  0  0  0  0  0  0  0  0  0
   -1.8286   -4.1339    0.6034 H   0  0  0  0  0  0  0  0  0  0  0  0
   -3.1641   -3.9975    1.8017 H   0  0  0  0  0  0  0  0  0  0  0  0
   -2.0878    3.4372   -0.8491 H   0  0  0  0  0  0  0  0  0  0  0  0
   -5.6066   -0.2201   -2.7019 H   0  0  0  0  0  0  0  0  0  0  0  0
   -5.6224   -2.6743   -2.4398 H   0  0  0  0  0  0  0  0  0  0  0  0
   -2.4650    3.6827    2.5056 H   0  0  0  0  0  0  0  0  0  0  0  0
   -1.5441    3.3367    3.8073 H   0  0  0  0  0  0  0  0  0  0  0  0
    1.7904    3.2436   -2.1718 H   0  0  0  0  0  0  0  0  0  0  0  0
    3.4479    1.8221   -1.0407 H   0  0  0  0  0  0  0  0  0  0  0  0
    2.1941   -0.6667    0.2927 H   0  0  0  0  0  0  0  0  0  0  0  0
    5.4036    1.2613   -0.2847 H   0  0  0  0  0  0  0  0  0  0  0  0
    3.6116   -2.6638    0.1392 H   0  0  0  0  0  0  0  0  0  0  0  0
    7.5990    0.1510   -0.2546 H   0  0  0  0  0  0  0  0  0  0  0  0
    5.9196   -3.5847    0.1628 H   0  0  0  0  0  0  0  0  0  0  0  0
  1  8  1  0  0  0  0
  1  9  1  0  0  0  0
  1 14  1  0  0  0  0
  2 10  1  0  0  0  0
  2 41  1  0  0  0  0
  2 42  1  0  0  0  0
  3 16  1  0  0  0  0
  3 20  2  0  0  0  0
  4 26  2  0  0  0  0
  4 27  1  0  0  0  0
  5  6  1  0  0  0  0
  5 10  1  0  0  0  0
  5 11  1  0  0  0  0
  5 28  1  0  0  0  0
  6  7  1  0  0  0  0
  6  9  2  0  0  0  0
  7  8  1  0  0  0  0
  7 12  2  0  0  0  0
  8 13  2  0  0  0  0
  9 29  1  0  0  0  0
 10 30  1  0  0  0  0
 10 31  1  0  0  0  0
 11 15  1  0  0  0  0
 11 16  2  0  0  0  0
 12 17  1  0  0  0  0
 12 32  1  0  0  0  0
 13 18  1  0  0  0  0
 13 33  1  0  0  0  0
 14 35  1  0  0  0  0
 14 36  1  0  0  0  0
 14 37  1  0  0  0  0
 15 19  2  0  0  0  0
 15 34  1  0  0  0  0
 16 38  1  0  0  0  0
 17 18  2  0  0  0  0
 17 39  1  0  0  0  0
 18 40  1  0  0  0  0
 19 20  1  0  0  0  0
 19 21  1  0  0  0  0
 20 43  1  0  0  0  0
 21 22  2  3  0  0  0
 21 44  1  0  0  0  0
 22 23  1  0  0  0  0
 22 45  1  0  0  0  0
 23 24  2  0  0  0  0
 23 25  1  0  0  0  0
 24 26  1  0  0  0  0
 24 46  1  0  0  0  0
 25 27  2  0  0  0  0
 25 47  1  0  0  0  0
 26 48  1  0  0  0  0
 27 49  1  0  0  0  0
M  END
> <PUBCHEM_COMPOUND_CID>
49830874

> <PUBCHEM_CONFORMER_RMSD>
0.8

> <PUBCHEM_CONFORMER_DIVERSEORDER>
1
82
49
41
21
24
78
80
23
92
29
6
32
91
50
47
64
28
67
58
25
43
89
68
55
30
81
90
87
40
76
20
72
63
61
46
95
62
54
59
18
2
79
85
19
56
9
53
70
11
73
66
44
57
96
31
15
45
48
52
38
39
16
3
8
69
26
34
88
60
10
84
35
7
86
74
65
12
5
75
71
51
42
27
36
14
94
83
4
33
77
13
22
93
17
37

> <PUBCHEM_MMFF94_PARTIAL_CHARGES>
42
1 0.05
10 0.27
11 -0.14
12 -0.15
13 -0.15
14 0.26
15 -0.15
16 0.16
17 -0.15
18 -0.15
19 0.03
2 -0.99
20 0.16
21 -0.18
22 -0.18
23 0.03
24 -0.15
25 -0.15
26 0.16
27 0.16
29 0.15
3 -0.62
32 0.15
33 0.15
34 0.15
38 0.15
39 0.15
4 -0.62
40 0.15
41 0.36
42 0.36
43 0.15
44 0.15
45 0.15
46 0.15
47 0.15
48 0.15
49 0.15
5 0.32
6 -0.18
8 -0.15
9 -0.3

> <PUBCHEM_EFFECTIVE_ROTOR_COUNT>
5

> <PUBCHEM_PHARMACOPHORE_FEATURES>
9
1 1 cation
1 2 cation
1 2 donor
1 3 acceptor
1 4 acceptor
5 1 6 7 8 9 rings
6 3 11 15 16 19 20 rings
6 4 23 24 25 26 27 rings
6 7 8 12 13 17 18 rings

> <PUBCHEM_HEAVY_ATOM_COUNT>
27

> <PUBCHEM_ATOM_DEF_STEREO_COUNT>
0

> <PUBCHEM_ATOM_UDEF_STEREO_COUNT>
1

> <PUBCHEM_BOND_DEF_STEREO_COUNT>
0

> <PUBCHEM_BOND_UDEF_STEREO_COUNT>
1

> <PUBCHEM_ISOTOPIC_ATOM_COUNT>
0

> <PUBCHEM_COMPONENT_COUNT>
1

> <PUBCHEM_CACTVS_TAUTO_COUNT>
1

> <PUBCHEM_CONFORMER_ID>
02F85BDA00000001

> <PUBCHEM_MMFF94_ENERGY>
73.2861

> <PUBCHEM_FEATURE_SELFOVERLAP>
45.763

> <PUBCHEM_SHAPE_FINGERPRINT>
10483366 6 18116698652706657109
105312 117 13695588849605822920
10871710 139 18116992174591930931
11135926 11 17899996107482976628
11200772 48 17822846477427595549
11393246 34 18200315395371237662
11497681 19 18272652368641789166
11552529 35 18200877262723335600
11720765 8 18197205061559801357
12166972 35 18340762766689689999
12788726 201 18042391439912667024
12895836 83 12685090388784851373
12988421 55 17195466091459282184
13828863 39 8646500638966328631
14068700 675 18202558497026399593
1454969 45 18335703901707626780
14659021 117 18260539009598261516
14844126 61 17847059965581151611
14848178 5 18341326768968049422
15163728 17 13118547499481378053
15183329 4 17386273342188068343
15250474 111 18042399128780022002
16628084 112 17607234364613341515
17627616 140 17751633248175232202
17857418 61 18408886214124602526
19315092 285 17559954501182639962
19319366 153 17043185320291401877
20775438 99 16975579619203319255
21033650 10 16298374756214297292
21458453 9 12606266529060143751
21756936 100 9151168753553421684
23198884 109 13767930117400980544
23559900 14 18262794210820290792
23572383 38 18190454042705273474
255183 313 18124610677945493193
3027735 51 18192140512974229183
312425 83 16951689288434751583
339767 52 18334851745256060914
3459 83 18411134762695498141
3729539 64 17968084305794353691
4280585 95 18187355554597911624
444735 79 11383542473482841381
46194498 28 16445327934288334813
57527295 17 17626955527961501097
57527585 103 17971504916348649747
5924683 9 18272371923687108792
5937810 71 11958573839924028058
613672 6 18188481501564687642
6431902 208 18408608071842592682
9981440 41 15480707399374849024

> <PUBCHEM_SHAPE_MULTIPOLES>
535.72
13.64
4.25
1.91
22.67
0.65
0.88
-13.31
-4.3
-1.59
0.33
-2.86
1.04
-1.52

> <PUBCHEM_SHAPE_SELFOVERLAP>
1175.385

> <PUBCHEM_SHAPE_VOLUME>
288.3

> <PUBCHEM_COORDINATE_TYPE>
2
5
10

$$$$
