135536753
  -OEChem-10052115183D

 38 41  0     0  0  0  0  0  0999 V2000
   -4.0565    1.2595    0.0411 O   0  0  0  0  0  0  0  0  0  0  0  0
   -0.3371   -1.8319    0.0622 O   0  0  0  0  0  0  0  0  0  0  0  0
    0.3831    2.8994    0.1362 O   0  0  0  0  0  0  0  0  0  0  0  0
   -2.8344   -2.6274    0.0105 O   0  0  0  0  0  0  0  0  0  0  0  0
    2.2898    0.7672   -0.8634 N   0  0  0  0  0  0  0  0  0  0  0  0
    2.1337   -0.3638    1.0436 N   0  0  0  0  0  0  0  0  0  0  0  0
    0.0373    0.5188    0.0995 C   0  0  0  0  0  0  0  0  0  0  0  0
   -2.2194   -0.3308    0.0505 C   0  0  0  0  0  0  0  0  0  0  0  0
   -0.8424   -0.5638    0.0705 C   0  0  0  0  0  0  0  0  0  0  0  0
    1.4676    0.2932    0.1207 C   0  0  0  0  0  0  0  0  0  0  0  0
   -2.7148    0.9725    0.0594 C   0  0  0  0  0  0  0  0  0  0  0  0
   -0.4564    1.8243    0.1080 C   0  0  0  0  0  0  0  0  0  0  0  0
    3.5719    0.3908   -0.5550 C   0  0  0  0  0  0  0  0  0  0  0  0
   -1.8326    2.0529    0.0881 C   0  0  0  0  0  0  0  0  0  0  0  0
    3.4479   -0.3137    0.6393 C   0  0  0  0  0  0  0  0  0  0  0  0
   -3.1719   -1.4516    0.0202 C   0  0  0  0  0  0  0  0  0  0  0  0
   -4.9552    0.2053    0.0129 C   0  0  0  0  0  0  0  0  0  0  0  0
   -4.6019   -1.0885    0.0018 C   0  0  0  0  0  0  0  0  0  0  0  0
    4.7921    0.5998   -1.1987 C   0  0  0  0  0  0  0  0  0  0  0  0
    4.5994   -0.8487    1.2414 C   0  0  0  0  0  0  0  0  0  0  0  0
    5.9277    0.0605   -0.5854 C   0  0  0  0  0  0  0  0  0  0  0  0
    5.8354   -0.6511    0.6130 C   0  0  0  0  0  0  0  0  0  0  0  0
   -6.3862    0.6415   -0.0042 C   0  0  0  0  0  0  0  0  0  0  0  0
   -0.0771   -2.4144   -1.2122 C   0  0  0  0  0  0  0  0  0  0  0  0
    2.0081    1.2992   -1.6764 H   0  0  0  0  0  0  0  0  0  0  0  0
   -2.2234    3.0675    0.0948 H   0  0  0  0  0  0  0  0  0  0  0  0
   -5.3311   -1.8901   -0.0204 H   0  0  0  0  0  0  0  0  0  0  0  0
    4.8611    1.1524   -2.1288 H   0  0  0  0  0  0  0  0  0  0  0  0
    4.5380   -1.4032    2.1724 H   0  0  0  0  0  0  0  0  0  0  0  0
    6.9004    0.1984   -1.0511 H   0  0  0  0  0  0  0  0  0  0  0  0
    6.7359   -1.0584    1.0656 H   0  0  0  0  0  0  0  0  0  0  0  0
   -6.6108    1.2349    0.8880 H   0  0  0  0  0  0  0  0  0  0  0  0
   -6.5825    1.2580   -0.8874 H   0  0  0  0  0  0  0  0  0  0  0  0
   -7.0776   -0.2073   -0.0263 H   0  0  0  0  0  0  0  0  0  0  0  0
   -0.1439    3.7167    0.1368 H   0  0  0  0  0  0  0  0  0  0  0  0
    0.0423   -3.4929   -1.0768 H   0  0  0  0  0  0  0  0  0  0  0  0
    0.8515   -2.0135   -1.6290 H   0  0  0  0  0  0  0  0  0  0  0  0
   -0.9003   -2.2397   -1.9127 H   0  0  0  0  0  0  0  0  0  0  0  0
  1 11  1  0  0  0  0
  1 17  1  0  0  0  0
  2  9  1  0  0  0  0
  2 24  1  0  0  0  0
  3 12  1  0  0  0  0
  3 35  1  0  0  0  0
  4 16  2  0  0  0  0
  5 10  1  0  0  0  0
  5 13  1  0  0  0  0
  5 25  1  0  0  0  0
  6 10  2  0  0  0  0
  6 15  1  0  0  0  0
  7  9  2  0  0  0  0
  7 10  1  0  0  0  0
  7 12  1  0  0  0  0
  8  9  1  0  0  0  0
  8 11  2  0  0  0  0
  8 16  1  0  0  0  0
 11 14  1  0  0  0  0
 12 14  2  0  0  0  0
 13 15  1  0  0  0  0
 13 19  2  0  0  0  0
 14 26  1  0  0  0  0
 15 20  2  0  0  0  0
 16 18  1  0  0  0  0
 17 18  2  0  0  0  0
 17 23  1  0  0  0  0
 18 27  1  0  0  0  0
 19 21  1  0  0  0  0
 19 28  1  0  0  0  0
 20 22  1  0  0  0  0
 20 29  1  0  0  0  0
 21 22  2  0  0  0  0
 21 30  1  0  0  0  0
 22 31  1  0  0  0  0
 23 32  1  0  0  0  0
 23 33  1  0  0  0  0
 23 34  1  0  0  0  0
 24 36  1  0  0  0  0
 24 37  1  0  0  0  0
 24 38  1  0  0  0  0
M  END
> <PUBCHEM_COMPOUND_CID>
135536753

> <PUBCHEM_CONFORMER_RMSD>
0.6

> <PUBCHEM_CONFORMER_DIVERSEORDER>
2
1

> <PUBCHEM_MMFF94_PARTIAL_CHARGES>
32
1 -0.16
10 0.13
11 0.08
12 0.08
13 -0.15
14 -0.15
15 0.23
16 0.47
17 -0.06
18 -0.14
19 -0.15
2 -0.36
20 -0.15
21 -0.15
22 -0.15
23 0.14
24 0.28
25 0.27
26 0.15
27 0.15
28 0.15
29 0.15
3 -0.53
30 0.15
31 0.15
35 0.45
4 -0.57
5 0.03
6 -0.57
7 0.05
8 0.09
9 0.08

> <PUBCHEM_EFFECTIVE_ROTOR_COUNT>
2

> <PUBCHEM_PHARMACOPHORE_FEATURES>
10
1 1 acceptor
1 2 acceptor
1 3 donor
1 4 acceptor
1 5 donor
3 5 6 10 cation
5 5 6 10 13 15 rings
6 1 8 11 16 17 18 rings
6 13 15 19 20 21 22 rings
6 7 8 9 11 12 14 rings

> <PUBCHEM_HEAVY_ATOM_COUNT>
24

> <PUBCHEM_ATOM_DEF_STEREO_COUNT>
0

> <PUBCHEM_ATOM_UDEF_STEREO_COUNT>
0

> <PUBCHEM_BOND_DEF_STEREO_COUNT>
0

> <PUBCHEM_BOND_UDEF_STEREO_COUNT>
0

> <PUBCHEM_ISOTOPIC_ATOM_COUNT>
0

> <PUBCHEM_COMPONENT_COUNT>
1

> <PUBCHEM_CACTVS_TAUTO_COUNT>
-1

> <PUBCHEM_CONFORMER_ID>
0814207100000002

> <PUBCHEM_MMFF94_ENERGY>
73.4458

> <PUBCHEM_FEATURE_SELFOVERLAP>
50.892

> <PUBCHEM_SHAPE_FINGERPRINT>
10050765 1 18123188167965550529
10906281 52 18338533953899564873
11524674 6 17132112437698358422
11578080 2 11670357559015964498
11646440 116 17988934383630484393
11963148 33 18410287047563240671
12011746 2 18341891883806443037
12107183 9 17467058658112017784
12236239 1 17967816046230889956
12390115 104 17986965046415130225
12788726 201 18334858268852519672
12838862 33 18339624678077247489
13140716 1 18268992149908833769
13288520 33 18411982464200425573
13533116 47 17821723897878547890
13862211 1 18412259554168553319
14386348 63 17489873734868017094
14790565 3 18411145765579375137
15042514 8 18340206400979577615
15099037 51 18411982477201235743
15196674 1 18338517559503117145
1601671 61 18413108351180025411
17804303 29 18342455980289428513
200 152 17894911823828731688
20028762 73 17845930857445211127
20511986 3 18041265639269860220
20645477 70 14924213886386157568
21033648 29 16845279515118588360
21267235 1 18335709346586389091
2297311 6 18272097076135099100
23366157 5 17899975229225048036
23402539 116 18271802440782384399
23536379 177 16805321076595821517
23557571 272 18059584542260164652
23559900 14 18341889753123382432
3004659 81 18259988167626574462
3178227 256 18335717044091093009
335352 9 18410854374435307741
34797466 226 18060426828824162500
34934 24 18265895937965684540
350125 39 18408322185338350581
4340502 62 14764347149790033813
465052 167 18262245520595934419
474 4 17242183555524896948
5104073 3 18269278022747361777
5385378 56 18129955459960513667
59755656 215 18341899537227687934
67856867 119 18188772881163900252
7226269 152 18130791131715466417

> <PUBCHEM_SHAPE_MULTIPOLES>
460.47
13.03
2.19
0.92
3.37
0.09
0.05
0.61
-0.16
-1.63
0.21
1.06
0.17
-0.63

> <PUBCHEM_SHAPE_SELFOVERLAP>
1040.655

> <PUBCHEM_SHAPE_VOLUME>
242.4

> <PUBCHEM_COORDINATE_TYPE>
2
5
10

$$$$
