71553152
  -OEChem-10062121573D

 58 61  0     1  0  0  0  0  0999 V2000
    4.5708   -2.5672   -1.6982 Cl  0  0  0  0  0  0  0  0  0  0  0  0
    7.5474   -0.0160    2.0110 Cl  0  0  0  0  0  0  0  0  0  0  0  0
   -1.8947   -3.1825   -0.7489 O   0  0  0  0  0  0  0  0  0  0  0  0
    0.9555   -3.1559    0.3784 O   0  0  0  0  0  0  0  0  0  0  0  0
   -2.7457    2.9163   -1.5947 O   0  0  0  0  0  0  0  0  0  0  0  0
   -5.5592   -1.1797    0.9718 N   0  0  0  0  0  0  0  0  0  0  0  0
   -3.1277    1.4626    0.1710 N   0  0  0  0  0  0  0  0  0  0  0  0
   -0.8464   -0.2486   -0.8399 N   0  0  0  0  0  0  0  0  0  0  0  0
    1.1804    0.8596   -0.3076 N   0  0  0  0  0  0  0  0  0  0  0  0
    1.1975    3.2349    0.0983 N   0  0  0  0  0  0  0  0  0  0  0  0
    3.1745    1.9770    0.2209 N   0  0  0  0  0  0  0  0  0  0  0  0
   -4.5683    1.4305    0.0529 C   0  0  0  0  0  0  0  0  0  0  0  0
   -5.2298    1.2328    1.4187 C   0  0  0  0  0  0  0  0  0  0  0  0
   -5.0187    0.3320   -0.9129 C   0  0  0  0  0  0  0  0  0  0  0  0
   -5.0580   -0.1969    1.9416 C   0  0  0  0  0  0  0  0  0  0  0  0
   -4.8542   -1.0677   -0.3121 C   0  0  0  0  0  0  0  0  0  0  0  0
   -0.1893   -1.5331   -0.9464 C   0  0  1  0  0  0  0  0  0  0  0  0
   -0.0838   -2.1818    0.4152 C   0  0  1  0  0  0  0  0  0  0  0  0
   -1.0629   -2.5140   -1.7095 C   0  0  0  0  0  0  0  0  0  0  0  0
   -1.4256   -2.8721    0.5729 C   0  0  0  0  0  0  0  0  0  0  0  0
   -5.4364   -2.5356    1.5068 C   0  0  0  0  0  0  0  0  0  0  0  0
   -2.3300    2.2144   -0.6765 C   0  0  0  0  0  0  0  0  0  0  0  0
   -0.1497    0.9429   -0.5190 C   0  0  0  0  0  0  0  0  0  0  0  0
   -0.8663    2.1195   -0.4409 C   0  0  0  0  0  0  0  0  0  0  0  0
   -0.1330    3.2452   -0.1256 C   0  0  0  0  0  0  0  0  0  0  0  0
    1.7821    2.0264   -0.0076 C   0  0  0  0  0  0  0  0  0  0  0  0
    4.1063    0.9224    0.2003 C   0  0  0  0  0  0  0  0  0  0  0  0
    5.2334    0.9704    1.0206 C   0  0  0  0  0  0  0  0  0  0  0  0
    3.9014   -0.1718   -0.6402 C   0  0  0  0  0  0  0  0  0  0  0  0
    4.8237   -1.2180   -0.6604 C   0  0  0  0  0  0  0  0  0  0  0  0
    6.1557   -0.0758    1.0002 C   0  0  0  0  0  0  0  0  0  0  0  0
    5.9508   -1.1699    0.1598 C   0  0  0  0  0  0  0  0  0  0  0  0
   -4.8868    2.3997   -0.3502 H   0  0  0  0  0  0  0  0  0  0  0  0
   -6.3020    1.4531    1.3323 H   0  0  0  0  0  0  0  0  0  0  0  0
   -4.8178    1.9399    2.1489 H   0  0  0  0  0  0  0  0  0  0  0  0
   -4.4588    0.3910   -1.8540 H   0  0  0  0  0  0  0  0  0  0  0  0
   -6.0762    0.4882   -1.1633 H   0  0  0  0  0  0  0  0  0  0  0  0
   -4.0050   -0.3873    2.1856 H   0  0  0  0  0  0  0  0  0  0  0  0
   -5.6234   -0.2832    2.8777 H   0  0  0  0  0  0  0  0  0  0  0  0
   -5.2650   -1.7933   -1.0247 H   0  0  0  0  0  0  0  0  0  0  0  0
   -3.7916   -1.2942   -0.1976 H   0  0  0  0  0  0  0  0  0  0  0  0
    0.7688   -1.4310   -1.4685 H   0  0  0  0  0  0  0  0  0  0  0  0
    0.1254   -1.5010    1.2459 H   0  0  0  0  0  0  0  0  0  0  0  0
   -2.6863    0.8914    0.8859 H   0  0  0  0  0  0  0  0  0  0  0  0
   -1.6951   -2.0447   -2.4698 H   0  0  0  0  0  0  0  0  0  0  0  0
   -0.4529   -3.2838   -2.1950 H   0  0  0  0  0  0  0  0  0  0  0  0
   -1.3679   -3.7990    1.1507 H   0  0  0  0  0  0  0  0  0  0  0  0
   -2.1539   -2.2047    1.0403 H   0  0  0  0  0  0  0  0  0  0  0  0
   -5.8464   -3.2667    0.8012 H   0  0  0  0  0  0  0  0  0  0  0  0
   -6.0147   -2.6361    2.4320 H   0  0  0  0  0  0  0  0  0  0  0  0
   -4.3975   -2.8080    1.7206 H   0  0  0  0  0  0  0  0  0  0  0  0
   -1.8514   -0.2437   -0.7104 H   0  0  0  0  0  0  0  0  0  0  0  0
    1.7935   -2.6819    0.2404 H   0  0  0  0  0  0  0  0  0  0  0  0
   -0.6004    4.2211   -0.0385 H   0  0  0  0  0  0  0  0  0  0  0  0
    3.5416    2.8563    0.5725 H   0  0  0  0  0  0  0  0  0  0  0  0
    5.3914    1.8241    1.6763 H   0  0  0  0  0  0  0  0  0  0  0  0
    3.0592   -0.2160   -1.3234 H   0  0  0  0  0  0  0  0  0  0  0  0
    6.6703   -1.9858    0.1438 H   0  0  0  0  0  0  0  0  0  0  0  0
  1 30  1  0  0  0  0
  2 31  1  0  0  0  0
  3 19  1  0  0  0  0
  3 20  1  0  0  0  0
  4 18  1  0  0  0  0
  4 53  1  0  0  0  0
  5 22  2  0  0  0  0
  6 15  1  0  0  0  0
  6 16  1  0  0  0  0
  6 21  1  0  0  0  0
  7 12  1  0  0  0  0
  7 22  1  0  0  0  0
  7 44  1  0  0  0  0
  8 17  1  0  0  0  0
  8 23  1  0  0  0  0
  8 52  1  0  0  0  0
  9 23  2  0  0  0  0
  9 26  1  0  0  0  0
 10 25  1  0  0  0  0
 10 26  2  0  0  0  0
 11 26  1  0  0  0  0
 11 27  1  0  0  0  0
 11 55  1  0  0  0  0
 12 13  1  0  0  0  0
 12 14  1  0  0  0  0
 12 33  1  0  0  0  0
 13 15  1  0  0  0  0
 13 34  1  0  0  0  0
 13 35  1  0  0  0  0
 14 16  1  0  0  0  0
 14 36  1  0  0  0  0
 14 37  1  0  0  0  0
 15 38  1  0  0  0  0
 15 39  1  0  0  0  0
 16 40  1  0  0  0  0
 16 41  1  0  0  0  0
 17 18  1  0  0  0  0
 17 19  1  0  0  0  0
 17 42  1  0  0  0  0
 18 20  1  0  0  0  0
 18 43  1  0  0  0  0
 19 45  1  0  0  0  0
 19 46  1  0  0  0  0
 20 47  1  0  0  0  0
 20 48  1  0  0  0  0
 21 49  1  0  0  0  0
 21 50  1  0  0  0  0
 21 51  1  0  0  0  0
 22 24  1  0  0  0  0
 23 24  1  0  0  0  0
 24 25  2  0  0  0  0
 25 54  1  0  0  0  0
 27 28  2  0  0  0  0
 27 29  1  0  0  0  0
 28 31  1  0  0  0  0
 28 56  1  0  0  0  0
 29 30  2  0  0  0  0
 29 57  1  0  0  0  0
 30 32  1  0  0  0  0
 31 32  2  0  0  0  0
 32 58  1  0  0  0  0
M  END
> <PUBCHEM_COMPOUND_CID>
71553152

> <PUBCHEM_CONFORMER_RMSD>
1

> <PUBCHEM_CONFORMER_DIVERSEORDER>
1
131
8
118
34
96
75
71
23
52
161
61
88
102
100
145
54
73
33
94
56
125
141
159
111
9
158
44
46
121
77
105
115
74
163
87
80
19
98
162
64
136
83
67
97
43
70
81
39
48
85
82
116
149
89
99
78
38
157
140
134
160
143
92
123
65
58
106
156
139
112
128
146
13
122
138
144
114
127
79
40
117
154
45
69
27
135
37
109
62
120
36
126
152
108
119
124
84
20
142
91
57
137
14
51
66
24
110
17
103
90
41
29
26
72
104
4
42
21
55
133
11
113
129
60
18
63
130
16
76
147
101
31
86
148
50
53
68
93
6
30
35
153
22
32
25
155
95
49
15
132
10
28
150
12
3
47
107
59
5
151
2
7

> <PUBCHEM_MMFF94_PARTIAL_CHARGES>
38
1 -0.18
10 -0.62
11 -0.6
12 0.3
15 0.27
16 0.27
17 0.37
18 0.28
19 0.28
2 -0.18
20 0.28
21 0.27
22 0.54
23 0.41
24 0.09
25 0.16
26 0.72
27 0.1
28 -0.15
29 -0.15
3 -0.56
30 0.18
31 0.18
32 -0.15
4 -0.68
44 0.37
5 -0.57
52 0.4
53 0.4
54 0.15
55 0.4
56 0.15
57 0.15
58 0.15
6 -0.81
7 -0.73
8 -0.87
9 -0.62

> <PUBCHEM_EFFECTIVE_ROTOR_COUNT>
9.2

> <PUBCHEM_PHARMACOPHORE_FEATURES>
13
1 11 donor
1 3 acceptor
1 4 acceptor
1 4 donor
1 5 acceptor
1 6 cation
1 7 donor
1 8 donor
4 9 10 11 26 cation
5 3 17 18 19 20 rings
6 27 28 29 30 31 32 rings
6 6 12 13 14 15 16 rings
6 9 10 23 24 25 26 rings

> <PUBCHEM_HEAVY_ATOM_COUNT>
32

> <PUBCHEM_ATOM_DEF_STEREO_COUNT>
2

> <PUBCHEM_ATOM_UDEF_STEREO_COUNT>
0

> <PUBCHEM_BOND_DEF_STEREO_COUNT>
0

> <PUBCHEM_BOND_UDEF_STEREO_COUNT>
0

> <PUBCHEM_ISOTOPIC_ATOM_COUNT>
0

> <PUBCHEM_COMPONENT_COUNT>
1

> <PUBCHEM_CACTVS_TAUTO_COUNT>
21

> <PUBCHEM_CONFORMER_ID>
0443D08000000001

> <PUBCHEM_MMFF94_ENERGY>
89.2986

> <PUBCHEM_FEATURE_SELFOVERLAP>
65.974

> <PUBCHEM_SHAPE_FINGERPRINT>
10006869 2 18193548974295032955
10864689 126 17979643337822847623
1100329 8 18411133679699373972
11135609 12 18409446995393709680
11578080 2 17058074752452478816
12035758 1 18341901791715707283
12422481 6 18272382974653935103
12838863 1 18267016345047731603
13402501 40 18411141315976789124
14866123 147 18338226175979222266
16112460 7 18341618178194092792
18608769 82 18337963307460071646
19591789 44 18410575063278075941
20028762 73 18200876279102394255
20721686 56 18336541634372024243
21304304 249 18261396710794317555
229767 44 18342740770902192487
23569914 152 11028836637569716424
3178227 256 18409457977071827905
3383291 50 18408882962260081074
338550 245 18334579070419140940
392239 28 18411426081283564025
5104073 3 17986106298016791112
563151 74 16701727346448885770
59755656 215 18262235496152880221
9896288 288 18125434212296823520

> <PUBCHEM_SHAPE_MULTIPOLES>
614.79
15.83
4.09
1.55
11.3
0.45
-0.29
2.9
-8.13
-1.83
0.82
-0.07
0.52
1.96

> <PUBCHEM_SHAPE_SELFOVERLAP>
1289.294

> <PUBCHEM_SHAPE_VOLUME>
347

> <PUBCHEM_COORDINATE_TYPE>
2
5
10

$$$$
