10450849
  -OEChem-10052120443D

 44 48  0     0  0  0  0  0  0999 V2000
   -2.2724   -4.0943    0.4022 O   0  0  0  0  0  0  0  0  0  0  0  0
    2.2744   -4.0934   -0.4003 O   0  0  0  0  0  0  0  0  0  0  0  0
   -1.4410    1.2763    0.1128 N   0  0  0  0  0  0  0  0  0  0  0  0
    1.4408    1.2768   -0.1179 N   0  0  0  0  0  0  0  0  0  0  0  0
    0.0012   -4.5028    0.0016 N   0  0  0  0  0  0  0  0  0  0  0  0
   -0.6935    2.4634   -0.3157 C   0  0  0  0  0  0  0  0  0  0  0  0
    0.6916    2.4656    0.3035 C   0  0  0  0  0  0  0  0  0  0  0  0
   -0.7161    0.0514    0.0773 C   0  0  0  0  0  0  0  0  0  0  0  0
    0.7160    0.0517   -0.0813 C   0  0  0  0  0  0  0  0  0  0  0  0
   -1.3969   -1.1805    0.2264 C   0  0  0  0  0  0  0  0  0  0  0  0
    1.3971   -1.1800   -0.2293 C   0  0  0  0  0  0  0  0  0  0  0  0
   -0.6789   -2.3516    0.1186 C   0  0  0  0  0  0  0  0  0  0  0  0
    0.6797   -2.3514   -0.1196 C   0  0  0  0  0  0  0  0  0  0  0  0
   -2.8443    1.4567    0.0254 C   0  0  0  0  0  0  0  0  0  0  0  0
    2.8439    1.4575   -0.0263 C   0  0  0  0  0  0  0  0  0  0  0  0
   -1.1263   -3.7418    0.2002 C   0  0  0  0  0  0  0  0  0  0  0  0
    1.1281   -3.7413   -0.1986 C   0  0  0  0  0  0  0  0  0  0  0  0
   -3.6403    1.4622    1.1832 C   0  0  0  0  0  0  0  0  0  0  0  0
    3.6439    1.4598   -1.1814 C   0  0  0  0  0  0  0  0  0  0  0  0
   -3.4689    1.6345   -1.2204 C   0  0  0  0  0  0  0  0  0  0  0  0
    3.4644    1.6388    1.2212 C   0  0  0  0  0  0  0  0  0  0  0  0
   -5.0211    1.6404    1.0977 C   0  0  0  0  0  0  0  0  0  0  0  0
    5.0244    1.6385   -1.0917 C   0  0  0  0  0  0  0  0  0  0  0  0
   -4.8498    1.8129   -1.3061 C   0  0  0  0  0  0  0  0  0  0  0  0
    4.8449    1.8175    1.3110 C   0  0  0  0  0  0  0  0  0  0  0  0
   -5.6258    1.8158   -0.1469 C   0  0  0  0  0  0  0  0  0  0  0  0
    5.6248    1.8173    0.1544 C   0  0  0  0  0  0  0  0  0  0  0  0
   -1.2091    3.3817   -0.0040 H   0  0  0  0  0  0  0  0  0  0  0  0
   -0.6163    2.4848   -1.4114 H   0  0  0  0  0  0  0  0  0  0  0  0
    1.2067    3.3825   -0.0131 H   0  0  0  0  0  0  0  0  0  0  0  0
    0.6141    2.4930    1.3991 H   0  0  0  0  0  0  0  0  0  0  0  0
   -2.4690   -1.2214    0.3895 H   0  0  0  0  0  0  0  0  0  0  0  0
    2.4693   -1.2207   -0.3923 H   0  0  0  0  0  0  0  0  0  0  0  0
    0.0016   -5.5167    0.0025 H   0  0  0  0  0  0  0  0  0  0  0  0
   -3.1820    1.3274    2.1603 H   0  0  0  0  0  0  0  0  0  0  0  0
    3.1890    1.3223   -2.1597 H   0  0  0  0  0  0  0  0  0  0  0  0
   -2.8820    1.6287   -2.1360 H   0  0  0  0  0  0  0  0  0  0  0  0
    2.8744    1.6354    2.1348 H   0  0  0  0  0  0  0  0  0  0  0  0
   -5.6254    1.6427    2.0001 H   0  0  0  0  0  0  0  0  0  0  0  0
    5.6317    1.6383   -1.9921 H   0  0  0  0  0  0  0  0  0  0  0  0
   -5.3209    1.9479   -2.2753 H   0  0  0  0  0  0  0  0  0  0  0  0
    5.3129    1.9551    2.2813 H   0  0  0  0  0  0  0  0  0  0  0  0
   -6.7009    1.9542   -0.2137 H   0  0  0  0  0  0  0  0  0  0  0  0
    6.6997    1.9559    0.2244 H   0  0  0  0  0  0  0  0  0  0  0  0
  1 16  2  0  0  0  0
  2 17  2  0  0  0  0
  3  6  1  0  0  0  0
  3  8  1  0  0  0  0
  3 14  1  0  0  0  0
  4  7  1  0  0  0  0
  4  9  1  0  0  0  0
  4 15  1  0  0  0  0
  5 16  1  0  0  0  0
  5 17  1  0  0  0  0
  5 34  1  0  0  0  0
  6  7  1  0  0  0  0
  6 28  1  0  0  0  0
  6 29  1  0  0  0  0
  7 30  1  0  0  0  0
  7 31  1  0  0  0  0
  8  9  2  0  0  0  0
  8 10  1  0  0  0  0
  9 11  1  0  0  0  0
 10 12  2  0  0  0  0
 10 32  1  0  0  0  0
 11 13  2  0  0  0  0
 11 33  1  0  0  0  0
 12 13  1  0  0  0  0
 12 16  1  0  0  0  0
 13 17  1  0  0  0  0
 14 18  2  0  0  0  0
 14 20  1  0  0  0  0
 15 19  2  0  0  0  0
 15 21  1  0  0  0  0
 18 22  1  0  0  0  0
 18 35  1  0  0  0  0
 19 23  1  0  0  0  0
 19 36  1  0  0  0  0
 20 24  2  0  0  0  0
 20 37  1  0  0  0  0
 21 25  2  0  0  0  0
 21 38  1  0  0  0  0
 22 26  2  0  0  0  0
 22 39  1  0  0  0  0
 23 27  2  0  0  0  0
 23 40  1  0  0  0  0
 24 26  1  0  0  0  0
 24 41  1  0  0  0  0
 25 27  1  0  0  0  0
 25 42  1  0  0  0  0
 26 43  1  0  0  0  0
 27 44  1  0  0  0  0
M  END
> <PUBCHEM_COMPOUND_CID>
10450849

> <PUBCHEM_CONFORMER_RMSD>
0.6

> <PUBCHEM_CONFORMER_DIVERSEORDER>
1
3
2
4

> <PUBCHEM_MMFF94_PARTIAL_CHARGES>
40
1 -0.57
10 -0.15
11 -0.15
12 0.09
13 0.09
14 0.1
15 0.1
16 0.54
17 0.54
18 -0.15
19 -0.15
2 -0.57
20 -0.15
21 -0.15
22 -0.15
23 -0.15
24 -0.15
25 -0.15
26 -0.15
27 -0.15
3 -0.57
32 0.15
33 0.15
34 0.37
35 0.15
36 0.15
37 0.15
38 0.15
39 0.15
4 -0.57
40 0.15
41 0.15
42 0.15
43 0.15
44 0.15
5 -0.49
6 0.37
7 0.37
8 0.1
9 0.1

> <PUBCHEM_EFFECTIVE_ROTOR_COUNT>
3

> <PUBCHEM_PHARMACOPHORE_FEATURES>
10
1 1 acceptor
1 2 acceptor
1 3 cation
1 4 cation
1 5 donor
5 5 12 13 16 17 rings
6 14 18 20 22 24 26 rings
6 15 19 21 23 25 27 rings
6 3 4 6 7 8 9 rings
6 8 9 10 11 12 13 rings

> <PUBCHEM_HEAVY_ATOM_COUNT>
27

> <PUBCHEM_ATOM_DEF_STEREO_COUNT>
0

> <PUBCHEM_ATOM_UDEF_STEREO_COUNT>
0

> <PUBCHEM_BOND_DEF_STEREO_COUNT>
0

> <PUBCHEM_BOND_UDEF_STEREO_COUNT>
0

> <PUBCHEM_ISOTOPIC_ATOM_COUNT>
0

> <PUBCHEM_COMPONENT_COUNT>
1

> <PUBCHEM_CACTVS_TAUTO_COUNT>
2

> <PUBCHEM_CONFORMER_ID>
009F77A100000001

> <PUBCHEM_MMFF94_ENERGY>
119.6841

> <PUBCHEM_FEATURE_SELFOVERLAP>
50.866

> <PUBCHEM_SHAPE_FINGERPRINT>
10074138 170 18121471786810993192
10190108 129 18266468783877423951
10815517 723 17982179121571132135
1100329 8 18339361843079604210
11719270 70 18337101281463745105
12553582 1 17617659204203611990
12597179 24 18343871026111017542
12643181 29 18411703193464987028
12788726 201 17686061995572614792
13004483 165 17617373330441691242
13052359 8 18337388360929476936
13140716 1 18410575046040515810
13726171 33 18051151468902261624
138480 1 17762056536458264582
13911987 19 18335142003209420525
14790565 3 18410859858175303020
14866123 147 18267306606519623746
15230672 131 18408328779479200574
15439362 3 18338232635889214060
15664445 248 17481436975747543263
15927050 60 18413109450491946919
16752209 62 18193830672978717050
17138139 8 17770745157415918919
17913733 40 18341065046762211521
1813 80 17410497585245852063
19427546 20 17975142242879472044
19591789 44 18410867554756457102
20028762 73 18056201504259297991
20554085 129 18058145320020071408
20642791 105 18265046027718399504
20642791 268 17482836658507686377
20739085 24 18118981203679715665
20775438 99 18200580432943883911
21033648 29 18339344323370583576
21781051 124 18115330928591668152
21796203 349 17475267629068582619
22182313 1 18266482999369561919
23559900 14 17760356704883992257
23569917 315 18412541011459811334
283562 15 18124307465991175207
3027735 51 18198340847842925839
3091708 16 9408862401577081779
340366 18 18187933944869936396
3759504 43 18410009982963074341
4409770 3 18121209042018192383
5385378 56 18339651027385221201
563151 74 18054823644649531649
59755656 520 18412544323047862388
6669772 16 18341334405530814934
6673363 416 17258784716526975238
6679774 75 18041274366950089530

> <PUBCHEM_SHAPE_MULTIPOLES>
528.97
10.22
5.58
1.08
0.01
9.86
0
-12.39
0.01
0
0
0
-0.69
0.67

> <PUBCHEM_SHAPE_SELFOVERLAP>
1191.027

> <PUBCHEM_SHAPE_VOLUME>
279.1

> <PUBCHEM_COORDINATE_TYPE>
2
5
10

$$$$
