667926
  -OEChem-10062122023D

 34 36  0     0  0  0  0  0  0999 V2000
   -2.8011    3.2920    0.0528 F   0  0  0  0  0  0  0  0  0  0  0  0
   -2.3161    0.5978    0.4161 N   0  0  0  0  0  0  0  0  0  0  0  0
    2.3032    1.4363   -0.1241 N   0  0  0  0  0  0  0  0  0  0  0  0
    0.0137    0.9996    0.1464 N   0  0  0  0  0  0  0  0  0  0  0  0
    0.8066    3.2381   -0.2634 N   0  0  0  0  0  0  0  0  0  0  0  0
   -2.5059   -0.7666    0.1136 C   0  0  0  0  0  0  0  0  0  0  0  0
   -1.2480    1.4864    0.1857 C   0  0  0  0  0  0  0  0  0  0  0  0
    2.8577    0.1508    0.0202 C   0  0  0  0  0  0  0  0  0  0  0  0
    0.9757    1.9149   -0.0781 C   0  0  0  0  0  0  0  0  0  0  0  0
   -3.6949   -1.4020    0.4719 C   0  0  0  0  0  0  0  0  0  0  0  0
   -1.5041   -1.4809   -0.5439 C   0  0  0  0  0  0  0  0  0  0  0  0
   -1.5488    2.8254    0.0101 C   0  0  0  0  0  0  0  0  0  0  0  0
    4.0373   -0.1826   -0.6486 C   0  0  0  0  0  0  0  0  0  0  0  0
    2.2297   -0.7956    0.8324 C   0  0  0  0  0  0  0  0  0  0  0  0
   -3.8820   -2.7516    0.1733 C   0  0  0  0  0  0  0  0  0  0  0  0
   -1.6915   -2.8305   -0.8426 C   0  0  0  0  0  0  0  0  0  0  0  0
   -0.4736    3.6610   -0.2128 C   0  0  0  0  0  0  0  0  0  0  0  0
    4.5865   -1.4568   -0.5061 C   0  0  0  0  0  0  0  0  0  0  0  0
    2.7789   -2.0699    0.9751 C   0  0  0  0  0  0  0  0  0  0  0  0
   -2.8805   -3.4657   -0.4840 C   0  0  0  0  0  0  0  0  0  0  0  0
    3.9572   -2.4004    0.3058 C   0  0  0  0  0  0  0  0  0  0  0  0
   -3.1090    1.0296    0.8828 H   0  0  0  0  0  0  0  0  0  0  0  0
    2.9618    2.1467   -0.4295 H   0  0  0  0  0  0  0  0  0  0  0  0
   -4.4839   -0.8576    0.9845 H   0  0  0  0  0  0  0  0  0  0  0  0
   -0.5743   -1.0339   -0.8729 H   0  0  0  0  0  0  0  0  0  0  0  0
    4.5374    0.5432   -1.2851 H   0  0  0  0  0  0  0  0  0  0  0  0
    1.3368   -0.5695    1.4058 H   0  0  0  0  0  0  0  0  0  0  0  0
   -4.8078   -3.2462    0.4521 H   0  0  0  0  0  0  0  0  0  0  0  0
   -0.9146   -3.3857   -1.3601 H   0  0  0  0  0  0  0  0  0  0  0  0
   -0.6164    4.7260   -0.3609 H   0  0  0  0  0  0  0  0  0  0  0  0
    5.5041   -1.7143   -1.0268 H   0  0  0  0  0  0  0  0  0  0  0  0
    2.2945   -2.8020    1.6147 H   0  0  0  0  0  0  0  0  0  0  0  0
   -3.0269   -4.5161   -0.7181 H   0  0  0  0  0  0  0  0  0  0  0  0
    4.3859   -3.3919    0.4186 H   0  0  0  0  0  0  0  0  0  0  0  0
  1 12  1  0  0  0  0
  2  6  1  0  0  0  0
  2  7  1  0  0  0  0
  2 22  1  0  0  0  0
  3  8  1  0  0  0  0
  3  9  1  0  0  0  0
  3 23  1  0  0  0  0
  4  7  2  0  0  0  0
  4  9  1  0  0  0  0
  5  9  2  0  0  0  0
  5 17  1  0  0  0  0
  6 10  2  0  0  0  0
  6 11  1  0  0  0  0
  7 12  1  0  0  0  0
  8 13  2  0  0  0  0
  8 14  1  0  0  0  0
 10 15  1  0  0  0  0
 10 24  1  0  0  0  0
 11 16  2  0  0  0  0
 11 25  1  0  0  0  0
 12 17  2  0  0  0  0
 13 18  1  0  0  0  0
 13 26  1  0  0  0  0
 14 19  2  0  0  0  0
 14 27  1  0  0  0  0
 15 20  2  0  0  0  0
 15 28  1  0  0  0  0
 16 20  1  0  0  0  0
 16 29  1  0  0  0  0
 17 30  1  0  0  0  0
 18 21  2  0  0  0  0
 18 31  1  0  0  0  0
 19 21  1  0  0  0  0
 19 32  1  0  0  0  0
 20 33  1  0  0  0  0
 21 34  1  0  0  0  0
M  END
> <PUBCHEM_COMPOUND_CID>
667926

> <PUBCHEM_CONFORMER_RMSD>
0.6

> <PUBCHEM_CONFORMER_DIVERSEORDER>
1
69
52
2
51
40
73
66
61
54
15
32
77
5
76
74
36
16
70
11
23
33
72
12
37
44
53
75
21
25
45
50
38
22
43
67
39
46
62
71
60
6
26
24
41
47
3
58
27
29
42
64
20
28
55
63
68
30
56
49
18
19
17
31
14
48
13
65
7
59
57
8
4
10
9
34
35

> <PUBCHEM_MMFF94_PARTIAL_CHARGES>
34
1 -0.19
10 -0.15
11 -0.15
12 0.19
13 -0.15
14 -0.15
15 -0.15
16 -0.15
17 0.16
18 -0.15
19 -0.15
2 -0.6
20 -0.15
21 -0.15
22 0.4
23 0.4
24 0.15
25 0.15
26 0.15
27 0.15
28 0.15
29 0.15
3 -0.6
30 0.15
31 0.15
32 0.15
33 0.15
34 0.15
4 -0.62
5 -0.62
6 0.1
7 0.41
8 0.1
9 0.72

> <PUBCHEM_EFFECTIVE_ROTOR_COUNT>
4

> <PUBCHEM_PHARMACOPHORE_FEATURES>
6
1 2 donor
1 3 donor
4 3 4 5 9 cation
6 4 5 7 9 12 17 rings
6 6 10 11 15 16 20 rings
6 8 13 14 18 19 21 rings

> <PUBCHEM_HEAVY_ATOM_COUNT>
21

> <PUBCHEM_ATOM_DEF_STEREO_COUNT>
0

> <PUBCHEM_ATOM_UDEF_STEREO_COUNT>
0

> <PUBCHEM_BOND_DEF_STEREO_COUNT>
0

> <PUBCHEM_BOND_UDEF_STEREO_COUNT>
0

> <PUBCHEM_ISOTOPIC_ATOM_COUNT>
0

> <PUBCHEM_COMPONENT_COUNT>
1

> <PUBCHEM_CACTVS_TAUTO_COUNT>
9

> <PUBCHEM_CONFORMER_ID>
000A311600000001

> <PUBCHEM_MMFF94_ENERGY>
78.6322

> <PUBCHEM_FEATURE_SELFOVERLAP>
30.446

> <PUBCHEM_SHAPE_FINGERPRINT>
10616163 171 18266181630447331486
107951 10 17172385186618425657
11014199 57 18267868465672898306
12107183 9 18269291187339471851
12403259 327 14835577962608053558
12553582 1 18338230574009811562
12788726 201 18334577902024857018
12990986 174 18410004400080563522
13533116 47 17764590211588935271
13631057 29 18412830201009155332
13785724 45 18268732639321742535
138480 1 15600608897533099583
14178342 30 18264468621627980754
14251757 5 18124894369283051510
14790565 3 17978797805003110841
14844126 61 18264198115639217066
14863182 85 17688310509409965972
14866123 147 18268431235690763363
15006816 218 16970544413865344132
15042514 8 18265901258955144297
15352361 1 18411136982508216518
16752209 62 18267850701687577315
17818456 19 17916323769645922915
19591789 44 17546447778108343387
19930381 70 17688871256087369027
20028762 73 18129091218336043413
20291156 8 18411138081977594298
20645477 70 17687169199524247751
21478907 32 18410292527956061401
21634736 98 18334300872803144142
2255824 54 17472415929581328445
23184049 29 18411698802879723980
23379529 103 18199764557125585070
23728640 28 18122058702386364097
238 59 17183336760301590531
3091708 16 9279081555287984249
314173 41 18265901447833887759
6443956 14 18119807169055946885
7097593 13 18053668263543595639

> <PUBCHEM_SHAPE_MULTIPOLES>
404.97
7.77
5.15
0.81
3.51
2.99
0.02
-7.55
-0.09
-3.02
-0.45
0.19
-0.34
-0.67

> <PUBCHEM_SHAPE_SELFOVERLAP>
881.86

> <PUBCHEM_SHAPE_VOLUME>
217.6

> <PUBCHEM_COORDINATE_TYPE>
2
5
10

$$$$
