15314616
  -OEChem-10052115193D

 29 31  0     0  0  0  0  0  0999 V2000
   -3.2092   -1.6582   -0.1737 O   0  0  0  0  0  0  0  0  0  0  0  0
   -3.9129    1.0054    0.1521 O   0  0  0  0  0  0  0  0  0  0  0  0
    1.7973   -2.7185   -0.3383 O   0  0  0  0  0  0  0  0  0  0  0  0
    4.7474    0.8056    0.0598 O   0  0  0  0  0  0  0  0  0  0  0  0
    3.5763   -1.2129   -0.1730 N   0  0  0  0  0  0  0  0  0  0  0  0
    2.0998    1.9704    0.2191 N   0  0  0  0  0  0  0  0  0  0  0  0
    0.1111   -0.0943   -0.0126 C   0  0  0  0  0  0  0  0  0  0  0  0
    1.4764   -0.3642   -0.0555 C   0  0  0  0  0  0  0  0  0  0  0  0
   -0.2535    1.2654    0.1529 C   0  0  0  0  0  0  0  0  0  0  0  0
    2.3794    0.6746    0.0617 C   0  0  0  0  0  0  0  0  0  0  0  0
   -0.9035   -1.0667   -0.1210 C   0  0  0  0  0  0  0  0  0  0  0  0
   -1.6121    1.6158    0.2054 C   0  0  0  0  0  0  0  0  0  0  0  0
    2.2558   -1.5997   -0.2090 C   0  0  0  0  0  0  0  0  0  0  0  0
   -2.2485   -0.6980   -0.0664 C   0  0  0  0  0  0  0  0  0  0  0  0
   -2.6017    0.6388    0.0962 C   0  0  0  0  0  0  0  0  0  0  0  0
    0.7703    2.2306    0.2605 C   0  0  0  0  0  0  0  0  0  0  0  0
    3.7318    0.1416   -0.0121 C   0  0  0  0  0  0  0  0  0  0  0  0
   -3.6561   -2.2657    1.0368 C   0  0  0  0  0  0  0  0  0  0  0  0
   -4.5479    1.3301   -1.0829 C   0  0  0  0  0  0  0  0  0  0  0  0
   -0.6542   -2.1168   -0.2496 H   0  0  0  0  0  0  0  0  0  0  0  0
   -1.9029    2.6569    0.3334 H   0  0  0  0  0  0  0  0  0  0  0  0
    0.5294    3.2833    0.3883 H   0  0  0  0  0  0  0  0  0  0  0  0
    4.3520   -1.8606   -0.2561 H   0  0  0  0  0  0  0  0  0  0  0  0
   -4.0935   -1.5173    1.7052 H   0  0  0  0  0  0  0  0  0  0  0  0
   -2.8283   -2.7784    1.5367 H   0  0  0  0  0  0  0  0  0  0  0  0
   -4.4242   -3.0027    0.7870 H   0  0  0  0  0  0  0  0  0  0  0  0
   -4.5348    0.4708   -1.7609 H   0  0  0  0  0  0  0  0  0  0  0  0
   -5.5881    1.5947   -0.8741 H   0  0  0  0  0  0  0  0  0  0  0  0
   -4.0562    2.1876   -1.5531 H   0  0  0  0  0  0  0  0  0  0  0  0
  1 14  1  0  0  0  0
  1 18  1  0  0  0  0
  2 15  1  0  0  0  0
  2 19  1  0  0  0  0
  3 13  2  0  0  0  0
  4 17  2  0  0  0  0
  5 13  1  0  0  0  0
  5 17  1  0  0  0  0
  5 23  1  0  0  0  0
  6 10  1  0  0  0  0
  6 16  2  0  0  0  0
  7  8  1  0  0  0  0
  7  9  1  0  0  0  0
  7 11  2  0  0  0  0
  8 10  2  0  0  0  0
  8 13  1  0  0  0  0
  9 12  2  0  0  0  0
  9 16  1  0  0  0  0
 10 17  1  0  0  0  0
 11 14  1  0  0  0  0
 11 20  1  0  0  0  0
 12 15  1  0  0  0  0
 12 21  1  0  0  0  0
 14 15  2  0  0  0  0
 16 22  1  0  0  0  0
 18 24  1  0  0  0  0
 18 25  1  0  0  0  0
 18 26  1  0  0  0  0
 19 27  1  0  0  0  0
 19 28  1  0  0  0  0
 19 29  1  0  0  0  0
M  END
> <PUBCHEM_COMPOUND_CID>
15314616

> <PUBCHEM_CONFORMER_RMSD>
0.6

> <PUBCHEM_CONFORMER_DIVERSEORDER>
1
2

> <PUBCHEM_MMFF94_PARTIAL_CHARGES>
21
1 -0.36
10 0.4
11 -0.15
12 -0.15
13 0.54
14 0.08
15 0.08
16 0.16
17 0.54
18 0.28
19 0.28
2 -0.36
20 0.15
21 0.15
22 0.15
23 0.37
3 -0.57
4 -0.57
5 -0.49
6 -0.62
8 0.09

> <PUBCHEM_EFFECTIVE_ROTOR_COUNT>
2.2

> <PUBCHEM_PHARMACOPHORE_FEATURES>
9
1 1 acceptor
1 2 acceptor
1 3 acceptor
1 4 acceptor
1 5 donor
1 6 acceptor
5 5 8 10 13 17 rings
6 6 7 8 9 10 16 rings
6 7 9 11 12 14 15 rings

> <PUBCHEM_HEAVY_ATOM_COUNT>
19

> <PUBCHEM_ATOM_DEF_STEREO_COUNT>
0

> <PUBCHEM_ATOM_UDEF_STEREO_COUNT>
0

> <PUBCHEM_BOND_DEF_STEREO_COUNT>
0

> <PUBCHEM_BOND_UDEF_STEREO_COUNT>
0

> <PUBCHEM_ISOTOPIC_ATOM_COUNT>
0

> <PUBCHEM_COMPONENT_COUNT>
1

> <PUBCHEM_CACTVS_TAUTO_COUNT>
3

> <PUBCHEM_CONFORMER_ID>
00E9AEB800000001

> <PUBCHEM_MMFF94_ENERGY>
78.7424

> <PUBCHEM_FEATURE_SELFOVERLAP>
45.811

> <PUBCHEM_SHAPE_FINGERPRINT>
10608611 8 18410289250563912977
10616163 171 18411984688751093223
10967382 1 18340206271887367934
1100329 8 16896238314459485971
11132069 177 18410289203298050440
11471102 20 18340482283797663956
11680986 33 18413390912482801051
12500047 106 18261105262576160157
13140716 1 18411982463878607657
13214271 11 18411978082980303999
13221675 6 18413108355364287852
14115302 16 18188218615095833221
14790565 3 18266748072389032204
15196674 1 18411138047949846978
15219456 202 18411418440373227049
15375358 24 18410007710903898738
15442244 35 18053666875994547152
15536298 74 18272370837192043652
16945 1 18340494373909159944
200 152 17846208973630251869
20645477 70 18130786711608400487
21029758 11 18200304425507837433
21267235 1 18339934808384719086
21421861 104 17824255991178417146
221490 88 18337397148458789034
2334 1 18340206413526258705
23402539 116 17749102305662009196
23402655 69 18271516490935476733
23419403 2 13027833391769035085
23463225 33 18411138022090430924
23559900 14 18411417268258722282
2748010 2 18339919441192096605
2871803 45 18336260253684017095
3312278 4 18412547608597220713
335352 9 18339361842546133588
34934 24 18411130307975615980
350125 39 18193844957750091985
3545911 37 18410857650783191269
4072396 5 18265877113134205672
495365 180 17845068779692687057
5104073 3 18411418414756424466
57005193 9 18341040835556738084
69090 78 18341888550748284557
7364860 26 18343861126122053776
8809292 202 18334862705564045139
9709674 26 18341897325097789327

> <PUBCHEM_SHAPE_MULTIPOLES>
357.57
7.87
2.53
0.74
0.88
0.69
-0.01
0.21
-0.55
0.55
0.18
0.5
0.04
0.98

> <PUBCHEM_SHAPE_SELFOVERLAP>
802.071

> <PUBCHEM_SHAPE_VOLUME>
191.5

> <PUBCHEM_COORDINATE_TYPE>
2
5
10

$$$$
