49830989
  -OEChem-10052115183D

 22 23  0     0  0  0  0  0  0999 V2000
    0.1226    2.3554    0.0933 S   0  0  0  0  0  0  0  0  0  0  0  0
    2.9796    1.6854   -0.3182 O   0  0  0  0  0  0  0  0  0  0  0  0
   -3.8262    0.4713    0.1025 O   0  0  0  0  0  0  0  0  0  0  0  0
   -2.8622   -1.5794   -0.0747 O   0  0  0  0  0  0  0  0  0  0  0  0
   -0.0276   -1.5326   -0.1941 N   0  0  0  0  0  0  0  0  0  0  0  0
    2.8912   -0.5060    0.1996 N   0  0  0  0  0  0  0  0  0  0  0  0
    1.2332   -2.2131   -0.3939 C   0  0  0  0  0  0  0  0  0  0  0  0
   -0.1773   -0.1890   -0.0746 C   0  0  0  0  0  0  0  0  0  0  0  0
    2.2690   -1.7502    0.6107 C   0  0  0  0  0  0  0  0  0  0  0  0
    0.8162    0.7758   -0.0248 C   0  0  0  0  0  0  0  0  0  0  0  0
   -1.4882    0.3772    0.0173 C   0  0  0  0  0  0  0  0  0  0  0  0
    2.2728    0.7048   -0.0644 C   0  0  0  0  0  0  0  0  0  0  0  0
   -1.4666    1.7470    0.1132 C   0  0  0  0  0  0  0  0  0  0  0  0
   -2.7366   -0.3466    0.0081 C   0  0  0  0  0  0  0  0  0  0  0  0
    1.5782   -2.0725   -1.4251 H   0  0  0  0  0  0  0  0  0  0  0  0
    1.0597   -3.2862   -0.2551 H   0  0  0  0  0  0  0  0  0  0  0  0
    1.8467   -1.6116    1.6122 H   0  0  0  0  0  0  0  0  0  0  0  0
    3.0754   -2.4881    0.6783 H   0  0  0  0  0  0  0  0  0  0  0  0
   -0.8409   -2.1434   -0.2126 H   0  0  0  0  0  0  0  0  0  0  0  0
    3.9063   -0.5014    0.1681 H   0  0  0  0  0  0  0  0  0  0  0  0
   -2.2942    2.4387    0.1910 H   0  0  0  0  0  0  0  0  0  0  0  0
   -4.6647   -0.0379    0.0946 H   0  0  0  0  0  0  0  0  0  0  0  0
  1 10  1  0  0  0  0
  1 13  1  0  0  0  0
  2 12  2  0  0  0  0
  3 14  1  0  0  0  0
  3 22  1  0  0  0  0
  4 14  2  0  0  0  0
  5  7  1  0  0  0  0
  5  8  1  0  0  0  0
  5 19  1  0  0  0  0
  6  9  1  0  0  0  0
  6 12  1  0  0  0  0
  6 20  1  0  0  0  0
  7  9  1  0  0  0  0
  7 15  1  0  0  0  0
  7 16  1  0  0  0  0
  8 10  2  0  0  0  0
  8 11  1  0  0  0  0
  9 17  1  0  0  0  0
  9 18  1  0  0  0  0
 10 12  1  0  0  0  0
 11 13  2  0  0  0  0
 11 14  1  0  0  0  0
 13 21  1  0  0  0  0
M  END
> <PUBCHEM_COMPOUND_CID>
49830989

> <PUBCHEM_CONFORMER_RMSD>
0.6

> <PUBCHEM_CONFORMER_DIVERSEORDER>
1
2

> <PUBCHEM_MMFF94_PARTIAL_CHARGES>
18
1 -0.08
10 -0.05
11 -0.09
12 0.71
13 -0.11
14 0.81
19 0.4
2 -0.57
20 0.37
21 0.15
22 0.5
3 -0.65
4 -0.57
5 -0.85
6 -0.73
7 0.37
8 0.08
9 0.3

> <PUBCHEM_EFFECTIVE_ROTOR_COUNT>
1.8

> <PUBCHEM_PHARMACOPHORE_FEATURES>
9
1 2 acceptor
1 3 acceptor
1 4 acceptor
1 5 cation
1 5 donor
1 6 donor
3 3 4 14 anion
5 1 8 10 11 13 rings
7 5 6 7 8 9 10 12 rings

> <PUBCHEM_HEAVY_ATOM_COUNT>
14

> <PUBCHEM_ATOM_DEF_STEREO_COUNT>
0

> <PUBCHEM_ATOM_UDEF_STEREO_COUNT>
0

> <PUBCHEM_BOND_DEF_STEREO_COUNT>
0

> <PUBCHEM_BOND_UDEF_STEREO_COUNT>
0

> <PUBCHEM_ISOTOPIC_ATOM_COUNT>
0

> <PUBCHEM_COMPONENT_COUNT>
1

> <PUBCHEM_CACTVS_TAUTO_COUNT>
5

> <PUBCHEM_CONFORMER_ID>
02F85C4D00000001

> <PUBCHEM_MMFF94_ENERGY>
27.0257

> <PUBCHEM_FEATURE_SELFOVERLAP>
45.753

> <PUBCHEM_SHAPE_FINGERPRINT>
10967382 1 18411138043354186349
10980938 120 18411136960890506995
11132069 177 18412819196538071586
11471102 20 18410288116892844677
12382932 28 18413392025238202451
12696612 119 18266180517902816390
13897977 150 18410290345775155821
14251717 144 18411693305553739231
14325111 11 18410575127728978341
15775835 57 18341899631394746860
16945 1 18050852113253004252
17990270 104 18194683670442246602
19021347 11 18337109076470418310
193761 8 18123191195084193804
19973954 147 18195528086660838784
20201158 50 18336263453355317027
20645476 183 17607823995093321668
20645477 70 18409725145522726159
20711985 365 18193272988502473101
21501502 16 18266743484777832465
2334 1 18411136930820467669
23388829 49 18412259558009879005
23402539 116 18271802488633855004
23463225 33 18409446955752683696
23552423 10 18262803960448390956
2748010 2 18339077081961749700
3312278 4 18411142475924076681
528862 383 18334570261335675930
528886 8 18339920510485842721
53812653 166 18271240641906838424
7364860 26 18342739581480509926
8809292 202 18260554398355274523

> <PUBCHEM_SHAPE_MULTIPOLES>
264.39
4.76
2.52
0.65
1.85
0.14
-0.02
-0.67
-0.2
-0.76
0.07
-0.11
-0.04
-0.26

> <PUBCHEM_SHAPE_SELFOVERLAP>
556.426

> <PUBCHEM_SHAPE_VOLUME>
148.6

> <PUBCHEM_COORDINATE_TYPE>
2
5
10

$$$$
