57396882
  -OEChem-10052115173D

 58 63  0     1  0  0  0  0  0999 V2000
    6.5885    3.0093    0.8563 F   0  0  0  0  0  0  0  0  0  0  0  0
    2.2209   -3.4365   -0.4185 O   0  0  0  0  0  0  0  0  0  0  0  0
   -2.5925    1.1773    0.4740 N   0  0  2  0  0  0  0  0  0  0  0  0
    0.3281   -2.0814   -0.1205 N   0  0  0  0  0  0  0  0  0  0  0  0
   -4.4057    4.4550    0.6840 N   0  0  0  0  0  0  0  0  0  0  0  0
    2.5358   -0.1208   -1.0376 N   0  0  0  0  0  0  0  0  0  0  0  0
   -1.7867   -0.9922    0.4272 C   0  0  2  0  0  0  0  0  0  0  0  0
   -2.7210   -0.0437   -0.3242 C   0  0  0  0  0  0  0  0  0  0  0  0
   -2.0755   -0.6558    1.9003 C   0  0  0  0  0  0  0  0  0  0  0  0
   -2.6857    0.7483    1.8723 C   0  0  0  0  0  0  0  0  0  0  0  0
   -0.2938   -0.7519    0.0741 C   0  0  0  0  0  0  0  0  0  0  0  0
   -1.9368   -2.4518    0.1065 C   0  0  0  0  0  0  0  0  0  0  0  0
   -3.5923    2.1852    0.1271 C   0  0  2  0  0  0  0  0  0  0  0  0
   -0.7002   -3.0458   -0.1651 C   0  0  0  0  0  0  0  0  0  0  0  0
   -3.4387    2.5870   -1.3428 C   0  0  0  0  0  0  0  0  0  0  0  0
   -3.4475    3.4064    1.0433 C   0  0  0  0  0  0  0  0  0  0  0  0
   -3.1022   -3.2088    0.1045 C   0  0  0  0  0  0  0  0  0  0  0  0
   -4.3894    3.7329   -1.6803 C   0  0  0  0  0  0  0  0  0  0  0  0
   -4.2269    4.8932   -0.7005 C   0  0  0  0  0  0  0  0  0  0  0  0
   -0.6069   -4.4037   -0.4386 C   0  0  0  0  0  0  0  0  0  0  0  0
    1.6852   -2.3434   -0.2565 C   0  0  0  0  0  0  0  0  0  0  0  0
   -3.0179   -4.5727   -0.1758 C   0  0  0  0  0  0  0  0  0  0  0  0
   -1.7781   -5.1657   -0.4439 C   0  0  0  0  0  0  0  0  0  0  0  0
    2.5900   -1.1863   -0.1795 C   0  0  0  0  0  0  0  0  0  0  0  0
    3.6088   -0.9571    0.7164 C   0  0  0  0  0  0  0  0  0  0  0  0
    3.5062    0.8002   -0.7130 C   0  0  0  0  0  0  0  0  0  0  0  0
    4.1979    0.2966    0.3908 C   0  0  0  0  0  0  0  0  0  0  0  0
    3.8215    2.0279   -1.3058 C   0  0  0  0  0  0  0  0  0  0  0  0
    5.2563    1.0538    0.9309 C   0  0  0  0  0  0  0  0  0  0  0  0
    5.5832    2.2835    0.3480 C   0  0  0  0  0  0  0  0  0  0  0  0
    4.8754    2.7612   -0.7531 C   0  0  0  0  0  0  0  0  0  0  0  0
   -2.3994    0.0844   -1.3631 H   0  0  0  0  0  0  0  0  0  0  0  0
   -3.7547   -0.4134   -0.3271 H   0  0  0  0  0  0  0  0  0  0  0  0
   -1.1741   -0.6901    2.5226 H   0  0  0  0  0  0  0  0  0  0  0  0
   -2.7986   -1.3517    2.3433 H   0  0  0  0  0  0  0  0  0  0  0  0
   -3.7237    0.6898    2.2240 H   0  0  0  0  0  0  0  0  0  0  0  0
   -2.1286    1.4184    2.5353 H   0  0  0  0  0  0  0  0  0  0  0  0
   -0.1908   -0.2121   -0.8746 H   0  0  0  0  0  0  0  0  0  0  0  0
    0.2511   -0.1936    0.8431 H   0  0  0  0  0  0  0  0  0  0  0  0
   -4.6022    1.7705    0.2646 H   0  0  0  0  0  0  0  0  0  0  0  0
   -3.6652    1.7547   -2.0181 H   0  0  0  0  0  0  0  0  0  0  0  0
   -2.4072    2.9025   -1.5480 H   0  0  0  0  0  0  0  0  0  0  0  0
   -3.6481    3.1414    2.0868 H   0  0  0  0  0  0  0  0  0  0  0  0
   -2.4267    3.8090    1.0042 H   0  0  0  0  0  0  0  0  0  0  0  0
   -4.2004    4.0817   -2.7018 H   0  0  0  0  0  0  0  0  0  0  0  0
   -5.4246    3.3696   -1.6525 H   0  0  0  0  0  0  0  0  0  0  0  0
   -4.0642   -2.7591    0.3271 H   0  0  0  0  0  0  0  0  0  0  0  0
   -4.9739    5.6616   -0.9277 H   0  0  0  0  0  0  0  0  0  0  0  0
   -3.2412    5.3582   -0.8237 H   0  0  0  0  0  0  0  0  0  0  0  0
   -4.2802    5.2524    1.3070 H   0  0  0  0  0  0  0  0  0  0  0  0
    0.3339   -4.8933   -0.6581 H   0  0  0  0  0  0  0  0  0  0  0  0
   -3.9184   -5.1805   -0.1808 H   0  0  0  0  0  0  0  0  0  0  0  0
   -1.7274   -6.2297   -0.6593 H   0  0  0  0  0  0  0  0  0  0  0  0
    1.8900   -0.0261   -1.8092 H   0  0  0  0  0  0  0  0  0  0  0  0
    3.9014   -1.6179    1.5214 H   0  0  0  0  0  0  0  0  0  0  0  0
    3.2709    2.4007   -2.1629 H   0  0  0  0  0  0  0  0  0  0  0  0
    5.8163    0.6937    1.7891 H   0  0  0  0  0  0  0  0  0  0  0  0
    5.1461    3.7190   -1.1898 H   0  0  0  0  0  0  0  0  0  0  0  0
  1 30  1  0  0  0  0
  2 21  2  0  0  0  0
  3  8  1  0  0  0  0
  3 10  1  0  0  0  0
  3 13  1  0  0  0  0
  4 11  1  0  0  0  0
  4 14  1  0  0  0  0
  4 21  1  0  0  0  0
  5 16  1  0  0  0  0
  5 19  1  0  0  0  0
  5 50  1  0  0  0  0
  6 24  1  0  0  0  0
  6 26  1  0  0  0  0
  6 54  1  0  0  0  0
  7  8  1  0  0  0  0
  7  9  1  0  0  0  0
  7 11  1  0  0  0  0
  7 12  1  0  0  0  0
  8 32  1  0  0  0  0
  8 33  1  0  0  0  0
  9 10  1  0  0  0  0
  9 34  1  0  0  0  0
  9 35  1  0  0  0  0
 10 36  1  0  0  0  0
 10 37  1  0  0  0  0
 11 38  1  0  0  0  0
 11 39  1  0  0  0  0
 12 14  1  0  0  0  0
 12 17  2  0  0  0  0
 13 15  1  0  0  0  0
 13 16  1  0  0  0  0
 13 40  1  0  0  0  0
 14 20  2  0  0  0  0
 15 18  1  0  0  0  0
 15 41  1  0  0  0  0
 15 42  1  0  0  0  0
 16 43  1  0  0  0  0
 16 44  1  0  0  0  0
 17 22  1  0  0  0  0
 17 47  1  0  0  0  0
 18 19  1  0  0  0  0
 18 45  1  0  0  0  0
 18 46  1  0  0  0  0
 19 48  1  0  0  0  0
 19 49  1  0  0  0  0
 20 23  1  0  0  0  0
 20 51  1  0  0  0  0
 21 24  1  0  0  0  0
 22 23  2  0  0  0  0
 22 52  1  0  0  0  0
 23 53  1  0  0  0  0
 24 25  2  0  0  0  0
 25 27  1  0  0  0  0
 25 55  1  0  0  0  0
 26 27  2  0  0  0  0
 26 28  1  0  0  0  0
 27 29  1  0  0  0  0
 28 31  2  0  0  0  0
 28 56  1  0  0  0  0
 29 30  2  0  0  0  0
 29 57  1  0  0  0  0
 30 31  1  0  0  0  0
 31 58  1  0  0  0  0
M  END
> <PUBCHEM_COMPOUND_CID>
57396882

> <PUBCHEM_CONFORMER_RMSD>
0.8

> <PUBCHEM_CONFORMER_DIVERSEORDER>
1
11
100
102
94
66
7
114
117
57
38
49
90
96
88
53
32
112
6
15
75
46
92
105
30
21
78
116
106
85
10
43
101
73
60
83
91
48
95
68
12
113
40
99
47
14
5
63
97
109
84
20
39
111
81
37
82
107
59
44
118
58
24
110
67
71
51
18
80
108
61
56
87
69
28
52
70
72
50
76
35
16
74
104
65
86
64
23
26
115
103
93
31
42
8
79
62
36
98
17
29
41
89
22
27
77
13
25
9
54
2
19
45
33
4
55
34
3

> <PUBCHEM_MMFF94_PARTIAL_CHARGES>
37
1 -0.19
10 0.27
11 0.3
12 -0.14
13 0.27
14 0.12
16 0.27
17 -0.15
19 0.27
2 -0.57
20 -0.15
21 0.71
22 -0.15
23 -0.15
24 -0.24
25 -0.15
26 -0.15
28 -0.15
29 -0.15
3 -0.81
30 0.19
31 -0.15
4 -0.48
47 0.15
5 -0.9
50 0.36
51 0.15
52 0.15
53 0.15
54 0.27
55 0.15
56 0.15
57 0.15
58 0.15
6 0.03
7 0.14
8 0.27

> <PUBCHEM_EFFECTIVE_ROTOR_COUNT>
5.4

> <PUBCHEM_PHARMACOPHORE_FEATURES>
12
1 2 acceptor
1 3 cation
1 5 cation
1 5 donor
1 6 cation
1 6 donor
5 3 7 8 9 10 rings
5 4 7 11 12 14 rings
5 6 24 25 26 27 rings
6 12 14 17 20 22 23 rings
6 26 27 28 29 30 31 rings
6 5 13 15 16 18 19 rings

> <PUBCHEM_HEAVY_ATOM_COUNT>
31

> <PUBCHEM_ATOM_DEF_STEREO_COUNT>
1

> <PUBCHEM_ATOM_UDEF_STEREO_COUNT>
1

> <PUBCHEM_BOND_DEF_STEREO_COUNT>
0

> <PUBCHEM_BOND_UDEF_STEREO_COUNT>
0

> <PUBCHEM_ISOTOPIC_ATOM_COUNT>
0

> <PUBCHEM_COMPONENT_COUNT>
1

> <PUBCHEM_CACTVS_TAUTO_COUNT>
5

> <PUBCHEM_CONFORMER_ID>
036BCE9200000001

> <PUBCHEM_MMFF94_ENERGY>
79.4322

> <PUBCHEM_FEATURE_SELFOVERLAP>
61.089

> <PUBCHEM_SHAPE_FINGERPRINT>
10256941 240 18265590200265460256
10258939 38 18041582269065482353
10439779 11 18337940269218949344
10670039 82 18123205751593309412
10673678 19 18123469380817998137
10675989 125 17908138776680914832
10838868 217 17973424530891453152
10937287 8 18339360751877628165
11386260 185 16825009748348518125
11477941 20 17695345168009236308
11582403 64 17533490145824804755
12107183 9 18190726571692576290
12788726 201 18190730024202911899
13944108 23 17253444405138834316
13965767 371 18041840597946378222
14294032 229 18339654433293936065
14394314 77 17617106140863992349
14848178 96 18196368117745079265
15400415 2 18267021665874460016
15961568 22 17332525082655007056
16087824 20 18339924944137868975
16988056 13 17111843769848032269
16992779 147 17622744015732789369
19319366 153 17983567516841106781
20238998 120 17979070810931587047
20715895 44 18121773937655180424
21033650 10 18118707610890217476
21133410 90 17690826179397980903
21304303 282 18125973080088904799
21641784 216 17978524348618903326
21792964 463 17459478929613220551
21796203 349 17107660634990049067
21860390 5 17622165663624925239
22907989 373 18339631356445561279
3418910 222 17399805286117850548
376196 1 18117561713167459803
469060 322 17907317780849974530
550186 72 18050003599556659244
6036956 94 17972323081601080765
6523845 18 17981081589352898399
653340 110 18267018552143742708
6608658 132 17829908868399223756
6677587 24 16669875409262007733
7399639 24 18192453908780880499
7808743 9 18340772653920449416
9849439 229 18339925913534134737
9981440 41 18337112263700253321

> <PUBCHEM_SHAPE_MULTIPOLES>
604.9
11.77
7.96
1.3
15.86
1.83
-0.21
-16.5
-0.52
-10.8
1.92
-0.64
-0.92
0.65

> <PUBCHEM_SHAPE_SELFOVERLAP>
1347.568

> <PUBCHEM_SHAPE_VOLUME>
326.3

> <PUBCHEM_COORDINATE_TYPE>
2
5
10

$$$$
