49830961
  -OEChem-10052120443D

 39 41  0     0  0  0  0  0  0999 V2000
   -7.8209   -0.7084   -0.0509 F   0  0  0  0  0  0  0  0  0  0  0  0
    2.5756   -0.1360   -0.1639 N   0  0  0  0  0  0  0  0  0  0  0  0
   -1.7558    0.2234    1.2216 N   0  0  0  0  0  0  0  0  0  0  0  0
    1.8089    1.0076    0.2858 C   0  0  0  0  0  0  0  0  0  0  0  0
    0.3484    0.7578    0.1579 C   0  0  0  0  0  0  0  0  0  0  0  0
    3.9563   -0.1988   -0.1122 C   0  0  0  0  0  0  0  0  0  0  0  0
   -2.3350    0.2878    0.0017 C   0  0  0  0  0  0  0  0  0  0  0  0
   -0.2832    0.8151   -1.0795 C   0  0  0  0  0  0  0  0  0  0  0  0
   -3.7584    0.0293   -0.0131 C   0  0  0  0  0  0  0  0  0  0  0  0
   -1.6503    0.5770   -1.1677 C   0  0  0  0  0  0  0  0  0  0  0  0
   -0.4257    0.4608    1.2680 C   0  0  0  0  0  0  0  0  0  0  0  0
    4.6852    0.8776    0.3939 C   0  0  0  0  0  0  0  0  0  0  0  0
    4.6200   -1.3383   -0.5668 C   0  0  0  0  0  0  0  0  0  0  0  0
    6.7413   -0.3254   -0.0091 C   0  0  0  0  0  0  0  0  0  0  0  0
    6.0775    0.8142    0.4454 C   0  0  0  0  0  0  0  0  0  0  0  0
    6.0124   -1.4015   -0.5153 C   0  0  0  0  0  0  0  0  0  0  0  0
   -4.6404    1.0059   -0.4758 C   0  0  0  0  0  0  0  0  0  0  0  0
   -4.2489   -1.1966    0.4368 C   0  0  0  0  0  0  0  0  0  0  0  0
    8.2301   -0.3933    0.0455 C   0  0  0  0  0  0  0  0  0  0  0  0
   -6.0127    0.7568   -0.4884 C   0  0  0  0  0  0  0  0  0  0  0  0
   -5.6212   -1.4457    0.4242 C   0  0  0  0  0  0  0  0  0  0  0  0
   -6.5031   -0.4691   -0.0383 C   0  0  0  0  0  0  0  0  0  0  0  0
    2.0668    1.8980   -0.3020 H   0  0  0  0  0  0  0  0  0  0  0  0
    2.0452    1.2354    1.3332 H   0  0  0  0  0  0  0  0  0  0  0  0
    2.0827   -0.9393   -0.5397 H   0  0  0  0  0  0  0  0  0  0  0  0
    0.2798    1.0431   -1.9805 H   0  0  0  0  0  0  0  0  0  0  0  0
   -2.1455    0.6161   -2.1327 H   0  0  0  0  0  0  0  0  0  0  0  0
    0.0078    0.3992    2.2615 H   0  0  0  0  0  0  0  0  0  0  0  0
    4.2114    1.7848    0.7563 H   0  0  0  0  0  0  0  0  0  0  0  0
    4.0646   -2.1845   -0.9634 H   0  0  0  0  0  0  0  0  0  0  0  0
    6.6348    1.6584    0.8429 H   0  0  0  0  0  0  0  0  0  0  0  0
    6.5180   -2.2955   -0.8709 H   0  0  0  0  0  0  0  0  0  0  0  0
   -4.2794    1.9702   -0.8255 H   0  0  0  0  0  0  0  0  0  0  0  0
   -3.5769   -1.9716    0.7978 H   0  0  0  0  0  0  0  0  0  0  0  0
    8.6754    0.6016   -0.0627 H   0  0  0  0  0  0  0  0  0  0  0  0
    8.6275   -1.0117   -0.7665 H   0  0  0  0  0  0  0  0  0  0  0  0
    8.5518   -0.8195    1.0009 H   0  0  0  0  0  0  0  0  0  0  0  0
   -6.6999    1.5173   -0.8474 H   0  0  0  0  0  0  0  0  0  0  0  0
   -6.0035   -2.4003    0.7737 H   0  0  0  0  0  0  0  0  0  0  0  0
  1 22  1  0  0  0  0
  2  4  1  0  0  0  0
  2  6  1  0  0  0  0
  2 25  1  0  0  0  0
  3  7  2  0  0  0  0
  3 11  1  0  0  0  0
  4  5  1  0  0  0  0
  4 23  1  0  0  0  0
  4 24  1  0  0  0  0
  5  8  1  0  0  0  0
  5 11  2  0  0  0  0
  6 12  2  0  0  0  0
  6 13  1  0  0  0  0
  7  9  1  0  0  0  0
  7 10  1  0  0  0  0
  8 10  2  0  0  0  0
  8 26  1  0  0  0  0
  9 17  2  0  0  0  0
  9 18  1  0  0  0  0
 10 27  1  0  0  0  0
 11 28  1  0  0  0  0
 12 15  1  0  0  0  0
 12 29  1  0  0  0  0
 13 16  2  0  0  0  0
 13 30  1  0  0  0  0
 14 15  2  0  0  0  0
 14 16  1  0  0  0  0
 14 19  1  0  0  0  0
 15 31  1  0  0  0  0
 16 32  1  0  0  0  0
 17 20  1  0  0  0  0
 17 33  1  0  0  0  0
 18 21  2  0  0  0  0
 18 34  1  0  0  0  0
 19 35  1  0  0  0  0
 19 36  1  0  0  0  0
 19 37  1  0  0  0  0
 20 22  2  0  0  0  0
 20 38  1  0  0  0  0
 21 22  1  0  0  0  0
 21 39  1  0  0  0  0
M  END
> <PUBCHEM_COMPOUND_CID>
49830961

> <PUBCHEM_CONFORMER_RMSD>
0.6

> <PUBCHEM_CONFORMER_DIVERSEORDER>
1
46
33
26
25
43
29
23
8
41
14
44
31
35
4
40
45
16
30
6
24
17
3
38
39
18
13
28
27
2
36
37
7
9
32
47
20
10
15
21
22
5
42
19
34
11
12

> <PUBCHEM_MMFF94_PARTIAL_CHARGES>
33
1 -0.19
10 -0.15
11 0.16
12 -0.15
13 -0.15
14 -0.14
15 -0.15
16 -0.15
17 -0.15
18 -0.15
19 0.14
2 -0.87
20 -0.15
21 -0.15
22 0.19
25 0.4
26 0.15
27 0.15
28 0.15
29 0.15
3 -0.62
30 0.15
31 0.15
32 0.15
33 0.15
34 0.15
38 0.15
39 0.15
4 0.51
5 -0.14
6 0.1
7 0.31
8 -0.15

> <PUBCHEM_EFFECTIVE_ROTOR_COUNT>
4

> <PUBCHEM_PHARMACOPHORE_FEATURES>
6
1 2 cation
1 2 donor
1 3 acceptor
6 3 5 7 8 10 11 rings
6 6 12 13 14 15 16 rings
6 9 17 18 20 21 22 rings

> <PUBCHEM_HEAVY_ATOM_COUNT>
22

> <PUBCHEM_ATOM_DEF_STEREO_COUNT>
0

> <PUBCHEM_ATOM_UDEF_STEREO_COUNT>
0

> <PUBCHEM_BOND_DEF_STEREO_COUNT>
0

> <PUBCHEM_BOND_UDEF_STEREO_COUNT>
0

> <PUBCHEM_ISOTOPIC_ATOM_COUNT>
0

> <PUBCHEM_COMPONENT_COUNT>
1

> <PUBCHEM_CACTVS_TAUTO_COUNT>
1

> <PUBCHEM_CONFORMER_ID>
02F85C3100000001

> <PUBCHEM_MMFF94_ENERGY>
71.6877

> <PUBCHEM_FEATURE_SELFOVERLAP>
30.446

> <PUBCHEM_SHAPE_FINGERPRINT>
10 15 14836122174003796730
10299344 5 18410294713503545334
106641 1 14908178677230872751
10670039 82 14490181700674287223
11315181 36 18411422817451563881
11524674 6 17918272073674459175
11719270 70 18341891875422899246
12091667 2 16950565467703828213
12236239 1 17418094308713838216
12516196 113 18342174470810769000
13288520 33 18334013904710928941
13533116 47 17203328875930244366
13668630 136 18341335518148942110
13685833 64 18411420613405080706
13885169 127 18411418376297240949
13968360 50 14056711336415735552
14123256 10 16515684441951262714
14251757 52 12463278246857580378
14251764 18 15697995258177550813
14251764 46 18411136935104872449
14294032 229 15937800818897193629
15183329 4 15213019353783489502
15419008 91 18263061327663828652
15690457 1 17775000211132787919
15716309 27 18060418032071289535
15849732 13 18410854373512031501
17844677 252 18412269432161304640
18006028 8 17917992776055788841
20281389 69 10663822966445877862
20735858 18 15267345128179708853
21150785 3 14201399400161483491
21267235 1 17775290439890819652
21623969 137 18060142028914907134
22224240 67 14836401432840550044
2297311 6 18186801375210607405
23035841 295 17822009809287286937
23402539 116 17167859768356445165
23536379 177 18410292501854117169
23559900 14 18338793537359714649
23576562 1 13840841014858446583
23622692 88 16056876944453017388
2838139 119 10737284675244867875
29717793 49 15719396106163388274
3004659 81 17821729451128927180
4073 2 18114748247543002754
4325135 7 16298102081714986470
59682541 35 16271922740117765114
59755656 215 18040433278449403282

> <PUBCHEM_SHAPE_MULTIPOLES>
435.51
22.69
1.27
0.94
9.04
0.26
-0.02
6.48
0.57
-0.08
0.05
-0.18
-0.1
1.08

> <PUBCHEM_SHAPE_SELFOVERLAP>
949.44

> <PUBCHEM_SHAPE_VOLUME>
238.3

> <PUBCHEM_COORDINATE_TYPE>
2
5
10

$$$$
