49830299
  -OEChem-10052120443D

 40 42  0     0  0  0  0  0  0999 V2000
    0.1526   -4.7023   -1.1119 Cl  0  0  0  0  0  0  0  0  0  0  0  0
   -5.9705    0.9071   -0.2627 S   0  0  0  0  0  0  0  0  0  0  0  0
   -6.2438   -0.3929    0.3181 O   0  0  0  0  0  0  0  0  0  0  0  0
   -6.4747    1.2528   -1.5778 O   0  0  0  0  0  0  0  0  0  0  0  0
   -2.1045   -0.5462    0.4175 N   0  0  0  0  0  0  0  0  0  0  0  0
    4.7383   -0.1107    1.2813 N   0  0  0  0  0  0  0  0  0  0  0  0
   -4.2950    1.2159   -0.2340 N   0  0  0  0  0  0  0  0  0  0  0  0
   -0.9322   -2.4927   -0.2988 N   0  0  0  0  0  0  0  0  0  0  0  0
    5.3405    1.9292    0.1500 N   0  0  0  0  0  0  0  0  0  0  0  0
    2.7367   -0.5045    0.3928 C   0  0  0  0  0  0  0  0  0  0  0  0
    3.2489    0.6912   -0.1767 C   0  0  0  0  0  0  0  0  0  0  0  0
    1.4923   -1.1784    0.1574 C   0  0  0  0  0  0  0  0  0  0  0  0
   -2.1541    0.7940    0.9036 C   0  0  0  0  0  0  0  0  0  0  0  0
   -3.5942    1.2534    1.0698 C   0  0  0  0  0  0  0  0  0  0  0  0
    4.4977    0.9086    0.3981 C   0  0  0  0  0  0  0  0  0  0  0  0
    3.6748   -0.9757    1.2857 C   0  0  0  0  0  0  0  0  0  0  0  0
   -0.8857   -1.2227    0.1621 C   0  0  0  0  0  0  0  0  0  0  0  0
    0.2884   -0.5278    0.4042 C   0  0  0  0  0  0  0  0  0  0  0  0
    1.4854   -2.4854   -0.3174 C   0  0  0  0  0  0  0  0  0  0  0  0
    2.8008    1.6281   -1.1221 C   0  0  0  0  0  0  0  0  0  0  0  0
    0.2577   -3.0926   -0.5273 C   0  0  0  0  0  0  0  0  0  0  0  0
    3.6347    2.7052   -1.4168 C   0  0  0  0  0  0  0  0  0  0  0  0
   -6.5524    2.1466    0.8718 C   0  0  0  0  0  0  0  0  0  0  0  0
    4.8581    2.7998   -0.7671 C   0  0  0  0  0  0  0  0  0  0  0  0
   -1.6531    1.4760    0.2050 H   0  0  0  0  0  0  0  0  0  0  0  0
   -1.6607    0.8719    1.8799 H   0  0  0  0  0  0  0  0  0  0  0  0
   -4.1015    0.6003    1.7886 H   0  0  0  0  0  0  0  0  0  0  0  0
   -3.6154    2.2786    1.4537 H   0  0  0  0  0  0  0  0  0  0  0  0
    3.6869   -1.8456    1.9288 H   0  0  0  0  0  0  0  0  0  0  0  0
    0.3106    0.4895    0.7796 H   0  0  0  0  0  0  0  0  0  0  0  0
   -2.9565   -1.0638    0.2346 H   0  0  0  0  0  0  0  0  0  0  0  0
    5.5724   -0.2090    1.8432 H   0  0  0  0  0  0  0  0  0  0  0  0
   -3.9456    1.9140   -0.9038 H   0  0  0  0  0  0  0  0  0  0  0  0
    2.4095   -3.0178   -0.5236 H   0  0  0  0  0  0  0  0  0  0  0  0
    1.8389    1.5257   -1.6140 H   0  0  0  0  0  0  0  0  0  0  0  0
    3.3325    3.4548   -2.1403 H   0  0  0  0  0  0  0  0  0  0  0  0
   -7.6446    2.1153    0.8668 H   0  0  0  0  0  0  0  0  0  0  0  0
   -6.1891    1.9274    1.8767 H   0  0  0  0  0  0  0  0  0  0  0  0
   -6.2139    3.1273    0.5323 H   0  0  0  0  0  0  0  0  0  0  0  0
    5.5207    3.6332   -0.9848 H   0  0  0  0  0  0  0  0  0  0  0  0
  1 21  1  0  0  0  0
  2  3  2  0  0  0  0
  2  4  2  0  0  0  0
  2  7  1  0  0  0  0
  2 23  1  0  0  0  0
  5 13  1  0  0  0  0
  5 17  1  0  0  0  0
  5 31  1  0  0  0  0
  6 15  1  0  0  0  0
  6 16  1  0  0  0  0
  6 32  1  0  0  0  0
  7 14  1  0  0  0  0
  7 33  1  0  0  0  0
  8 17  2  0  0  0  0
  8 21  1  0  0  0  0
  9 15  1  0  0  0  0
  9 24  2  0  0  0  0
 10 11  1  0  0  0  0
 10 12  1  0  0  0  0
 10 16  2  0  0  0  0
 11 15  2  0  0  0  0
 11 20  1  0  0  0  0
 12 18  2  0  0  0  0
 12 19  1  0  0  0  0
 13 14  1  0  0  0  0
 13 25  1  0  0  0  0
 13 26  1  0  0  0  0
 14 27  1  0  0  0  0
 14 28  1  0  0  0  0
 16 29  1  0  0  0  0
 17 18  1  0  0  0  0
 18 30  1  0  0  0  0
 19 21  2  0  0  0  0
 19 34  1  0  0  0  0
 20 22  2  0  0  0  0
 20 35  1  0  0  0  0
 22 24  1  0  0  0  0
 22 36  1  0  0  0  0
 23 37  1  0  0  0  0
 23 38  1  0  0  0  0
 23 39  1  0  0  0  0
 24 40  1  0  0  0  0
M  END
> <PUBCHEM_COMPOUND_CID>
49830299

> <PUBCHEM_CONFORMER_RMSD>
1

> <PUBCHEM_CONFORMER_DIVERSEORDER>
3
13
127
28
18
95
37
111
82
144
49
29
12
104
76
94
36
23
9
35
25
65
124
58
60
116
33
61
56
48
145
31
84
115
86
6
72
123
109
53
34
148
156
129
62
140
45
46
112
73
119
15
85
117
50
38
151
92
80
138
118
5
17
108
70
149
47
142
97
71
146
67
154
89
19
91
78
90
10
42
77
141
24
125
160
14
41
107
126
8
20
136
66
30
54
135
158
79
11
32
27
101
43
155
93
147
98
99
21
39
64
110
130
122
51
68
139
16
40
69
102
59
26
87
120
100
4
121
81
157
132
55
2
105
63
52
57
143
88
150
7
1
113
153
137
106
83
152
96
131
22
114
128
74
75
134
44
103
159
133

> <PUBCHEM_MMFF94_PARTIAL_CHARGES>
32
1 -0.18
10 -0.05
12 0.05
13 0.37
14 0.36
15 0.11
16 -0.3
17 0.41
18 -0.15
19 -0.15
2 1.33
20 -0.15
21 0.49
22 -0.15
23 0.11
24 0.16
29 0.15
3 -0.65
30 0.15
31 0.4
32 0.27
33 0.42
34 0.15
35 0.15
36 0.15
4 -0.65
40 0.15
5 -0.87
6 0.03
7 -0.91
8 -0.62
9 -0.57

> <PUBCHEM_EFFECTIVE_ROTOR_COUNT>
6

> <PUBCHEM_PHARMACOPHORE_FEATURES>
11
1 3 acceptor
1 4 acceptor
1 5 donor
1 6 cation
1 6 donor
1 7 donor
1 9 acceptor
3 5 8 17 cation
5 6 10 11 15 16 rings
6 8 12 17 18 19 21 rings
6 9 11 15 20 22 24 rings

> <PUBCHEM_HEAVY_ATOM_COUNT>
24

> <PUBCHEM_ATOM_DEF_STEREO_COUNT>
0

> <PUBCHEM_ATOM_UDEF_STEREO_COUNT>
0

> <PUBCHEM_BOND_DEF_STEREO_COUNT>
0

> <PUBCHEM_BOND_UDEF_STEREO_COUNT>
0

> <PUBCHEM_ISOTOPIC_ATOM_COUNT>
0

> <PUBCHEM_COMPONENT_COUNT>
1

> <PUBCHEM_CACTVS_TAUTO_COUNT>
13

> <PUBCHEM_CONFORMER_ID>
02F8599B00000003

> <PUBCHEM_MMFF94_ENERGY>
52.3671

> <PUBCHEM_FEATURE_SELFOVERLAP>
55.953

> <PUBCHEM_SHAPE_FINGERPRINT>
10090160 65 18339356371332902131
10411042 1 17618225005551821690
10763959 59 18115028485368515996
12107183 9 18336255783319258314
12403259 118 18188770677190971770
12422481 6 17530681013795631669
12516196 113 8502651502206827061
12633257 1 15141244420302401668
12760667 363 9511469909398064001
12788726 201 17978784937349657402
13540713 5 18117546552497439578
14251764 38 18043247951334853597
14294032 229 18127983103287509771
14767858 380 18201428208496359165
14774955 27 18408042909732697789
14790565 3 18340770463397600103
15342168 16 18409450292952763999
17810953 82 18335424556164431884
17980427 23 17895761806810639415
19319366 153 18201428148071911735
19427546 62 18410859815863933667
20157964 124 18334011658152967225
20715895 44 18335416812364738425
22149856 69 18129958801935375811
23559900 14 18265904549248934811
23569917 315 18343866597594819902
245318 6 17896622741089200981
2838139 119 18186794764870927381
328310 1195 18042390345297452341
33382 64 11959730490635412397
335352 9 18411140217530901958
3472631 163 18340774857244518508
474 4 18410013204241170379
6058803 2 17973432498250894618
6327066 14 18337673121825551932

> <PUBCHEM_SHAPE_MULTIPOLES>
462.98
14.78
4.21
1.21
23.48
4.56
-0.12
-15.5
0.03
-2.23
-2.04
-0.18
-0.28
-1.47

> <PUBCHEM_SHAPE_SELFOVERLAP>
976.87

> <PUBCHEM_SHAPE_VOLUME>
264.5

> <PUBCHEM_COORDINATE_TYPE>
2
5
10

$$$$
