24905170
  -OEChem-10052115153D

 33 35  0     0  0  0  0  0  0999 V2000
   -1.7106    0.9427    0.0003 N   0  0  0  0  0  0  0  0  0  0  0  0
   -0.4497    1.4137    0.0095 N   0  0  0  0  0  0  0  0  0  0  0  0
   -2.8984   -1.1671   -0.0122 N   0  0  0  0  0  0  0  0  0  0  0  0
   -1.3659   -3.0650   -0.0065 N   0  0  0  0  0  0  0  0  0  0  0  0
    1.0069   -2.8069    0.0105 N   0  0  0  0  0  0  0  0  0  0  0  0
    3.8019    0.5604   -1.2231 N   0  0  0  0  0  0  0  0  0  0  0  0
   -2.8169    1.8702   -0.0047 C   0  0  0  0  0  0  0  0  0  0  0  0
   -1.7840   -0.4186   -0.0033 C   0  0  0  0  0  0  0  0  0  0  0  0
   -0.4764   -0.8716    0.0041 C   0  0  0  0  0  0  0  0  0  0  0  0
    0.2971    0.3041    0.0117 C   0  0  0  0  0  0  0  0  0  0  0  0
   -2.8156    2.7415   -1.2633 C   0  0  0  0  0  0  0  0  0  0  0  0
   -2.8315    2.7359    1.2576 C   0  0  0  0  0  0  0  0  0  0  0  0
    1.7345    0.4082    0.0210 C   0  0  0  0  0  0  0  0  0  0  0  0
   -0.2844   -2.2492    0.0023 C   0  0  0  0  0  0  0  0  0  0  0  0
    2.4421    0.4572    1.2170 C   0  0  0  0  0  0  0  0  0  0  0  0
   -2.5882   -2.4816   -0.0132 C   0  0  0  0  0  0  0  0  0  0  0  0
    2.4549    0.4627   -1.1614 C   0  0  0  0  0  0  0  0  0  0  0  0
    3.8287    0.5578    1.1944 C   0  0  0  0  0  0  0  0  0  0  0  0
    4.4555    0.6055   -0.0405 C   0  0  0  0  0  0  0  0  0  0  0  0
   -3.7399    1.2780   -0.0118 H   0  0  0  0  0  0  0  0  0  0  0  0
   -1.9352    3.3923   -1.3049 H   0  0  0  0  0  0  0  0  0  0  0  0
   -3.7060    3.3783   -1.2934 H   0  0  0  0  0  0  0  0  0  0  0  0
   -2.8136    2.1212   -2.1665 H   0  0  0  0  0  0  0  0  0  0  0  0
   -1.9517    3.3867    1.3131 H   0  0  0  0  0  0  0  0  0  0  0  0
   -2.8408    2.1118    2.1580 H   0  0  0  0  0  0  0  0  0  0  0  0
   -3.7223    3.3727    1.2792 H   0  0  0  0  0  0  0  0  0  0  0  0
    1.9274    0.4175    2.1738 H   0  0  0  0  0  0  0  0  0  0  0  0
   -3.4318   -3.1634   -0.0201 H   0  0  0  0  0  0  0  0  0  0  0  0
    1.9624    0.4281   -2.1290 H   0  0  0  0  0  0  0  0  0  0  0  0
    1.8313   -2.2246    0.0171 H   0  0  0  0  0  0  0  0  0  0  0  0
    1.1016   -3.8136    0.0085 H   0  0  0  0  0  0  0  0  0  0  0  0
    4.4010    0.5972    2.1141 H   0  0  0  0  0  0  0  0  0  0  0  0
    5.5352    0.6838   -0.1126 H   0  0  0  0  0  0  0  0  0  0  0  0
  1  2  1  0  0  0  0
  1  7  1  0  0  0  0
  1  8  1  0  0  0  0
  2 10  2  0  0  0  0
  3  8  2  0  0  0  0
  3 16  1  0  0  0  0
  4 14  1  0  0  0  0
  4 16  2  0  0  0  0
  5 14  1  0  0  0  0
  5 30  1  0  0  0  0
  5 31  1  0  0  0  0
  6 17  1  0  0  0  0
  6 19  2  0  0  0  0
  7 11  1  0  0  0  0
  7 12  1  0  0  0  0
  7 20  1  0  0  0  0
  8  9  1  0  0  0  0
  9 10  1  0  0  0  0
  9 14  2  0  0  0  0
 10 13  1  0  0  0  0
 11 21  1  0  0  0  0
 11 22  1  0  0  0  0
 11 23  1  0  0  0  0
 12 24  1  0  0  0  0
 12 25  1  0  0  0  0
 12 26  1  0  0  0  0
 13 15  1  0  0  0  0
 13 17  2  0  0  0  0
 15 18  2  0  0  0  0
 15 27  1  0  0  0  0
 16 28  1  0  0  0  0
 17 29  1  0  0  0  0
 18 19  1  0  0  0  0
 18 32  1  0  0  0  0
 19 33  1  0  0  0  0
M  END
> <PUBCHEM_COMPOUND_CID>
24905170

> <PUBCHEM_CONFORMER_RMSD>
0.6

> <PUBCHEM_CONFORMER_DIVERSEORDER>
2
3
1
4

> <PUBCHEM_MMFF94_PARTIAL_CHARGES>
23
1 0.31
10 0.23
13 0.05
14 0.41
15 -0.15
16 0.47
17 0.16
18 -0.15
19 0.16
2 -0.71
27 0.15
28 0.15
29 0.15
3 -0.57
30 0.4
31 0.4
32 0.15
33 0.15
4 -0.62
5 -0.9
6 -0.62
7 0.26
8 0.11

> <PUBCHEM_EFFECTIVE_ROTOR_COUNT>
2

> <PUBCHEM_PHARMACOPHORE_FEATURES>
10
1 2 acceptor
1 5 cation
1 5 donor
1 6 acceptor
3 1 3 8 cation
3 3 4 16 cation
3 7 11 12 hydrophobe
5 1 2 8 9 10 rings
6 3 4 8 9 14 16 rings
6 6 13 15 17 18 19 rings

> <PUBCHEM_HEAVY_ATOM_COUNT>
19

> <PUBCHEM_ATOM_DEF_STEREO_COUNT>
0

> <PUBCHEM_ATOM_UDEF_STEREO_COUNT>
0

> <PUBCHEM_BOND_DEF_STEREO_COUNT>
0

> <PUBCHEM_BOND_UDEF_STEREO_COUNT>
0

> <PUBCHEM_ISOTOPIC_ATOM_COUNT>
0

> <PUBCHEM_COMPONENT_COUNT>
1

> <PUBCHEM_CACTVS_TAUTO_COUNT>
5

> <PUBCHEM_CONFORMER_ID>
017C05D200000002

> <PUBCHEM_MMFF94_ENERGY>
45.2742

> <PUBCHEM_FEATURE_SELFOVERLAP>
51.025

> <PUBCHEM_SHAPE_FINGERPRINT>
10319926 262 18198600282038822472
11582403 64 16911102848463286064
11725454 13 16913363474450459280
12173636 292 18409725170928721628
12236239 1 17676480705324762024
12500047 106 18411694366589911756
12553582 1 18048883192818049138
12788726 201 18193004930655136755
13140716 1 18050572034483634491
13380535 21 18267874895211819603
13878862 14 17112694788055182233
14178342 30 18409156719512090458
14614273 12 18334570222865658349
15042514 8 18265055923629803771
16752209 62 18336532915181867691
16945 1 18338799025921580691
1741750 31 18341612568618234976
18186145 218 18198911314157699340
19049666 15 17988651774439612978
20510252 161 18271245035637153448
21501502 16 18338794498962922643
21524375 3 18260828138132606801
22182313 1 18265346027474841303
22907989 373 18261948660714002309
23184049 29 18194679508560940488
2334 1 18338516331374553071
23402539 116 18270390724246317447
23419403 2 16176447996407328494
23526113 38 17632571643797280472
23557571 272 18200038472985974584
23558518 356 18261390014260282491
23559900 14 18201162058231823476
23598291 2 17676490575186151340
2748010 2 18265625273215793207
283562 15 18339639057269039107
3091708 16 9199156942852851643
350125 39 18266467503328057019
43471831 8 18335697252149089306
458136 41 18051709745503191545
559249 180 18335416817266315282
6049 1 17916588773048727536
633830 44 17844248428028290836
6992083 37 18040433295824399356
7364860 26 17837204874898702290
7615 1 17895471539925181740
77492 1 17676482891362999320
81228 2 18266181810587655017
84936 182 17695617464177176705
90525 40 18260550038994695142
9862522 239 17896308134602549109

> <PUBCHEM_SHAPE_MULTIPOLES>
361.13
6.61
3.35
1.08
5.51
1.57
0
-3.47
-0.03
-4.09
-0.01
0.42
-0.65
0.01

> <PUBCHEM_SHAPE_SELFOVERLAP>
792.541

> <PUBCHEM_SHAPE_VOLUME>
192.2

> <PUBCHEM_COORDINATE_TYPE>
2
5
10

$$$$
