45482700
  -OEChem-10062122033D

 40 43  0     1  0  0  0  0  0999 V2000
    5.6291   -1.5844   -0.1088 S   0  0  2  0  0  0  0  0  0  0  0  0
   -0.4670    3.8033    0.0680 O   0  0  0  0  0  0  0  0  0  0  0  0
   -2.8426   -1.9374   -0.0391 O   0  0  0  0  0  0  0  0  0  0  0  0
    5.8557   -2.0634    1.2983 O   0  0  0  0  0  0  0  0  0  0  0  0
   -0.6530    1.5524    0.0192 C   0  0  0  0  0  0  0  0  0  0  0  0
    0.7248    1.8956    0.0154 C   0  0  0  0  0  0  0  0  0  0  0  0
   -1.3433    2.7597    0.0516 C   0  0  0  0  0  0  0  0  0  0  0  0
   -2.7916    0.4308    0.0115 C   0  0  0  0  0  0  0  0  0  0  0  0
   -1.3919    0.3567   -0.0014 C   0  0  0  0  0  0  0  0  0  0  0  0
    1.8931    1.0670   -0.0133 C   0  0  0  0  0  0  0  0  0  0  0  0
    0.7822    3.2698    0.0458 C   0  0  0  0  0  0  0  0  0  0  0  0
   -2.7329    2.8653    0.0652 C   0  0  0  0  0  0  0  0  0  0  0  0
   -3.4476    1.6640    0.0442 C   0  0  0  0  0  0  0  0  0  0  0  0
   -3.5658   -0.7874   -0.0081 C   0  0  0  0  0  0  0  0  0  0  0  0
    2.8020    1.1800   -1.0653 C   0  0  0  0  0  0  0  0  0  0  0  0
    2.1216    0.1470    1.0100 C   0  0  0  0  0  0  0  0  0  0  0  0
    4.1676   -0.5471   -0.0711 C   0  0  0  0  0  0  0  0  0  0  0  0
    3.9392    0.3730   -1.0943 C   0  0  0  0  0  0  0  0  0  0  0  0
    3.2588   -0.6601    0.9810 C   0  0  0  0  0  0  0  0  0  0  0  0
   -4.9133   -1.0640   -0.0023 C   0  0  0  0  0  0  0  0  0  0  0  0
   -3.7381   -2.9595   -0.0532 C   0  0  0  0  0  0  0  0  0  0  0  0
   -5.0252   -2.4747   -0.0313 C   0  0  0  0  0  0  0  0  0  0  0  0
   -3.1756   -4.3168   -0.0891 C   0  0  0  0  0  0  0  0  0  0  0  0
    4.9138   -2.9698   -1.0330 C   0  0  0  0  0  0  0  0  0  0  0  0
   -0.8611   -0.5902   -0.0282 H   0  0  0  0  0  0  0  0  0  0  0  0
    1.5898    3.9885    0.0566 H   0  0  0  0  0  0  0  0  0  0  0  0
   -3.2342    3.8255    0.0907 H   0  0  0  0  0  0  0  0  0  0  0  0
   -4.5337    1.7254    0.0545 H   0  0  0  0  0  0  0  0  0  0  0  0
    2.6402    1.8874   -1.8754 H   0  0  0  0  0  0  0  0  0  0  0  0
    1.4258    0.0459    1.8396 H   0  0  0  0  0  0  0  0  0  0  0  0
    4.6376    0.4716   -1.9214 H   0  0  0  0  0  0  0  0  0  0  0  0
    3.4116   -1.3723    1.7874 H   0  0  0  0  0  0  0  0  0  0  0  0
   -5.7260   -0.3519    0.0200 H   0  0  0  0  0  0  0  0  0  0  0  0
   -5.9324   -3.0619   -0.0361 H   0  0  0  0  0  0  0  0  0  0  0  0
   -2.5657   -4.4564   -0.9870 H   0  0  0  0  0  0  0  0  0  0  0  0
   -2.5444   -4.4946    0.7870 H   0  0  0  0  0  0  0  0  0  0  0  0
   -3.9670   -5.0728   -0.0958 H   0  0  0  0  0  0  0  0  0  0  0  0
    4.0411   -3.3628   -0.5056 H   0  0  0  0  0  0  0  0  0  0  0  0
    4.6298   -2.6350   -2.0335 H   0  0  0  0  0  0  0  0  0  0  0  0
    5.6688   -3.7552   -1.1170 H   0  0  0  0  0  0  0  0  0  0  0  0
  1  4  2  0  0  0  0
  1 17  1  0  0  0  0
  1 24  1  0  0  0  0
  2  7  1  0  0  0  0
  2 11  1  0  0  0  0
  3 14  1  0  0  0  0
  3 21  1  0  0  0  0
  5  6  1  0  0  0  0
  5  7  2  0  0  0  0
  5  9  1  0  0  0  0
  6 10  1  0  0  0  0
  6 11  2  0  0  0  0
  7 12  1  0  0  0  0
  8  9  2  0  0  0  0
  8 13  1  0  0  0  0
  8 14  1  0  0  0  0
  9 25  1  0  0  0  0
 10 15  2  0  0  0  0
 10 16  1  0  0  0  0
 11 26  1  0  0  0  0
 12 13  2  0  0  0  0
 12 27  1  0  0  0  0
 13 28  1  0  0  0  0
 14 20  2  0  0  0  0
 15 18  1  0  0  0  0
 15 29  1  0  0  0  0
 16 19  2  0  0  0  0
 16 30  1  0  0  0  0
 17 18  2  0  0  0  0
 17 19  1  0  0  0  0
 18 31  1  0  0  0  0
 19 32  1  0  0  0  0
 20 22  1  0  0  0  0
 20 33  1  0  0  0  0
 21 22  2  0  0  0  0
 21 23  1  0  0  0  0
 22 34  1  0  0  0  0
 23 35  1  0  0  0  0
 23 36  1  0  0  0  0
 23 37  1  0  0  0  0
 24 38  1  0  0  0  0
 24 39  1  0  0  0  0
 24 40  1  0  0  0  0
M  END
> <PUBCHEM_COMPOUND_CID>
45482700

> <PUBCHEM_CONFORMER_RMSD>
0.6

> <PUBCHEM_CONFORMER_DIVERSEORDER>
1
34
39
30
10
25
21
9
6
12
18
26
23
29
8
15
19
16
13
31
7
22
11
4
14
28
36
17
38
35
33
3
20
37
40
27
2
24
32
5

> <PUBCHEM_MMFF94_PARTIAL_CHARGES>
33
1 0.24
10 0.05
11 -0.01
12 -0.15
13 -0.15
14 0.09
15 -0.15
16 -0.15
17 0.06
18 -0.15
19 -0.15
2 -0.28
20 -0.15
21 -0.04
22 -0.15
23 0.18
24 0.19
25 0.15
26 0.15
27 0.15
28 0.15
29 0.15
3 -0.28
30 0.15
31 0.15
32 0.15
33 0.15
34 0.15
4 -0.5
6 -0.05
7 0.14
8 0.05
9 -0.15

> <PUBCHEM_EFFECTIVE_ROTOR_COUNT>
3

> <PUBCHEM_PHARMACOPHORE_FEATURES>
7
1 2 acceptor
1 3 acceptor
1 4 acceptor
5 2 5 6 7 11 rings
5 3 14 20 21 22 rings
6 10 15 16 17 18 19 rings
6 5 7 8 9 12 13 rings

> <PUBCHEM_HEAVY_ATOM_COUNT>
24

> <PUBCHEM_ATOM_DEF_STEREO_COUNT>
1

> <PUBCHEM_ATOM_UDEF_STEREO_COUNT>
0

> <PUBCHEM_BOND_DEF_STEREO_COUNT>
0

> <PUBCHEM_BOND_UDEF_STEREO_COUNT>
0

> <PUBCHEM_ISOTOPIC_ATOM_COUNT>
0

> <PUBCHEM_COMPONENT_COUNT>
1

> <PUBCHEM_CACTVS_TAUTO_COUNT>
1

> <PUBCHEM_CONFORMER_ID>
02B602CC00000001

> <PUBCHEM_MMFF94_ENERGY>
48.7109

> <PUBCHEM_FEATURE_SELFOVERLAP>
35.626

> <PUBCHEM_SHAPE_FINGERPRINT>
10616163 171 18338798905636103138
10622 236 17751343011681249410
10693767 8 17912064351974405023
11315621 246 18264779749216989814
11796584 16 18195807367510732386
11963148 33 18121769793639428658
12107183 9 18270135612269226987
12553582 1 18337387253344768987
12760667 363 18342173375989507159
12969540 37 17976819010410942333
12990986 174 18411135827314715338
13140716 1 18343301461592325857
13533116 47 17837210747148131363
14117953 113 18341612590884550975
14790565 3 17979079284728553905
14844126 61 18336544911141343257
14863182 85 17328024781298834445
14866123 147 18340493275320425721
15042514 8 18339928112836776653
15250474 111 18261389984722824106
15320467 1 18411139138587821030
15352361 1 18411138069039821503
15927050 60 17765713525919509101
16120349 21 18341626876024385529
16760501 71 9257567944434047290
17492 89 17979073009696574547
17909252 39 18267592479927421864
20291156 8 18338516468855743533
20403669 9 18342463681208118351
20775438 99 17546146967422014315
221490 88 17903643221969322777
22950370 63 18338525226051291557
23379529 103 18341341002664086102
23559900 14 18267574883636723137
3004659 81 18113332033284314454
316301 35 18412258476084153090
325973 47 18193560205608696978
335352 9 18410572882331650853
3421961 26 18197216060268991017
3882209 13 17407076291539607142
397830 11 18200574944871783170
44062 13 18335138657397422997
4435113 14 17415018863191202846
463206 1 18334861657497599283
5104073 3 18202284710104888296
5486654 36 18336274500433247937
56633871 153 18341622572415206219
613672 6 18267561658983850339
70251023 43 18191593158300248161
7970288 3 18339642342703268839
88748 71 18191028009318588531

> <PUBCHEM_SHAPE_MULTIPOLES>
480.15
12.19
4.99
0.89
8
1.08
-0.03
13.61
0.1
-3.76
0.25
1.1
0.19
-0.3

> <PUBCHEM_SHAPE_SELFOVERLAP>
1059.187

> <PUBCHEM_SHAPE_VOLUME>
264.3

> <PUBCHEM_COORDINATE_TYPE>
2
5
10

$$$$
