49830800
  -OEChem-10052115183D

 43 47  0     0  0  0  0  0  0999 V2000
   -2.2589    2.0571   -1.9941 F   0  0  0  0  0  0  0  0  0  0  0  0
   -0.4008    5.3137    0.8877 F   0  0  0  0  0  0  0  0  0  0  0  0
   -4.3253   -2.4383   -0.7432 O   0  0  0  0  0  0  0  0  0  0  0  0
    3.5355   -0.4460   -0.4186 N   0  0  0  0  0  0  0  0  0  0  0  0
   -2.2188   -2.0344   -0.1611 N   0  0  0  0  0  0  0  0  0  0  0  0
   -3.4649   -0.1927   -0.3465 N   0  0  0  0  0  0  0  0  0  0  0  0
    4.5626   -0.9140    0.3096 N   0  0  0  0  0  0  0  0  0  0  0  0
    4.0534   -1.6300    1.3062 N   0  0  0  0  0  0  0  0  0  0  0  0
   -1.3660   -1.0276    0.1390 C   0  0  0  0  0  0  0  0  0  0  0  0
    2.3321   -0.8459    0.0864 C   0  0  0  0  0  0  0  0  0  0  0  0
    3.7824    0.3737   -1.5785 C   0  0  0  0  0  0  0  0  0  0  0  0
    0.0226   -1.2165    0.4874 C   0  0  0  0  0  0  0  0  0  0  0  0
    1.0130   -0.6249   -0.3044 C   0  0  0  0  0  0  0  0  0  0  0  0
   -2.1585    0.1084    0.0184 C   0  0  0  0  0  0  0  0  0  0  0  0
    2.6884   -1.6045    1.1929 C   0  0  0  0  0  0  0  0  0  0  0  0
    0.3506   -1.9859    1.6079 C   0  0  0  0  0  0  0  0  0  0  0  0
   -3.4316   -1.4917   -0.4371 C   0  0  0  0  0  0  0  0  0  0  0  0
    1.6860   -2.1921    1.9782 C   0  0  0  0  0  0  0  0  0  0  0  0
    4.4895    1.6789   -1.2054 C   0  0  0  0  0  0  0  0  0  0  0  0
    4.5705   -0.3867   -2.6479 C   0  0  0  0  0  0  0  0  0  0  0  0
   -1.7066    1.4504    0.2385 C   0  0  0  0  0  0  0  0  0  0  0  0
   -2.2981   -3.3959   -0.2858 C   0  0  0  0  0  0  0  0  0  0  0  0
   -3.5714   -3.6372   -0.6372 C   0  0  0  0  0  0  0  0  0  0  0  0
   -1.7736    2.3912   -0.7893 C   0  0  0  0  0  0  0  0  0  0  0  0
   -1.1986    1.8148    1.4856 C   0  0  0  0  0  0  0  0  0  0  0  0
   -1.3323    3.6962   -0.5701 C   0  0  0  0  0  0  0  0  0  0  0  0
   -0.7571    3.1198    1.7047 C   0  0  0  0  0  0  0  0  0  0  0  0
   -0.8240    4.0604    0.6768 C   0  0  0  0  0  0  0  0  0  0  0  0
    2.8105    0.6373   -2.0102 H   0  0  0  0  0  0  0  0  0  0  0  0
    0.7710   -0.0308   -1.1789 H   0  0  0  0  0  0  0  0  0  0  0  0
   -0.4288   -2.4361    2.2201 H   0  0  0  0  0  0  0  0  0  0  0  0
    1.9313   -2.7895    2.8501 H   0  0  0  0  0  0  0  0  0  0  0  0
    4.5954    2.3258   -2.0828 H   0  0  0  0  0  0  0  0  0  0  0  0
    3.9191    2.2283   -0.4482 H   0  0  0  0  0  0  0  0  0  0  0  0
    5.4907    1.4958   -0.7998 H   0  0  0  0  0  0  0  0  0  0  0  0
    4.0584   -1.3156   -2.9225 H   0  0  0  0  0  0  0  0  0  0  0  0
    4.6776    0.2198   -3.5535 H   0  0  0  0  0  0  0  0  0  0  0  0
    5.5750   -0.6511   -2.2994 H   0  0  0  0  0  0  0  0  0  0  0  0
   -1.4756   -4.0706   -0.1232 H   0  0  0  0  0  0  0  0  0  0  0  0
   -4.0989   -4.5482   -0.8451 H   0  0  0  0  0  0  0  0  0  0  0  0
   -1.1452    1.1007    2.3040 H   0  0  0  0  0  0  0  0  0  0  0  0
   -1.3843    4.4286   -1.3701 H   0  0  0  0  0  0  0  0  0  0  0  0
   -0.3630    3.4043    2.6758 H   0  0  0  0  0  0  0  0  0  0  0  0
  1 24  1  0  0  0  0
  2 28  1  0  0  0  0
  3 17  1  0  0  0  0
  3 23  1  0  0  0  0
  4  7  1  0  0  0  0
  4 10  1  0  0  0  0
  4 11  1  0  0  0  0
  5  9  1  0  0  0  0
  5 17  1  0  0  0  0
  5 22  1  0  0  0  0
  6 14  1  0  0  0  0
  6 17  2  0  0  0  0
  7  8  2  0  0  0  0
  8 15  1  0  0  0  0
  9 12  1  0  0  0  0
  9 14  2  0  0  0  0
 10 13  1  0  0  0  0
 10 15  2  0  0  0  0
 11 19  1  0  0  0  0
 11 20  1  0  0  0  0
 11 29  1  0  0  0  0
 12 13  2  0  0  0  0
 12 16  1  0  0  0  0
 13 30  1  0  0  0  0
 14 21  1  0  0  0  0
 15 18  1  0  0  0  0
 16 18  2  0  0  0  0
 16 31  1  0  0  0  0
 18 32  1  0  0  0  0
 19 33  1  0  0  0  0
 19 34  1  0  0  0  0
 19 35  1  0  0  0  0
 20 36  1  0  0  0  0
 20 37  1  0  0  0  0
 20 38  1  0  0  0  0
 21 24  2  0  0  0  0
 21 25  1  0  0  0  0
 22 23  2  0  0  0  0
 22 39  1  0  0  0  0
 23 40  1  0  0  0  0
 24 26  1  0  0  0  0
 25 27  2  0  0  0  0
 25 41  1  0  0  0  0
 26 28  2  0  0  0  0
 26 42  1  0  0  0  0
 27 28  1  0  0  0  0
 27 43  1  0  0  0  0
M  END
> <PUBCHEM_COMPOUND_CID>
49830800

> <PUBCHEM_CONFORMER_RMSD>
0.8

> <PUBCHEM_CONFORMER_DIVERSEORDER>
1
18
14
11
9
8
13
19
4
10
12
7
3
2
20
22
5
6
16
15
21
17

> <PUBCHEM_MMFF94_PARTIAL_CHARGES>
34
1 -0.19
10 -0.15
11 0.26
12 0.05
13 -0.15
14 0.17
15 0.23
16 -0.15
17 0.25
18 -0.15
2 -0.19
21 0.05
22 -0.18
23 -0.07
24 0.19
25 -0.15
26 -0.15
27 -0.15
28 0.19
3 -0.14
30 0.15
31 0.15
32 0.15
39 0.15
4 0.31
40 0.15
41 0.15
42 0.15
43 0.15
5 0.33
6 -0.57
7 -0.42
8 -0.23
9 -0.2

> <PUBCHEM_EFFECTIVE_ROTOR_COUNT>
3

> <PUBCHEM_PHARMACOPHORE_FEATURES>
7
3 11 19 20 hydrophobe
3 5 6 17 cation
5 3 5 17 22 23 rings
5 4 7 8 10 15 rings
5 5 6 9 14 17 rings
6 10 12 13 15 16 18 rings
6 21 24 25 26 27 28 rings

> <PUBCHEM_HEAVY_ATOM_COUNT>
28

> <PUBCHEM_ATOM_DEF_STEREO_COUNT>
0

> <PUBCHEM_ATOM_UDEF_STEREO_COUNT>
0

> <PUBCHEM_BOND_DEF_STEREO_COUNT>
0

> <PUBCHEM_BOND_UDEF_STEREO_COUNT>
0

> <PUBCHEM_ISOTOPIC_ATOM_COUNT>
0

> <PUBCHEM_COMPONENT_COUNT>
1

> <PUBCHEM_CACTVS_TAUTO_COUNT>
1

> <PUBCHEM_CONFORMER_ID>
02F85B9000000001

> <PUBCHEM_MMFF94_ENERGY>
84.4001

> <PUBCHEM_FEATURE_SELFOVERLAP>
36.005

> <PUBCHEM_SHAPE_FINGERPRINT>
10871710 139 18114480988549417212
11578080 2 17536551366379100367
11582403 64 15507141789716641901
11640471 11 17898858945997108616
12156800 1 15581120470870178708
12173636 292 17909545060858409201
12553582 1 18412261778956812123
12788726 201 18336551534018135243
13009979 54 18188754055852880474
133893 2 17835812167924772259
13402501 40 17836643398752982480
13965767 371 16606294886285575672
14347332 77 18340496573439259870
14790565 3 18196657289999782897
14910302 57 17845947233939070198
14955137 171 18052852348833455547
15420108 30 17470997095999336634
15475509 8 18059590087564097279
15961568 22 18197773513487511824
17818456 19 18049145688724597858
17974551 9 13631127471882054889
1813 80 17987239017878239575
19311894 1 18123490288813149892
19319366 153 17967806129336761091
20567600 347 16611092686936335031
20600515 1 18130785702718340555
20642791 105 17902484031744673097
20642791 239 18262802981591733249
20642791 35 18267864076648136897
20775438 99 17114322494865879863
21033650 10 18193019070684799830
2132832 1 17970041445060286458
22907989 373 18339636733538537117
235170 7 17775017790734409654
23557571 272 18131344198700946626
23559900 14 18200591385310915398
238918 7 15305590158498852464
24893989 43 16546570824026935629
350125 39 17549546206782599211
352729 6 17905590130792669243
3610482 184 17684700581503355764
4017518 198 16688514781311799236
469060 322 17170429387081342457
532947 4 17618785103382369849
5895379 119 18266744576527531894
7164475 11 18410009914755404270
9981440 41 17475212623500907481

> <PUBCHEM_SHAPE_MULTIPOLES>
530.91
7.81
5.52
1.81
7.41
6.09
-0.16
-4.86
-4.13
-5.05
1.17
1.64
0.09
-1.8

> <PUBCHEM_SHAPE_SELFOVERLAP>
1203.951

> <PUBCHEM_SHAPE_VOLUME>
281.5

> <PUBCHEM_COORDINATE_TYPE>
2
5
10

$$$$
