44410949
  -OEChem-10062121563D

 56 58  0     1  0  0  0  0  0999 V2000
   -6.4244    3.4668   -0.4289 Cl  0  0  0  0  0  0  0  0  0  0  0  0
   -3.7280    2.4160   -1.0255 F   0  0  0  0  0  0  0  0  0  0  0  0
    3.3773   -2.0348    0.5962 O   0  0  0  0  0  0  0  0  0  0  0  0
    6.3026    1.0088   -0.6693 O   0  0  0  0  0  0  0  0  0  0  0  0
    3.4734    0.8757    0.1662 N   0  0  1  0  0  0  0  0  0  0  0  0
    5.8586    3.2362   -0.3340 N   0  0  0  0  0  0  0  0  0  0  0  0
   -0.8783   -3.6757   -0.7653 N   0  0  0  0  0  0  0  0  0  0  0  0
   -2.6267    0.0271   -0.1644 N   0  0  0  0  0  0  0  0  0  0  0  0
   -2.8061   -2.2304   -0.8020 N   0  0  0  0  0  0  0  0  0  0  0  0
    3.0058    1.6213   -1.0014 C   0  0  0  0  0  0  0  0  0  0  0  0
    4.5188    1.6216    0.8650 C   0  0  1  0  0  0  0  0  0  0  0  0
    2.3582    0.5909    1.0701 C   0  0  0  0  0  0  0  0  0  0  0  0
    1.5098   -0.5376    0.5864 C   0  0  0  0  0  0  0  0  0  0  0  0
    1.9712    2.6628   -0.5846 C   0  0  0  0  0  0  0  0  0  0  0  0
    2.4245    0.6504   -2.0244 C   0  0  0  0  0  0  0  0  0  0  0  0
    5.0315    0.8219    2.0562 C   0  0  0  0  0  0  0  0  0  0  0  0
    5.6494    1.8903   -0.1159 C   0  0  0  0  0  0  0  0  0  0  0  0
    0.1557   -0.3245    0.3481 C   0  0  0  0  0  0  0  0  0  0  0  0
    2.0541   -1.7988    0.3707 C   0  0  0  0  0  0  0  0  0  0  0  0
   -0.6525   -1.3805   -0.1078 C   0  0  0  0  0  0  0  0  0  0  0  0
   -0.1144   -2.6586   -0.3294 C   0  0  0  0  0  0  0  0  0  0  0  0
    1.2438   -2.8438   -0.0827 C   0  0  0  0  0  0  0  0  0  0  0  0
   -2.0127   -1.2342   -0.3651 C   0  0  0  0  0  0  0  0  0  0  0  0
   -2.1824   -3.4064   -0.9778 C   0  0  0  0  0  0  0  0  0  0  0  0
    3.8503   -3.3573    0.3487 C   0  0  0  0  0  0  0  0  0  0  0  0
   -3.9309    0.3987    0.1983 C   0  0  0  0  0  0  0  0  0  0  0  0
   -4.4643    1.6081   -0.2472 C   0  0  0  0  0  0  0  0  0  0  0  0
   -4.6932   -0.4440    1.0073 C   0  0  0  0  0  0  0  0  0  0  0  0
   -5.7600    1.9748    0.1163 C   0  0  0  0  0  0  0  0  0  0  0  0
   -5.9888   -0.0771    1.3708 C   0  0  0  0  0  0  0  0  0  0  0  0
   -6.5223    1.1323    0.9254 C   0  0  0  0  0  0  0  0  0  0  0  0
    3.8116    2.1324   -1.5347 H   0  0  0  0  0  0  0  0  0  0  0  0
    4.1408    2.5757    1.2532 H   0  0  0  0  0  0  0  0  0  0  0  0
    1.7763    1.4550    1.4096 H   0  0  0  0  0  0  0  0  0  0  0  0
    2.7206    0.1918    2.0247 H   0  0  0  0  0  0  0  0  0  0  0  0
    0.9755    2.2677   -0.3746 H   0  0  0  0  0  0  0  0  0  0  0  0
    2.3000    3.2992    0.2433 H   0  0  0  0  0  0  0  0  0  0  0  0
    1.8205    3.3477   -1.4303 H   0  0  0  0  0  0  0  0  0  0  0  0
    1.3873    0.3679   -1.8473 H   0  0  0  0  0  0  0  0  0  0  0  0
    3.0378   -0.2516   -2.1290 H   0  0  0  0  0  0  0  0  0  0  0  0
    2.4233    1.1337   -3.0101 H   0  0  0  0  0  0  0  0  0  0  0  0
    5.1735   -0.2380    1.8156 H   0  0  0  0  0  0  0  0  0  0  0  0
    6.0133    1.1993    2.3684 H   0  0  0  0  0  0  0  0  0  0  0  0
    4.3832    0.9060    2.9340 H   0  0  0  0  0  0  0  0  0  0  0  0
   -0.2653    0.6566    0.5468 H   0  0  0  0  0  0  0  0  0  0  0  0
    1.6208   -3.8459   -0.2665 H   0  0  0  0  0  0  0  0  0  0  0  0
    5.3100    3.9597    0.1192 H   0  0  0  0  0  0  0  0  0  0  0  0
    6.5824    3.5512   -0.9716 H   0  0  0  0  0  0  0  0  0  0  0  0
   -2.0855    0.7964   -0.5502 H   0  0  0  0  0  0  0  0  0  0  0  0
   -2.7924   -4.2298   -1.3287 H   0  0  0  0  0  0  0  0  0  0  0  0
    4.9207   -3.3629    0.5802 H   0  0  0  0  0  0  0  0  0  0  0  0
    3.7546   -3.6299   -0.7079 H   0  0  0  0  0  0  0  0  0  0  0  0
    3.3792   -4.0872    1.0157 H   0  0  0  0  0  0  0  0  0  0  0  0
   -4.2960   -1.3844    1.3796 H   0  0  0  0  0  0  0  0  0  0  0  0
   -6.5813   -0.7315    2.0035 H   0  0  0  0  0  0  0  0  0  0  0  0
   -7.5331    1.4052    1.2177 H   0  0  0  0  0  0  0  0  0  0  0  0
  1 29  1  0  0  0  0
  2 27  1  0  0  0  0
  3 19  1  0  0  0  0
  3 25  1  0  0  0  0
  4 17  2  0  0  0  0
  5 10  1  0  0  0  0
  5 11  1  0  0  0  0
  5 12  1  0  0  0  0
  6 17  1  0  0  0  0
  6 47  1  0  0  0  0
  6 48  1  0  0  0  0
  7 21  1  0  0  0  0
  7 24  2  0  0  0  0
  8 23  1  0  0  0  0
  8 26  1  0  0  0  0
  8 49  1  0  0  0  0
  9 23  2  0  0  0  0
  9 24  1  0  0  0  0
 10 14  1  0  0  0  0
 10 15  1  0  0  0  0
 10 32  1  0  0  0  0
 11 16  1  0  0  0  0
 11 17  1  0  0  0  0
 11 33  1  0  0  0  0
 12 13  1  0  0  0  0
 12 34  1  0  0  0  0
 12 35  1  0  0  0  0
 13 18  2  0  0  0  0
 13 19  1  0  0  0  0
 14 36  1  0  0  0  0
 14 37  1  0  0  0  0
 14 38  1  0  0  0  0
 15 39  1  0  0  0  0
 15 40  1  0  0  0  0
 15 41  1  0  0  0  0
 16 42  1  0  0  0  0
 16 43  1  0  0  0  0
 16 44  1  0  0  0  0
 18 20  1  0  0  0  0
 18 45  1  0  0  0  0
 19 22  2  0  0  0  0
 20 21  2  0  0  0  0
 20 23  1  0  0  0  0
 21 22  1  0  0  0  0
 22 46  1  0  0  0  0
 24 50  1  0  0  0  0
 25 51  1  0  0  0  0
 25 52  1  0  0  0  0
 25 53  1  0  0  0  0
 26 27  2  0  0  0  0
 26 28  1  0  0  0  0
 27 29  1  0  0  0  0
 28 30  2  0  0  0  0
 28 54  1  0  0  0  0
 29 31  2  0  0  0  0
 30 31  1  0  0  0  0
 30 55  1  0  0  0  0
 31 56  1  0  0  0  0
M  END
> <PUBCHEM_COMPOUND_CID>
44410949

> <PUBCHEM_CONFORMER_RMSD>
1

> <PUBCHEM_CONFORMER_DIVERSEORDER>
16
144
175
210
17
203
213
97
12
186
154
75
88
147
185
217
132
134
110
26
136
89
106
14
198
224
161
131
222
73
67
9
10
105
174
130
187
214
28
91
200
8
189
173
71
49
195
183
80
169
38
102
229
48
47
160
157
117
65
221
41
100
223
228
83
13
3
148
120
155
24
191
180
140
133
170
139
121
114
190
142
150
113
63
166
101
56
122
99
60
171
50
59
42
232
19
199
62
125
179
77
7
64
220
119
93
115
53
108
109
22
4
92
204
90
205
227
25
72
178
82
193
225
219
116
230
34
66
123
172
197
118
181
159
58
212
211
233
35
162
231
167
2
146
202
177
39
149
96
55
36
20
143
45
79
61
209
21
156
128
11
52
151
46
226
184
188
201
112
94
103
27
98
194
137
164
234
215
6
163
76
127
44
84
95
141
85
206
152
138
182
57
15
68
216
145
126
207
176
196
165
74
111
192
104
168
78
107
208
23
43
218
129
70
124
158
33
54
29
69
37
18
51
87
135
1
31
81
32
86
30
5
40
153

> <PUBCHEM_MMFF94_PARTIAL_CHARGES>
36
1 -0.18
10 0.27
11 0.33
12 0.41
13 -0.14
17 0.57
18 -0.15
19 0.08
2 -0.19
21 0.31
22 -0.15
23 0.41
24 0.47
25 0.28
26 0.1
27 0.19
28 -0.15
29 0.18
3 -0.36
30 -0.15
31 -0.15
4 -0.57
45 0.15
46 0.15
47 0.37
48 0.37
49 0.4
5 -0.81
50 0.15
54 0.15
55 0.15
56 0.15
6 -0.8
7 -0.62
8 -0.6
9 -0.62

> <PUBCHEM_EFFECTIVE_ROTOR_COUNT>
8

> <PUBCHEM_PHARMACOPHORE_FEATURES>
11
1 3 acceptor
1 4 acceptor
1 5 cation
1 6 donor
1 8 donor
3 10 14 15 hydrophobe
3 7 9 24 cation
3 8 9 23 cation
6 13 18 19 20 21 22 rings
6 26 27 28 29 30 31 rings
6 7 9 20 21 23 24 rings

> <PUBCHEM_HEAVY_ATOM_COUNT>
31

> <PUBCHEM_ATOM_DEF_STEREO_COUNT>
1

> <PUBCHEM_ATOM_UDEF_STEREO_COUNT>
0

> <PUBCHEM_BOND_DEF_STEREO_COUNT>
0

> <PUBCHEM_BOND_UDEF_STEREO_COUNT>
0

> <PUBCHEM_ISOTOPIC_ATOM_COUNT>
0

> <PUBCHEM_COMPONENT_COUNT>
1

> <PUBCHEM_CACTVS_TAUTO_COUNT>
6

> <PUBCHEM_CONFORMER_ID>
02A5A84500000010

> <PUBCHEM_MMFF94_ENERGY>
120.1796

> <PUBCHEM_FEATURE_SELFOVERLAP>
55.992

> <PUBCHEM_SHAPE_FINGERPRINT>
10050765 1 18411419531164045262
10165383 225 18272096024015694577
10816530 90 18339648833226761990
12107183 9 18336815425978790298
12390115 104 18202288047684652563
12403259 118 18187082867240398129
12422481 6 17968083201602311884
12788726 201 17616545389527554222
13540713 5 18268973406166015534
14294032 229 18270121339734393955
14790565 3 18340772537608360856
14950920 106 17023465377768872601
14955137 171 18121504544226684126
21033648 144 18187358776140083797
21302155 148 18409168822798761921
21421861 104 18114729453209155850
21756936 100 18271804678792778311
23559900 14 18048318839317391091
244849 19 17677919892620121498
25147074 1 18341599460394527775
3388396 114 17116066453034676429
3411729 13 18335139778536926610
3459 39 18271509979284761457
350125 39 18266460914515662182
4144715 1 18114476556818069763
469060 322 17976554019962092195
5104073 3 18188501168731788761
513532 50 18130234770051551134
5252454 2 18341603845692514185
5265222 85 18120105124308196732
6086070 43 17275098474967336634
7808743 9 18339922726820738761

> <PUBCHEM_SHAPE_MULTIPOLES>
595.92
15.81
4.52
1.28
10
1.84
0.08
-15.83
3.22
-0.66
-1.29
-0.59
-0.23
-0.36

> <PUBCHEM_SHAPE_SELFOVERLAP>
1273.312

> <PUBCHEM_SHAPE_VOLUME>
333

> <PUBCHEM_COORDINATE_TYPE>
2
5
10

$$$$
