4130632
  -OEChem-10062121553D

 48 52  0     0  0  0  0  0  0999 V2000
   -8.5873   -0.8360   -0.7825 Br  0  0  0  0  0  0  0  0  0  0  0  0
    2.6137    2.4382   -0.0395 O   0  0  0  0  0  0  0  0  0  0  0  0
   -2.1005    0.9735    1.5711 O   0  0  0  0  0  0  0  0  0  0  0  0
    3.4266    0.3244    0.0505 N   0  0  0  0  0  0  0  0  0  0  0  0
   -3.5230    0.5129   -0.2530 N   0  0  0  0  0  0  0  0  0  0  0  0
   -3.2853    0.4877   -1.6042 N   0  0  0  0  0  0  0  0  0  0  0  0
    4.4628   -1.6511    0.1786 N   0  0  0  0  0  0  0  0  0  0  0  0
    1.8502   -4.2185   -0.2890 N   0  0  0  0  0  0  0  0  0  0  0  0
    1.0512    0.6103   -0.3305 C   0  0  0  0  0  0  0  0  0  0  0  0
    3.2986   -1.0559    0.0027 C   0  0  0  0  0  0  0  0  0  0  0  0
    0.9263   -0.8519   -0.3776 C   0  0  0  0  0  0  0  0  0  0  0  0
    4.7693    0.5990    0.2736 C   0  0  0  0  0  0  0  0  0  0  0  0
    2.3837    1.2413   -0.1005 C   0  0  0  0  0  0  0  0  0  0  0  0
   -1.3158    1.0794   -0.7123 C   0  0  0  0  0  0  0  0  0  0  0  0
    2.0161   -1.6364   -0.2153 C   0  0  0  0  0  0  0  0  0  0  0  0
    0.0376    1.4800   -0.4820 C   0  0  0  0  0  0  0  0  0  0  0  0
    5.3796   -0.6503    0.3465 C   0  0  0  0  0  0  0  0  0  0  0  0
   -1.9856    0.8506   -1.8536 C   0  0  0  0  0  0  0  0  0  0  0  0
   -2.3275    0.8628    0.3772 C   0  0  0  0  0  0  0  0  0  0  0  0
   -0.4602   -1.4145   -0.6121 C   0  0  0  0  0  0  0  0  0  0  0  0
    5.5006    1.7869    0.4167 C   0  0  0  0  0  0  0  0  0  0  0  0
   -4.7247    0.2418    0.3694 C   0  0  0  0  0  0  0  0  0  0  0  0
    6.7649   -0.7418    0.5679 C   0  0  0  0  0  0  0  0  0  0  0  0
   -1.5073    0.9675   -3.2585 C   0  0  0  0  0  0  0  0  0  0  0  0
    6.8785    1.6799    0.6370 C   0  0  0  0  0  0  0  0  0  0  0  0
    7.5026    0.4367    0.7116 C   0  0  0  0  0  0  0  0  0  0  0  0
    1.9245   -3.0612   -0.2561 C   0  0  0  0  0  0  0  0  0  0  0  0
   -5.8571   -0.1013   -0.3836 C   0  0  0  0  0  0  0  0  0  0  0  0
   -4.8316    0.3038    1.7665 C   0  0  0  0  0  0  0  0  0  0  0  0
   -7.0705   -0.3762    0.2469 C   0  0  0  0  0  0  0  0  0  0  0  0
   -6.0452    0.0292    2.3969 C   0  0  0  0  0  0  0  0  0  0  0  0
   -7.1648   -0.3109    1.6371 C   0  0  0  0  0  0  0  0  0  0  0  0
    0.1853    2.5541   -0.4075 H   0  0  0  0  0  0  0  0  0  0  0  0
   -4.0143    0.6413   -2.2876 H   0  0  0  0  0  0  0  0  0  0  0  0
   -0.8206   -1.2320   -1.6222 H   0  0  0  0  0  0  0  0  0  0  0  0
   -1.1499   -1.2064    0.2028 H   0  0  0  0  0  0  0  0  0  0  0  0
   -0.4381   -2.5120   -0.5894 H   0  0  0  0  0  0  0  0  0  0  0  0
    5.0344    2.7638    0.3618 H   0  0  0  0  0  0  0  0  0  0  0  0
    7.2569   -1.7075    0.6273 H   0  0  0  0  0  0  0  0  0  0  0  0
   -1.6123    0.0101   -3.7791 H   0  0  0  0  0  0  0  0  0  0  0  0
   -0.4546    1.2621   -3.3103 H   0  0  0  0  0  0  0  0  0  0  0  0
   -2.0919    1.7189   -3.7991 H   0  0  0  0  0  0  0  0  0  0  0  0
    7.4710    2.5842    0.7516 H   0  0  0  0  0  0  0  0  0  0  0  0
    8.5742    0.3812    0.8834 H   0  0  0  0  0  0  0  0  0  0  0  0
   -5.8062   -0.1629   -1.4679 H   0  0  0  0  0  0  0  0  0  0  0  0
   -4.0195    0.5598    2.4318 H   0  0  0  0  0  0  0  0  0  0  0  0
   -6.1202    0.0800    3.4794 H   0  0  0  0  0  0  0  0  0  0  0  0
   -8.1028   -0.5217    2.1440 H   0  0  0  0  0  0  0  0  0  0  0  0
  1 30  1  0  0  0  0
  2 13  2  0  0  0  0
  3 19  2  0  0  0  0
  4 10  1  0  0  0  0
  4 12  1  0  0  0  0
  4 13  1  0  0  0  0
  5  6  1  0  0  0  0
  5 19  1  0  0  0  0
  5 22  1  0  0  0  0
  6 18  1  0  0  0  0
  6 34  1  0  0  0  0
  7 10  2  0  0  0  0
  7 17  1  0  0  0  0
  8 27  3  0  0  0  0
  9 11  1  0  0  0  0
  9 13  1  0  0  0  0
  9 16  2  3  0  0  0
 10 15  1  0  0  0  0
 11 15  2  0  0  0  0
 11 20  1  0  0  0  0
 12 17  1  0  0  0  0
 12 21  2  0  0  0  0
 14 16  1  0  0  0  0
 14 18  2  0  0  0  0
 14 19  1  0  0  0  0
 15 27  1  0  0  0  0
 16 33  1  0  0  0  0
 17 23  2  0  0  0  0
 18 24  1  0  0  0  0
 20 35  1  0  0  0  0
 20 36  1  0  0  0  0
 20 37  1  0  0  0  0
 21 25  1  0  0  0  0
 21 38  1  0  0  0  0
 22 28  2  0  0  0  0
 22 29  1  0  0  0  0
 23 26  1  0  0  0  0
 23 39  1  0  0  0  0
 24 40  1  0  0  0  0
 24 41  1  0  0  0  0
 24 42  1  0  0  0  0
 25 26  2  0  0  0  0
 25 43  1  0  0  0  0
 26 44  1  0  0  0  0
 28 30  1  0  0  0  0
 28 45  1  0  0  0  0
 29 31  2  0  0  0  0
 29 46  1  0  0  0  0
 30 32  2  0  0  0  0
 31 32  1  0  0  0  0
 31 47  1  0  0  0  0
 32 48  1  0  0  0  0
M  END
> <PUBCHEM_COMPOUND_CID>
4130632

> <PUBCHEM_CONFORMER_RMSD>
0.8

> <PUBCHEM_CONFORMER_DIVERSEORDER>
1
4
5
7
2
3
8
6

> <PUBCHEM_MMFF94_PARTIAL_CHARGES>
42
1 -0.11
10 0.14
11 -0.14
12 -0.15
13 0.56
14 0.01
15 0.11
16 -0.15
17 0.23
18 -0.04
19 0.62
2 -0.57
20 0.14
21 -0.15
22 0.12
23 -0.15
24 0.14
25 -0.15
26 -0.15
27 0.49
28 -0.15
29 -0.15
3 -0.57
30 0.11
31 -0.15
32 -0.15
33 0.15
34 0.4
38 0.15
39 0.15
4 0.29
43 0.15
44 0.15
45 0.15
46 0.15
47 0.15
48 0.15
5 -0.16
6 -0.52
7 -0.57
8 -0.56
9 0.01

> <PUBCHEM_EFFECTIVE_ROTOR_COUNT>
2

> <PUBCHEM_PHARMACOPHORE_FEATURES>
10
1 1 hydrophobe
1 2 acceptor
1 3 acceptor
1 6 donor
1 8 acceptor
5 4 7 10 12 17 rings
5 5 6 14 18 19 rings
6 12 17 21 23 25 26 rings
6 22 28 29 30 31 32 rings
6 4 9 10 11 13 15 rings

> <PUBCHEM_HEAVY_ATOM_COUNT>
32

> <PUBCHEM_ATOM_DEF_STEREO_COUNT>
0

> <PUBCHEM_ATOM_UDEF_STEREO_COUNT>
0

> <PUBCHEM_BOND_DEF_STEREO_COUNT>
0

> <PUBCHEM_BOND_UDEF_STEREO_COUNT>
1

> <PUBCHEM_ISOTOPIC_ATOM_COUNT>
0

> <PUBCHEM_COMPONENT_COUNT>
1

> <PUBCHEM_CACTVS_TAUTO_COUNT>
6

> <PUBCHEM_CONFORMER_ID>
003F074800000001

> <PUBCHEM_MMFF94_ENERGY>
114.8635

> <PUBCHEM_FEATURE_SELFOVERLAP>
50.961

> <PUBCHEM_SHAPE_FINGERPRINT>
10 15 17967811682934734856
10162869 55 18340760542397589191
11421498 54 17703512082597812442
11719270 70 18409166614790030410
12035758 1 18334004021959766408
12202916 173 17749106703724670051
12236239 1 17561084696019978249
12596602 18 17632302242158346211
12741549 16 18040990739546208901
12857493 111 17385441029636002653
13383668 1 17458892782716214611
13402501 40 18041001734529630187
13540713 4 17972030349334764806
13782708 43 17677613064478010842
13811026 1 18113614564754226283
13914758 101 12324233949867238887
14028597 1 17775291530000149826
14251764 18 17846499253268904657
14294032 229 15841547449804899085
14341114 328 17775006778285190303
14394314 77 17988652857167602737
14849402 71 17988079014718409976
14856354 85 16630522973518534069
15188451 53 15213016051143510400
15328829 1 17632570574630219637
15510800 12 17604165804439869251
15728490 51 18131348661604886823
19303781 99 16879926390206947195
19315958 150 18340212899892610227
19319366 153 18131066022154000910
19377110 9 18060139804126758707
20105231 36 18341054022220063390
21033648 29 18115845487502850836
21267235 1 18411137997011502812
21521721 280 18343300401267432848
21623969 137 18335422352634777146
21781051 124 18114477699575249730
22149856 69 18263940868562427713
22224240 67 18413387657008581546
22956985 138 17535459332770357074
23559900 14 15575008328802234149
23576562 1 9438815297578086338
3004659 81 13984664780443555941
3178227 256 18409731776936393960
335352 9 18412829089092842670
350125 39 18338513157535899446
3633792 109 18410851033251230253
3663271 9 17846505799110372083
4093350 32 16917074326505530406
5104073 3 18189334559036492184
5758199 1 18202565098797120850
59755656 520 17988920097931240014
6126387 218 18408039594951576417
6703917 75 14404911327451280045

> <PUBCHEM_SHAPE_MULTIPOLES>
627.84
21.45
2.35
1.71
12.94
2.32
-0.54
-0.02
8.21
-3.51
-0.38
3.25
-0.56
0.48

> <PUBCHEM_SHAPE_SELFOVERLAP>
1401.753

> <PUBCHEM_SHAPE_VOLUME>
341.5

> <PUBCHEM_COORDINATE_TYPE>
2
5
10

$$$$
