324081
  -OEChem-10062121573D

 28 30  0     0  0  0  0  0  0999 V2000
    0.7586    0.5604   -0.4520 N   0  0  0  0  0  0  0  0  0  0  0  0
   -0.1401   -1.6143   -0.4638 N   0  0  0  0  0  0  0  0  0  0  0  0
   -2.4967   -1.9727   -0.1104 N   0  0  0  0  0  0  0  0  0  0  0  0
   -1.6206    0.2597   -0.0912 C   0  0  0  0  0  0  0  0  0  0  0  0
   -0.3662   -0.2936   -0.3327 C   0  0  0  0  0  0  0  0  0  0  0  0
   -2.6873   -0.6477    0.0153 C   0  0  0  0  0  0  0  0  0  0  0  0
    2.1194    0.3806   -0.1585 C   0  0  0  0  0  0  0  0  0  0  0  0
   -1.8317    1.6430    0.0420 C   0  0  0  0  0  0  0  0  0  0  0  0
   -3.9580   -0.1314    0.2569 C   0  0  0  0  0  0  0  0  0  0  0  0
   -3.1120    2.1315    0.2832 C   0  0  0  0  0  0  0  0  0  0  0  0
   -4.1761    1.2430    0.3907 C   0  0  0  0  0  0  0  0  0  0  0  0
    3.0944    1.0634   -0.8923 C   0  0  0  0  0  0  0  0  0  0  0  0
    2.5102   -0.4830    0.8696 C   0  0  0  0  0  0  0  0  0  0  0  0
   -1.2336   -2.3839   -0.3430 C   0  0  0  0  0  0  0  0  0  0  0  0
    4.4466    0.8845   -0.6008 C   0  0  0  0  0  0  0  0  0  0  0  0
    3.8624   -0.6618    1.1612 C   0  0  0  0  0  0  0  0  0  0  0  0
    4.8307    0.0222    0.4260 C   0  0  0  0  0  0  0  0  0  0  0  0
    0.5786    1.3699   -1.0397 H   0  0  0  0  0  0  0  0  0  0  0  0
   -1.0212    2.3629   -0.0284 H   0  0  0  0  0  0  0  0  0  0  0  0
   -4.8079   -0.8055    0.3454 H   0  0  0  0  0  0  0  0  0  0  0  0
   -3.2790    3.1991    0.3887 H   0  0  0  0  0  0  0  0  0  0  0  0
   -5.1787    1.6159    0.5793 H   0  0  0  0  0  0  0  0  0  0  0  0
    2.8102    1.7384   -1.6959 H   0  0  0  0  0  0  0  0  0  0  0  0
    1.7754   -1.0171    1.4663 H   0  0  0  0  0  0  0  0  0  0  0  0
   -1.0866   -3.4525   -0.4428 H   0  0  0  0  0  0  0  0  0  0  0  0
    5.2007    1.4169   -1.1732 H   0  0  0  0  0  0  0  0  0  0  0  0
    4.1616   -1.3309    1.9626 H   0  0  0  0  0  0  0  0  0  0  0  0
    5.8836   -0.1164    0.6535 H   0  0  0  0  0  0  0  0  0  0  0  0
  1  5  1  0  0  0  0
  1  7  1  0  0  0  0
  1 18  1  0  0  0  0
  2  5  2  0  0  0  0
  2 14  1  0  0  0  0
  3  6  1  0  0  0  0
  3 14  2  0  0  0  0
  4  5  1  0  0  0  0
  4  6  1  0  0  0  0
  4  8  2  0  0  0  0
  6  9  2  0  0  0  0
  7 12  2  0  0  0  0
  7 13  1  0  0  0  0
  8 10  1  0  0  0  0
  8 19  1  0  0  0  0
  9 11  1  0  0  0  0
  9 20  1  0  0  0  0
 10 11  2  0  0  0  0
 10 21  1  0  0  0  0
 11 22  1  0  0  0  0
 12 15  1  0  0  0  0
 12 23  1  0  0  0  0
 13 16  2  0  0  0  0
 13 24  1  0  0  0  0
 14 25  1  0  0  0  0
 15 17  2  0  0  0  0
 15 26  1  0  0  0  0
 16 17  1  0  0  0  0
 16 27  1  0  0  0  0
 17 28  1  0  0  0  0
M  END
> <PUBCHEM_COMPOUND_CID>
324081

> <PUBCHEM_CONFORMER_RMSD>
0.6

> <PUBCHEM_CONFORMER_DIVERSEORDER>
1
5
8
7
2
6
4
3

> <PUBCHEM_MMFF94_PARTIAL_CHARGES>
27
1 -0.6
10 -0.15
11 -0.15
12 -0.15
13 -0.15
14 0.47
15 -0.15
16 -0.15
17 -0.15
18 0.4
19 0.15
2 -0.62
20 0.15
21 0.15
22 0.15
23 0.15
24 0.15
25 0.15
26 0.15
27 0.15
28 0.15
3 -0.62
5 0.41
6 0.31
7 0.1
8 -0.15
9 -0.15

> <PUBCHEM_EFFECTIVE_ROTOR_COUNT>
2

> <PUBCHEM_PHARMACOPHORE_FEATURES>
6
1 1 donor
3 1 2 5 cation
3 2 3 14 cation
6 2 3 4 5 6 14 rings
6 4 6 8 9 10 11 rings
6 7 12 13 15 16 17 rings

> <PUBCHEM_HEAVY_ATOM_COUNT>
17

> <PUBCHEM_ATOM_DEF_STEREO_COUNT>
0

> <PUBCHEM_ATOM_UDEF_STEREO_COUNT>
0

> <PUBCHEM_BOND_DEF_STEREO_COUNT>
0

> <PUBCHEM_BOND_UDEF_STEREO_COUNT>
0

> <PUBCHEM_ISOTOPIC_ATOM_COUNT>
0

> <PUBCHEM_COMPONENT_COUNT>
1

> <PUBCHEM_CACTVS_TAUTO_COUNT>
3

> <PUBCHEM_CONFORMER_ID>
0004F1F100000001

> <PUBCHEM_MMFF94_ENERGY>
65.3393

> <PUBCHEM_FEATURE_SELFOVERLAP>
30.619

> <PUBCHEM_SHAPE_FINGERPRINT>
10616163 171 18337675316622509110
11132069 177 18341615893186562077
12107183 9 17684923609948163736
12173636 292 18412538833979028628
12236239 1 18113618993277069004
12251169 10 18334294253673030484
12390115 104 17986972773092840225
12403814 3 17967248685388559293
12500047 106 18273209803087113926
12670546 56 18336538400066042804
13140716 1 18196941182941958121
13167823 11 18259985981129531154
13380535 76 18341332197980888807
13862211 1 18268991050645541351
13897977 58 18408327708666007468
14420673 8 18120936110317483218
15042514 8 18267590276836720959
15256400 18 18196091045388953922
15375358 24 17418092126801704524
15375462 189 17895185598208610192
15536298 74 18199752453321805358
15669948 3 18340485676579195759
16752209 62 18342163509932981711
17804303 29 18343021137550097753
1813 80 17023189254611861670
18186145 218 15697997431494189132
19050596 39 18186799205930077152
19422 9 18186800305404833554
20279233 1 16773799207956603622
20510252 161 18201163174116582249
20645477 56 18343024393156478472
21065198 48 18260264161866338746
21267235 1 18335148608646814986
212916 134 18201143365426505530
21524375 3 18341891849267440959
23402539 116 18343012320673128023
23557571 272 17774452680011583095
23559900 14 18059303080542395966
2748010 2 18123204402804597759
4214541 1 18410575089369691268
474 4 17315082292816273748
474229 33 18412265039137189415
495365 180 17059771114289943670
5104073 3 18334573581667292872
5706482 22 18341328916657425551
573450 72 18409158926872196338
58807428 26 18265060145819519643
7097593 13 18188196599251937298
7364860 26 17840871772380123679
77492 1 18040996271631656356
9709674 26 18342745130315071318
9862522 239 18190449476991631109

> <PUBCHEM_SHAPE_MULTIPOLES>
334.91
9.28
2.01
0.87
5.67
0.52
-0.08
-2.55
-1.39
-1.89
0.17
0.65
0.01
-0.92

> <PUBCHEM_SHAPE_SELFOVERLAP>
742.036

> <PUBCHEM_SHAPE_VOLUME>
174.5

> <PUBCHEM_COORDINATE_TYPE>
2
5
10

$$$$
