15504063
  -OEChem-10052115193D

 26 28  0     0  0  0  0  0  0999 V2000
   -5.2015   -0.7858    0.0015 O   0  0  0  0  0  0  0  0  0  0  0  0
   -3.4774    0.8122    0.0005 N   0  0  0  0  0  0  0  0  0  0  0  0
   -1.2691    1.8468    0.0008 N   0  0  0  0  0  0  0  0  0  0  0  0
   -1.6674   -0.5433   -0.0013 C   0  0  0  0  0  0  0  0  0  0  0  0
   -2.8462   -1.4581   -0.0013 C   0  0  0  0  0  0  0  0  0  0  0  0
   -2.0832    0.7802   -0.0001 C   0  0  0  0  0  0  0  0  0  0  0  0
   -0.3178   -0.8261   -0.0013 C   0  0  0  0  0  0  0  0  0  0  0  0
    0.5694    0.2483   -0.0004 C   0  0  0  0  0  0  0  0  0  0  0  0
   -4.0201   -0.4766   -0.0002 C   0  0  0  0  0  0  0  0  0  0  0  0
    1.9971    0.0254   -0.0003 C   0  0  0  0  0  0  0  0  0  0  0  0
    0.0522    1.5450    0.0006 C   0  0  0  0  0  0  0  0  0  0  0  0
    2.6877   -0.0838    1.2079 C   0  0  0  0  0  0  0  0  0  0  0  0
    2.6886   -0.0817   -1.2081 C   0  0  0  0  0  0  0  0  0  0  0  0
    4.0658   -0.2992    1.2084 C   0  0  0  0  0  0  0  0  0  0  0  0
    4.0668   -0.2973   -1.2075 C   0  0  0  0  0  0  0  0  0  0  0  0
    4.7553   -0.4060    0.0007 C   0  0  0  0  0  0  0  0  0  0  0  0
   -2.8804   -2.0693   -0.9067 H   0  0  0  0  0  0  0  0  0  0  0  0
   -2.8796   -2.0701    0.9035 H   0  0  0  0  0  0  0  0  0  0  0  0
    0.0307   -1.8539   -0.0019 H   0  0  0  0  0  0  0  0  0  0  0  0
   -4.0124    1.6721    0.0018 H   0  0  0  0  0  0  0  0  0  0  0  0
    0.7069    2.4127    0.0014 H   0  0  0  0  0  0  0  0  0  0  0  0
    2.1658   -0.0031    2.1587 H   0  0  0  0  0  0  0  0  0  0  0  0
    2.1675    0.0005   -2.1592 H   0  0  0  0  0  0  0  0  0  0  0  0
    4.6020   -0.3839    2.1491 H   0  0  0  0  0  0  0  0  0  0  0  0
    4.6039   -0.3806   -2.1478 H   0  0  0  0  0  0  0  0  0  0  0  0
    5.8283   -0.5738    0.0010 H   0  0  0  0  0  0  0  0  0  0  0  0
  1  9  2  0  0  0  0
  2  6  1  0  0  0  0
  2  9  1  0  0  0  0
  2 20  1  0  0  0  0
  3  6  1  0  0  0  0
  3 11  2  0  0  0  0
  4  5  1  0  0  0  0
  4  6  2  0  0  0  0
  4  7  1  0  0  0  0
  5  9  1  0  0  0  0
  5 17  1  0  0  0  0
  5 18  1  0  0  0  0
  7  8  2  0  0  0  0
  7 19  1  0  0  0  0
  8 10  1  0  0  0  0
  8 11  1  0  0  0  0
 10 12  2  0  0  0  0
 10 13  1  0  0  0  0
 11 21  1  0  0  0  0
 12 14  1  0  0  0  0
 12 22  1  0  0  0  0
 13 15  2  0  0  0  0
 13 23  1  0  0  0  0
 14 16  2  0  0  0  0
 14 24  1  0  0  0  0
 15 16  1  0  0  0  0
 15 25  1  0  0  0  0
 16 26  1  0  0  0  0
M  END
> <PUBCHEM_COMPOUND_CID>
15504063

> <PUBCHEM_CONFORMER_RMSD>
0.6

> <PUBCHEM_CONFORMER_DIVERSEORDER>
1
2

> <PUBCHEM_MMFF94_PARTIAL_CHARGES>
22
1 -0.57
11 0.16
12 -0.15
13 -0.15
14 -0.15
15 -0.15
16 -0.15
19 0.15
2 -0.55
20 0.37
21 0.15
22 0.15
23 0.15
24 0.15
25 0.15
26 0.15
3 -0.62
4 -0.14
5 0.2
6 0.43
7 -0.15
9 0.57

> <PUBCHEM_EFFECTIVE_ROTOR_COUNT>
1.4

> <PUBCHEM_PHARMACOPHORE_FEATURES>
6
1 1 acceptor
1 2 donor
1 3 acceptor
5 2 4 5 6 9 rings
6 10 12 13 14 15 16 rings
6 3 4 6 7 8 11 rings

> <PUBCHEM_HEAVY_ATOM_COUNT>
16

> <PUBCHEM_ATOM_DEF_STEREO_COUNT>
0

> <PUBCHEM_ATOM_UDEF_STEREO_COUNT>
0

> <PUBCHEM_BOND_DEF_STEREO_COUNT>
0

> <PUBCHEM_BOND_UDEF_STEREO_COUNT>
0

> <PUBCHEM_ISOTOPIC_ATOM_COUNT>
0

> <PUBCHEM_COMPONENT_COUNT>
1

> <PUBCHEM_CACTVS_TAUTO_COUNT>
7

> <PUBCHEM_CONFORMER_ID>
00EC92BF00000001

> <PUBCHEM_MMFF94_ENERGY>
49.8991

> <PUBCHEM_FEATURE_SELFOVERLAP>
30.549

> <PUBCHEM_SHAPE_FINGERPRINT>
11046707 91 18408885148555871283
11132069 177 18343582936578702303
11543360 7 15719677657658122035
11578080 2 17460565174462214972
12032990 46 18342742931238509181
12236239 1 17749107773292338578
12251169 10 13470690343082054964
12403814 3 13326856617467370875
13103583 49 17609538048196368707
13288520 33 18410857646329936006
13581323 91 18409443666219107138
13675066 3 17561363989242784993
13760787 19 17240203252787654043
13760787 5 17530689800971540893
13862211 1 18410569617797984767
14115302 16 17749113330505525794
14252887 29 17632583742688523990
14289901 80 16271921623162186402
14386348 63 17917714599809023294
14993402 34 17530970189247581838
15219456 202 17489867107701882620
15342168 16 15911899817013333592
15536298 74 18340768259826553024
15848700 24 18343579668040128893
16752209 62 18261101950892643811
16945 1 18410855430279850433
17804303 29 18341612637743854593
17834072 33 16515688878863638555
18175812 5 17632294596699632796
18186145 218 17603581971431755244
18222031 100 18342172306342027909
19026448 4 17060621070747374001
19026448 5 17022620849379807669
19141452 34 17632295718087400751
19784866 240 17023176073156737770
200 152 16732698342144582668
20028762 73 17986676085548364759
20279233 1 17846781806071416630
20510252 161 18130224861108675536
21267235 1 18408612473967481467
22646028 1 17894909616215379050
22854114 59 16845572019655723354
2297311 6 18272099279294995036
23048698 100 16950003625682858918
23366157 5 17899130799962941180
23402539 116 18343293769700706207
23402655 69 15140678077198034214
23536379 177 16081081568126274135
23557571 272 18201728314566634444
23559900 14 18271248210324717462
26918003 58 16415480458439075854
4047638 21 11530482238089474990
4340502 62 14836412458290631007
43471831 8 18263359205093976602
449060 50 16988837319766564328
465052 167 18261403299031725387
474 4 17096944670696910612
5104073 3 18268154326374844465
5374978 207 18410288138399368728
573450 72 18187356584899504512
69090 78 17060051566542153079
7364860 26 18199188584398642680
77492 1 17676210139443793796
8863177 126 17607822891719841331

> <PUBCHEM_SHAPE_MULTIPOLES>
313.44
9.48
1.27
0.98
0.95
0.36
0
-2.61
0
1.01
0
-1.29
-0.07
0

> <PUBCHEM_SHAPE_SELFOVERLAP>
699.643

> <PUBCHEM_SHAPE_VOLUME>
166.8

> <PUBCHEM_COORDINATE_TYPE>
2
5
10

$$$$
