24969301
  -OEChem-10062122033D

 50 53  0     0  0  0  0  0  0999 V2000
    6.2421   -3.6750   -1.2312 F   0  0  0  0  0  0  0  0  0  0  0  0
    4.0889   -3.4225   -1.1653 F   0  0  0  0  0  0  0  0  0  0  0  0
    5.2758   -2.2518   -2.5615 F   0  0  0  0  0  0  0  0  0  0  0  0
   -5.9202   -2.4821    1.0475 O   0  0  0  0  0  0  0  0  0  0  0  0
    4.0247    2.5882    1.2472 O   0  0  0  0  0  0  0  0  0  0  0  0
   -6.7010   -1.3711   -0.8111 O   0  0  0  0  0  0  0  0  0  0  0  0
   -3.0351    0.7758   -0.1479 N   0  0  0  0  0  0  0  0  0  0  0  0
   -2.6410    0.0671    0.9476 N   0  0  0  0  0  0  0  0  0  0  0  0
   -4.8494    0.8457   -1.7351 N   0  0  0  0  0  0  0  0  0  0  0  0
    2.3544    1.1864    0.3682 N   0  0  0  0  0  0  0  0  0  0  0  0
   -2.3671    1.8423   -0.7741 C   0  0  0  0  0  0  0  0  0  0  0  0
   -1.0868    2.3632   -0.2621 C   0  0  0  0  0  0  0  0  0  0  0  0
   -4.2557    0.3001   -0.6370 C   0  0  0  0  0  0  0  0  0  0  0  0
   -4.6338   -0.7325    0.1905 C   0  0  0  0  0  0  0  0  0  0  0  0
    0.0279    1.5279   -0.1897 C   0  0  0  0  0  0  0  0  0  0  0  0
    1.2390    2.0215    0.2953 C   0  0  0  0  0  0  0  0  0  0  0  0
   -2.9181    2.4092   -1.8605 C   0  0  0  0  0  0  0  0  0  0  0  0
   -0.9906    3.6920    0.1509 C   0  0  0  0  0  0  0  0  0  0  0  0
   -3.6085   -0.8275    1.1387 C   0  0  0  0  0  0  0  0  0  0  0  0
    1.3351    3.3504    0.7082 C   0  0  0  0  0  0  0  0  0  0  0  0
   -4.2126    1.8272   -2.2943 C   0  0  0  0  0  0  0  0  0  0  0  0
    0.2204    4.1857    0.6360 C   0  0  0  0  0  0  0  0  0  0  0  0
    4.6323    0.3981    0.7520 C   0  0  0  0  0  0  0  0  0  0  0  0
   -5.8255   -1.5175    0.0701 C   0  0  0  0  0  0  0  0  0  0  0  0
    3.6409    1.5033    0.8238 C   0  0  0  0  0  0  0  0  0  0  0  0
    4.4852   -0.6114   -0.1992 C   0  0  0  0  0  0  0  0  0  0  0  0
    5.4164   -1.6478   -0.2661 C   0  0  0  0  0  0  0  0  0  0  0  0
    5.7105    0.3711    1.6366 C   0  0  0  0  0  0  0  0  0  0  0  0
    6.4946   -1.6747    0.6185 C   0  0  0  0  0  0  0  0  0  0  0  0
    6.6417   -0.6653    1.5698 C   0  0  0  0  0  0  0  0  0  0  0  0
    5.2591   -2.7280   -1.2825 C   0  0  0  0  0  0  0  0  0  0  0  0
   -7.0702   -3.3347    1.0329 C   0  0  0  0  0  0  0  0  0  0  0  0
   -6.9732   -4.3134    2.1836 C   0  0  0  0  0  0  0  0  0  0  0  0
   -0.0403    0.4924   -0.5179 H   0  0  0  0  0  0  0  0  0  0  0  0
   -2.4948    3.2319   -2.4214 H   0  0  0  0  0  0  0  0  0  0  0  0
   -1.8493    4.3578    0.1086 H   0  0  0  0  0  0  0  0  0  0  0  0
   -3.5148   -1.5129    1.9691 H   0  0  0  0  0  0  0  0  0  0  0  0
    2.2351    3.8067    1.0951 H   0  0  0  0  0  0  0  0  0  0  0  0
   -4.6549    2.3002   -3.1865 H   0  0  0  0  0  0  0  0  0  0  0  0
    0.2937    5.2203    0.9587 H   0  0  0  0  0  0  0  0  0  0  0  0
    2.1700    0.2288    0.0827 H   0  0  0  0  0  0  0  0  0  0  0  0
    3.6789   -0.6034   -0.9273 H   0  0  0  0  0  0  0  0  0  0  0  0
    5.8403    1.1451    2.3884 H   0  0  0  0  0  0  0  0  0  0  0  0
    7.2299   -2.4737    0.5826 H   0  0  0  0  0  0  0  0  0  0  0  0
    7.4805   -0.6870    2.2595 H   0  0  0  0  0  0  0  0  0  0  0  0
   -7.9745   -2.7253    1.1371 H   0  0  0  0  0  0  0  0  0  0  0  0
   -7.1060   -3.8787    0.0828 H   0  0  0  0  0  0  0  0  0  0  0  0
   -6.0623   -4.9156    2.1015 H   0  0  0  0  0  0  0  0  0  0  0  0
   -6.9169   -3.7807    3.1387 H   0  0  0  0  0  0  0  0  0  0  0  0
   -7.8384   -4.9820    2.2025 H   0  0  0  0  0  0  0  0  0  0  0  0
  1 31  1  0  0  0  0
  2 31  1  0  0  0  0
  3 31  1  0  0  0  0
  4 24  1  0  0  0  0
  4 32  1  0  0  0  0
  5 25  2  0  0  0  0
  6 24  2  0  0  0  0
  7  8  1  0  0  0  0
  7 11  1  0  0  0  0
  7 13  1  0  0  0  0
  8 19  2  0  0  0  0
  9 13  1  0  0  0  0
  9 21  2  0  0  0  0
 10 16  1  0  0  0  0
 10 25  1  0  0  0  0
 10 41  1  0  0  0  0
 11 12  1  0  0  0  0
 11 17  2  0  0  0  0
 12 15  2  0  0  0  0
 12 18  1  0  0  0  0
 13 14  2  0  0  0  0
 14 19  1  0  0  0  0
 14 24  1  0  0  0  0
 15 16  1  0  0  0  0
 15 34  1  0  0  0  0
 16 20  2  0  0  0  0
 17 21  1  0  0  0  0
 17 35  1  0  0  0  0
 18 22  2  0  0  0  0
 18 36  1  0  0  0  0
 19 37  1  0  0  0  0
 20 22  1  0  0  0  0
 20 38  1  0  0  0  0
 21 39  1  0  0  0  0
 22 40  1  0  0  0  0
 23 25  1  0  0  0  0
 23 26  2  0  0  0  0
 23 28  1  0  0  0  0
 26 27  1  0  0  0  0
 26 42  1  0  0  0  0
 27 29  2  0  0  0  0
 27 31  1  0  0  0  0
 28 30  2  0  0  0  0
 28 43  1  0  0  0  0
 29 30  1  0  0  0  0
 29 44  1  0  0  0  0
 30 45  1  0  0  0  0
 32 33  1  0  0  0  0
 32 46  1  0  0  0  0
 32 47  1  0  0  0  0
 33 48  1  0  0  0  0
 33 49  1  0  0  0  0
 33 50  1  0  0  0  0
M  END
> <PUBCHEM_COMPOUND_CID>
24969301

> <PUBCHEM_CONFORMER_RMSD>
1

> <PUBCHEM_CONFORMER_DIVERSEORDER>
4
47
100
80
17
78
93
92
75
10
94
65
64
58
22
81
34
52
35
62
77
82
51
59
90
53
49
55
101
56
95
61
13
46
2
57
3
48
74
38
24
40
72
9
79
85
83
26
63
41
84
18
69
43
37
1
70
91
66
76
32
16
11
36
42
29
54
20
27
96
86
60
6
25
50
39
19
73
5
99
97
68
31
7
15
28
8
12
88
87
30
67
89
98
45
33
14
21
44
71
23

> <PUBCHEM_MMFF94_PARTIAL_CHARGES>
44
1 -0.34
10 -0.55
11 -0.06
12 0.03
13 -0.03
14 -0.09
15 -0.15
16 0.12
17 -0.14
18 -0.15
19 0.14
2 -0.34
20 -0.15
21 0.38
22 -0.15
23 0.09
24 0.81
25 0.54
26 -0.15
27 -0.14
28 -0.15
29 -0.15
3 -0.34
30 -0.15
31 1.16
32 0.28
34 0.15
35 0.15
36 0.15
37 0.15
38 0.15
39 0.06
4 -0.43
40 0.15
41 0.37
42 0.15
43 0.15
44 0.15
45 0.15
5 -0.57
6 -0.57
7 0.6
8 -0.71
9 -0.58

> <PUBCHEM_EFFECTIVE_ROTOR_COUNT>
8

> <PUBCHEM_PHARMACOPHORE_FEATURES>
9
1 10 donor
1 5 acceptor
1 6 acceptor
1 8 acceptor
1 9 acceptor
5 7 8 13 14 19 rings
6 12 15 16 18 20 22 rings
6 23 26 27 28 29 30 rings
6 7 9 11 13 17 21 rings

> <PUBCHEM_HEAVY_ATOM_COUNT>
33

> <PUBCHEM_ATOM_DEF_STEREO_COUNT>
0

> <PUBCHEM_ATOM_UDEF_STEREO_COUNT>
0

> <PUBCHEM_BOND_DEF_STEREO_COUNT>
0

> <PUBCHEM_BOND_UDEF_STEREO_COUNT>
0

> <PUBCHEM_ISOTOPIC_ATOM_COUNT>
0

> <PUBCHEM_COMPONENT_COUNT>
1

> <PUBCHEM_CACTVS_TAUTO_COUNT>
2

> <PUBCHEM_CONFORMER_ID>
017D005500000004

> <PUBCHEM_MMFF94_ENERGY>
84.8172

> <PUBCHEM_FEATURE_SELFOVERLAP>
45.801

> <PUBCHEM_SHAPE_FINGERPRINT>
10169797 241 17631451177831611478
10533779 47 18044950198147485619
10669705 162 18340475695845392005
10669705 251 18338800125423276498
11374522 301 18271541805083069814
117089 54 18412270523172408814
11796584 16 18115573864537441184
11828532 37 17969225709974050930
12342043 65 18262793103362430209
12422481 6 16845010092073759588
12623949 98 18263648539987153637
12717326 120 18335697180115989986
13383661 66 18410863165331705386
13540713 4 18044352028792667333
13553639 21 18129097814694518142
1361 87 18338519612713509572
13782708 43 18187927335072542089
14211702 104 18341045216919343108
14556957 393 14635141296795928479
14950920 106 14691413245306709596
15510800 12 18411133624001832270
19301679 30 18343590641787396609
21130935 74 17903080277118491179
21585482 310 18336554909957797643
21623969 137 18201429260721037926
21682296 61 18116433833919218203
229767 8 18409736166071704115
23424784 1240 18343300332532189846
23559900 14 18188755223773079040
23572383 38 18339069411661913740
24771750 20 17610344114389639732
25025965 108 17483925252529978902
25122255 55 18410290268560878548
2838139 119 8646765586808969128
3089732 80 18341332202281176382
3862424 121 18339100232294820942
3991529 202 18271263663976226075
4073 2 18198337348246290128
437795 96 18413103961787759486
4435113 14 18334862757013819779
4461854 278 17846773040877057662
50009960 94 17975951208802396250
56633871 153 18201153355895099215
5718773 13 18261668294266153923
613672 6 18268972246719530624
636775 8 18410294688836249198
6431902 208 18200584788335522668
7918774 8 18413111636782891404
86090 222 18411419505947694834
9831232 110 18334013917200464863

> <PUBCHEM_SHAPE_MULTIPOLES>
619.77
20.86
5.52
1.84
1.28
1.29
-0.68
28.12
2.43
2.61
0.51
-0.14
0.83
7.43

> <PUBCHEM_SHAPE_SELFOVERLAP>
1362.939

> <PUBCHEM_SHAPE_VOLUME>
334

> <PUBCHEM_COORDINATE_TYPE>
2
5
10

$$$$
