49830832
  -OEChem-10052115183D

 49 51  0     0  0  0  0  0  0999 V2000
   -5.7991    0.1890    0.1412 S   0  0  0  0  0  0  0  0  0  0  0  0
   -7.1967    0.1384   -0.2457 O   0  0  0  0  0  0  0  0  0  0  0  0
   -5.3762   -0.2956    1.4401 O   0  0  0  0  0  0  0  0  0  0  0  0
    6.5162    1.6290    0.1691 O   0  0  0  0  0  0  0  0  0  0  0  0
   -4.8602   -0.5206   -1.1164 N   0  0  0  0  0  0  0  0  0  0  0  0
    4.6050   -2.1387    0.6140 N   0  0  0  0  0  0  0  0  0  0  0  0
    5.1470   -0.9194    0.4581 N   0  0  0  0  0  0  0  0  0  0  0  0
    4.2131    1.2029   -0.0917 N   0  0  0  0  0  0  0  0  0  0  0  0
   -5.2851    1.8858   -0.0025 C   0  0  0  0  0  0  0  0  0  0  0  0
    2.8853   -0.8740    0.1118 C   0  0  0  0  0  0  0  0  0  0  0  0
    0.6007   -1.6201   -0.0849 C   0  0  0  0  0  0  0  0  0  0  0  0
   -0.7949   -1.3385   -0.3478 C   0  0  0  0  0  0  0  0  0  0  0  0
    3.2507   -2.1798    0.4193 C   0  0  0  0  0  0  0  0  0  0  0  0
    1.5362   -0.5796   -0.1465 C   0  0  0  0  0  0  0  0  0  0  0  0
   -5.9825    2.7640    1.0232 C   0  0  0  0  0  0  0  0  0  0  0  0
   -3.4839   -0.7972   -0.8563 C   0  0  0  0  0  0  0  0  0  0  0  0
    4.0978   -0.1526    0.1532 C   0  0  0  0  0  0  0  0  0  0  0  0
    0.9950   -2.9227    0.2263 C   0  0  0  0  0  0  0  0  0  0  0  0
    2.3342   -3.2315    0.4863 C   0  0  0  0  0  0  0  0  0  0  0  0
   -1.7884   -2.0963    0.2724 C   0  0  0  0  0  0  0  0  0  0  0  0
   -1.1461   -0.3099   -1.2221 C   0  0  0  0  0  0  0  0  0  0  0  0
   -3.1327   -1.8258    0.0181 C   0  0  0  0  0  0  0  0  0  0  0  0
   -2.4905   -0.0393   -1.4764 C   0  0  0  0  0  0  0  0  0  0  0  0
   -5.5599    4.2175    0.8897 C   0  0  0  0  0  0  0  0  0  0  0  0
    5.3747    2.0061   -0.0740 C   0  0  0  0  0  0  0  0  0  0  0  0
    5.0570    3.4575   -0.4021 C   0  0  0  0  0  0  0  0  0  0  0  0
    6.2831    4.3514   -0.3565 C   0  0  0  0  0  0  0  0  0  0  0  0
   -5.5188    2.2156   -1.0199 H   0  0  0  0  0  0  0  0  0  0  0  0
   -4.2022    1.9211    0.1494 H   0  0  0  0  0  0  0  0  0  0  0  0
    1.2591    0.4486   -0.3548 H   0  0  0  0  0  0  0  0  0  0  0  0
   -5.7545    2.4143    2.0368 H   0  0  0  0  0  0  0  0  0  0  0  0
   -7.0699    2.6939    0.9034 H   0  0  0  0  0  0  0  0  0  0  0  0
   -5.0396   -0.1475   -2.0583 H   0  0  0  0  0  0  0  0  0  0  0  0
    0.2916   -3.7518    0.2471 H   0  0  0  0  0  0  0  0  0  0  0  0
    2.6440   -4.2438    0.7208 H   0  0  0  0  0  0  0  0  0  0  0  0
   -1.5649   -2.8871    0.9831 H   0  0  0  0  0  0  0  0  0  0  0  0
   -0.4086    0.2860   -1.7527 H   0  0  0  0  0  0  0  0  0  0  0  0
   -3.8953   -2.4289    0.5041 H   0  0  0  0  0  0  0  0  0  0  0  0
   -2.7531    0.7607   -2.1639 H   0  0  0  0  0  0  0  0  0  0  0  0
    5.2186   -2.9071    0.8547 H   0  0  0  0  0  0  0  0  0  0  0  0
   -6.0726    4.8317    1.6365 H   0  0  0  0  0  0  0  0  0  0  0  0
   -5.8097    4.6092   -0.1016 H   0  0  0  0  0  0  0  0  0  0  0  0
   -4.4814    4.3279    1.0414 H   0  0  0  0  0  0  0  0  0  0  0  0
    3.3366    1.6695   -0.3131 H   0  0  0  0  0  0  0  0  0  0  0  0
    4.3120    3.8195    0.3155 H   0  0  0  0  0  0  0  0  0  0  0  0
    4.6107    3.4949   -1.4022 H   0  0  0  0  0  0  0  0  0  0  0  0
    6.7415    4.3395    0.6379 H   0  0  0  0  0  0  0  0  0  0  0  0
    6.0109    5.3840   -0.5953 H   0  0  0  0  0  0  0  0  0  0  0  0
    7.0377    4.0211   -1.0779 H   0  0  0  0  0  0  0  0  0  0  0  0
  1  2  2  0  0  0  0
  1  3  2  0  0  0  0
  1  5  1  0  0  0  0
  1  9  1  0  0  0  0
  4 25  2  0  0  0  0
  5 16  1  0  0  0  0
  5 33  1  0  0  0  0
  6  7  1  0  0  0  0
  6 13  1  0  0  0  0
  6 40  1  0  0  0  0
  7 17  2  0  0  0  0
  8 17  1  0  0  0  0
  8 25  1  0  0  0  0
  8 44  1  0  0  0  0
  9 15  1  0  0  0  0
  9 28  1  0  0  0  0
  9 29  1  0  0  0  0
 10 13  2  0  0  0  0
 10 14  1  0  0  0  0
 10 17  1  0  0  0  0
 11 12  1  0  0  0  0
 11 14  2  0  0  0  0
 11 18  1  0  0  0  0
 12 20  2  0  0  0  0
 12 21  1  0  0  0  0
 13 19  1  0  0  0  0
 14 30  1  0  0  0  0
 15 24  1  0  0  0  0
 15 31  1  0  0  0  0
 15 32  1  0  0  0  0
 16 22  2  0  0  0  0
 16 23  1  0  0  0  0
 18 19  2  0  0  0  0
 18 34  1  0  0  0  0
 19 35  1  0  0  0  0
 20 22  1  0  0  0  0
 20 36  1  0  0  0  0
 21 23  2  0  0  0  0
 21 37  1  0  0  0  0
 22 38  1  0  0  0  0
 23 39  1  0  0  0  0
 24 41  1  0  0  0  0
 24 42  1  0  0  0  0
 24 43  1  0  0  0  0
 25 26  1  0  0  0  0
 26 27  1  0  0  0  0
 26 45  1  0  0  0  0
 26 46  1  0  0  0  0
 27 47  1  0  0  0  0
 27 48  1  0  0  0  0
 27 49  1  0  0  0  0
M  END
> <PUBCHEM_COMPOUND_CID>
49830832

> <PUBCHEM_CONFORMER_RMSD>
1

> <PUBCHEM_CONFORMER_DIVERSEORDER>
1
53
19
47
8
45
5
32
37
41
13
23
57
10
35
51
58
40
48
31
18
38
52
21
25
16
46
54
11
44
39
20
43
33
24
17
29
56
9
28
36
50
42
27
55
12
7
15
6
2
22
26
30
4
14
49
34
3

> <PUBCHEM_MMFF94_PARTIAL_CHARGES>
31
1 1.33
13 -0.15
14 -0.15
16 0.2
17 0.35
18 -0.15
19 -0.15
2 -0.65
20 -0.15
21 -0.15
22 -0.15
23 -0.15
25 0.57
26 0.06
3 -0.65
30 0.15
33 0.42
34 0.15
35 0.15
36 0.15
37 0.15
38 0.15
39 0.15
4 -0.57
40 0.27
44 0.37
5 -0.76
6 0.3
7 -0.71
8 -0.49
9 0.11

> <PUBCHEM_EFFECTIVE_ROTOR_COUNT>
8

> <PUBCHEM_PHARMACOPHORE_FEATURES>
11
1 2 acceptor
1 24 hydrophobe
1 27 hydrophobe
1 3 acceptor
1 4 acceptor
1 5 donor
1 6 donor
1 8 donor
5 6 7 10 13 17 rings
6 10 11 13 14 18 19 rings
6 12 16 20 21 22 23 rings

> <PUBCHEM_HEAVY_ATOM_COUNT>
27

> <PUBCHEM_ATOM_DEF_STEREO_COUNT>
0

> <PUBCHEM_ATOM_UDEF_STEREO_COUNT>
0

> <PUBCHEM_BOND_DEF_STEREO_COUNT>
0

> <PUBCHEM_BOND_UDEF_STEREO_COUNT>
0

> <PUBCHEM_ISOTOPIC_ATOM_COUNT>
0

> <PUBCHEM_COMPONENT_COUNT>
1

> <PUBCHEM_CACTVS_TAUTO_COUNT>
66

> <PUBCHEM_CONFORMER_ID>
02F85BB000000001

> <PUBCHEM_MMFF94_ENERGY>
60.5438

> <PUBCHEM_FEATURE_SELFOVERLAP>
55.929

> <PUBCHEM_SHAPE_FINGERPRINT>
10 15 17603862338412489406
100830 2 18057901164157179161
10411042 1 17976532816199609898
10595046 47 18341324544544755487
10638233 991 18413106164994342109
10693767 8 9655575184467971677
1200032 147 18041842926346654128
12107183 9 17692246336431805987
12788726 201 17632583708033582177
12975358 362 17270343985395986337
13167372 99 18341610365368531890
13785724 45 17333087521344491351
13955234 65 18114452367473386898
14202776 33 17917982911291162733
14251764 75 18410294752543515860
14429114 114 18412541041677433193
14790565 3 18411983571959012165
14849402 71 18334854962413477538
15183329 4 15913333498191824363
15840311 113 18337677391592568101
16760501 71 18335139808158637837
17857418 61 8214134171064261799
20058555 10 18410855460614276977
21033648 29 17023169506104302231
21585482 111 18334857173520444692
22122407 14 18339932532484523985
23559900 14 18262788572088004658
2748736 6 18266730454290291520
5104073 3 18040149625950861978
5718773 13 9583254828900115748
57724786 102 18411416181241742942
5951187 136 18343032086181261356
6058803 2 18269253742950071335
636775 72 18199180870922450016
7970288 3 9294749566278145864

> <PUBCHEM_SHAPE_MULTIPOLES>
521.96
18.82
4.9
1
5.58
5.45
0.11
20.28
-2.42
-4.44
-0.93
1.09
0.09
-2.75

> <PUBCHEM_SHAPE_SELFOVERLAP>
1103.949

> <PUBCHEM_SHAPE_VOLUME>
294.1

> <PUBCHEM_COORDINATE_TYPE>
2
5
10

$$$$
