49830711
  -OEChem-10052115193D

 40 43  0     1  0  0  0  0  0999 V2000
    4.5475   -0.6881    0.0581 S   0  0  0  0  0  0  0  0  0  0  0  0
    5.2473   -0.3908    1.2930 O   0  0  0  0  0  0  0  0  0  0  0  0
    4.3130   -2.0613   -0.3487 O   0  0  0  0  0  0  0  0  0  0  0  0
   -5.2249   -1.4964    0.9195 O   0  0  0  0  0  0  0  0  0  0  0  0
    3.0568    0.1869    0.0129 N   0  0  1  0  0  0  0  0  0  0  0  0
   -2.6783    0.7376   -0.3310 N   0  0  0  0  0  0  0  0  0  0  0  0
   -2.9918   -1.8722    0.5495 N   0  0  0  0  0  0  0  0  0  0  0  0
    3.2359    1.6542    0.2366 C   0  0  0  0  0  0  0  0  0  0  0  0
    2.1187    2.5080    0.7602 C   0  0  0  0  0  0  0  0  0  0  0  0
    3.3174    2.2312    1.6194 C   0  0  0  0  0  0  0  0  0  0  0  0
    2.1471   -0.0782   -1.1281 C   0  0  0  0  0  0  0  0  0  0  0  0
    0.7959   -0.5369   -0.6908 C   0  0  0  0  0  0  0  0  0  0  0  0
    5.4307    0.0960   -1.2721 C   0  0  0  0  0  0  0  0  0  0  0  0
   -0.2846    0.3467   -0.7307 C   0  0  0  0  0  0  0  0  0  0  0  0
   -1.5419   -0.0973   -0.3187 C   0  0  0  0  0  0  0  0  0  0  0  0
    0.6218   -1.8488   -0.2444 C   0  0  0  0  0  0  0  0  0  0  0  0
   -1.7227   -1.4153    0.1309 C   0  0  0  0  0  0  0  0  0  0  0  0
   -0.6362   -2.2908    0.1670 C   0  0  0  0  0  0  0  0  0  0  0  0
   -3.9153    0.2793    0.0811 C   0  0  0  0  0  0  0  0  0  0  0  0
   -4.1311   -1.0737    0.5491 C   0  0  0  0  0  0  0  0  0  0  0  0
   -2.7897    2.0519   -0.7156 C   0  0  0  0  0  0  0  0  0  0  0  0
   -4.8126    1.3213   -0.0476 C   0  0  0  0  0  0  0  0  0  0  0  0
   -4.1028    2.4365   -0.5494 C   0  0  0  0  0  0  0  0  0  0  0  0
    3.8275    2.1220   -0.5429 H   0  0  0  0  0  0  0  0  0  0  0  0
    2.0104    3.5049    0.3509 H   0  0  0  0  0  0  0  0  0  0  0  0
    1.1895    2.0480    1.0689 H   0  0  0  0  0  0  0  0  0  0  0  0
    4.0184    3.0393    1.7869 H   0  0  0  0  0  0  0  0  0  0  0  0
    3.1865    1.5661    2.4640 H   0  0  0  0  0  0  0  0  0  0  0  0
    2.0651    0.8103   -1.7681 H   0  0  0  0  0  0  0  0  0  0  0  0
    2.5672   -0.8449   -1.7907 H   0  0  0  0  0  0  0  0  0  0  0  0
    6.3398   -0.4858   -1.4465 H   0  0  0  0  0  0  0  0  0  0  0  0
    4.8234    0.0866   -2.1780 H   0  0  0  0  0  0  0  0  0  0  0  0
    5.7143    1.1096   -0.9880 H   0  0  0  0  0  0  0  0  0  0  0  0
   -0.1290    1.3606   -1.0852 H   0  0  0  0  0  0  0  0  0  0  0  0
    1.4603   -2.5392   -0.2132 H   0  0  0  0  0  0  0  0  0  0  0  0
   -0.7556   -3.3145    0.5115 H   0  0  0  0  0  0  0  0  0  0  0  0
   -3.0717   -2.8342    0.8665 H   0  0  0  0  0  0  0  0  0  0  0  0
   -1.9443    2.6211   -1.0764 H   0  0  0  0  0  0  0  0  0  0  0  0
   -5.8658    1.2814    0.1943 H   0  0  0  0  0  0  0  0  0  0  0  0
   -4.5020    3.4171   -0.7676 H   0  0  0  0  0  0  0  0  0  0  0  0
  1  2  2  0  0  0  0
  1  3  2  0  0  0  0
  1  5  1  0  0  0  0
  1 13  1  0  0  0  0
  4 20  2  0  0  0  0
  5  8  1  0  0  0  0
  5 11  1  0  0  0  0
  6 15  1  0  0  0  0
  6 19  1  0  0  0  0
  6 21  1  0  0  0  0
  7 17  1  0  0  0  0
  7 20  1  0  0  0  0
  7 37  1  0  0  0  0
  8  9  1  0  0  0  0
  8 10  1  0  0  0  0
  8 24  1  0  0  0  0
  9 10  1  0  0  0  0
  9 25  1  0  0  0  0
  9 26  1  0  0  0  0
 10 27  1  0  0  0  0
 10 28  1  0  0  0  0
 11 12  1  0  0  0  0
 11 29  1  0  0  0  0
 11 30  1  0  0  0  0
 12 14  2  0  0  0  0
 12 16  1  0  0  0  0
 13 31  1  0  0  0  0
 13 32  1  0  0  0  0
 13 33  1  0  0  0  0
 14 15  1  0  0  0  0
 14 34  1  0  0  0  0
 15 17  2  0  0  0  0
 16 18  2  0  0  0  0
 16 35  1  0  0  0  0
 17 18  1  0  0  0  0
 18 36  1  0  0  0  0
 19 20  1  0  0  0  0
 19 22  2  0  0  0  0
 21 23  2  0  0  0  0
 21 38  1  0  0  0  0
 22 23  1  0  0  0  0
 22 39  1  0  0  0  0
 23 40  1  0  0  0  0
M  END
> <PUBCHEM_COMPOUND_CID>
49830711

> <PUBCHEM_CONFORMER_RMSD>
0.8

> <PUBCHEM_CONFORMER_DIVERSEORDER>
1
35
14
23
24
12
36
2
49
30
47
21
20
50
22
48
26
18
27
44
45
25
46
52
40
41
51
33
34
54
19
38
37
28
17
16
4
6
10
15
29
43
3
8
11
42
9
53
5
13
7
31
39
32

> <PUBCHEM_MMFF94_PARTIAL_CHARGES>
35
1 1.33
10 -0.2
11 0.5
12 -0.14
13 0.11
14 -0.15
15 -0.02
16 -0.15
17 0.12
18 -0.15
19 -0.24
2 -0.65
20 0.71
21 -0.3
22 -0.15
23 -0.15
24 0.1
25 0.1
26 0.1
27 0.1
28 0.1
3 -0.65
34 0.15
35 0.15
36 0.15
37 0.37
38 0.15
39 0.15
4 -0.57
40 0.15
5 -0.72
6 0.33
7 -0.55
8 0.13
9 -0.2

> <PUBCHEM_EFFECTIVE_ROTOR_COUNT>
4.6

> <PUBCHEM_PHARMACOPHORE_FEATURES>
8
1 2 acceptor
1 3 acceptor
1 4 acceptor
1 6 cation
1 7 donor
5 6 19 21 22 23 rings
6 12 14 15 16 17 18 rings
6 6 7 15 17 19 20 rings

> <PUBCHEM_HEAVY_ATOM_COUNT>
23

> <PUBCHEM_ATOM_DEF_STEREO_COUNT>
0

> <PUBCHEM_ATOM_UDEF_STEREO_COUNT>
0

> <PUBCHEM_BOND_DEF_STEREO_COUNT>
0

> <PUBCHEM_BOND_UDEF_STEREO_COUNT>
0

> <PUBCHEM_ISOTOPIC_ATOM_COUNT>
0

> <PUBCHEM_COMPONENT_COUNT>
1

> <PUBCHEM_CACTVS_TAUTO_COUNT>
2

> <PUBCHEM_CONFORMER_ID>
02F85B3700000001

> <PUBCHEM_MMFF94_ENERGY>
50.6881

> <PUBCHEM_FEATURE_SELFOVERLAP>
40.739

> <PUBCHEM_SHAPE_FINGERPRINT>
10319926 262 18335973229730457698
10646746 165 18408886230613550741
11045977 3 18410855451559332741
11405975 8 18412544314325831649
11545043 162 18333450936844461105
11595378 159 17095515171772014381
12107183 9 17536584111067288026
12236239 1 17095245825656035326
12403259 226 18410572898730785005
12403259 415 18413109480514142885
12403260 363 18410005576626906261
12507557 5 18201999923634155648
12507560 40 18339357565091269096
12596602 18 15936421060426446797
13004483 165 17553747848075524063
13402501 40 18412543189092184540
13583140 156 18342736312557042183
13675066 3 18413387635691987598
14178342 30 18113624443854279533
14251764 38 18202001018861885537
14341114 176 18411706512425245512
14420673 8 18043807589905283170
14466204 15 18338228268018075152
14866123 147 16902161396789808686
15042514 8 18118132587584267411
15196674 1 18408325483888558117
15238133 3 18408601445082068632
15256400 18 18408322189664492252
15295992 7 18343858935414439208
17349148 13 16773802476331906522
17804303 29 18408608071483292644
1813 80 16588019134874301196
18186145 218 17988648518585292838
19433438 28 18410012165043551633
21033648 29 18342167890836508296
21065198 57 18411136965317343102
21065199 12 18338514256699556048
21279426 13 18267026051061358606
21792934 111 18335425682394760569
23402539 116 18335136518941761039
23559900 14 18408606963244820676
3004659 81 18188778241578393838
350125 39 18408611365849815541
351380 180 18343578525541976269
392239 28 18342469131917288617
4214541 1 18334860497824111517
495365 180 17560791161312969288
508706 21 18261662684859848749
5104073 3 18409168818092338697
57724786 102 17417535834106063368
7808743 9 17906454681845040020
8509985 295 18339073792618109552

> <PUBCHEM_SHAPE_MULTIPOLES>
444.63
11.86
2.75
1.09
2.69
0.66
0.1
1
1.05
-0.7
0.51
0.88
0.29
1.8

> <PUBCHEM_SHAPE_SELFOVERLAP>
953.922

> <PUBCHEM_SHAPE_VOLUME>
249.3

> <PUBCHEM_COORDINATE_TYPE>
2
5
10

$$$$
