11463885
  -OEChem-10052115183D

 49 52  0     0  0  0  0  0  0999 V2000
   -9.2150   -0.3931    1.4014 F   0  0  0  0  0  0  0  0  0  0  0  0
    6.3198   -1.7262    0.1777 O   0  0  0  0  0  0  0  0  0  0  0  0
    7.7704    0.7336    0.8537 O   0  0  0  0  0  0  0  0  0  0  0  0
   -2.8261    0.0432    1.1089 O   0  0  0  0  0  0  0  0  0  0  0  0
    5.3347   -2.6468   -0.1581 N   0  0  0  0  0  0  0  0  0  0  0  0
   -1.8929    0.4223   -1.0043 N   0  0  0  0  0  0  0  0  0  0  0  0
    2.9885   -2.4519   -0.5633 N   0  0  0  0  0  0  0  0  0  0  0  0
   -4.1837    0.2479   -0.7906 N   0  0  0  0  0  0  0  0  0  0  0  0
    3.6350    0.5997    0.0587 C   0  0  0  0  0  0  0  0  0  0  0  0
    4.4098   -0.5684    0.0113 C   0  0  0  0  0  0  0  0  0  0  0  0
    2.2190    0.5546   -0.2136 C   0  0  0  0  0  0  0  0  0  0  0  0
    5.7655   -0.4872    0.2781 C   0  0  0  0  0  0  0  0  0  0  0  0
    4.2748    1.8061    0.3766 C   0  0  0  0  0  0  0  0  0  0  0  0
    6.4327    0.6918    0.5968 C   0  0  0  0  0  0  0  0  0  0  0  0
    4.2063   -1.9369   -0.2514 C   0  0  0  0  0  0  0  0  0  0  0  0
    5.6478    1.8487    0.6404 C   0  0  0  0  0  0  0  0  0  0  0  0
    1.7493    0.7254   -1.5182 C   0  0  0  0  0  0  0  0  0  0  0  0
    1.3110    0.3398    0.8261 C   0  0  0  0  0  0  0  0  0  0  0  0
   -0.5236    0.4672   -0.7408 C   0  0  0  0  0  0  0  0  0  0  0  0
    0.3802    0.6817   -1.7814 C   0  0  0  0  0  0  0  0  0  0  0  0
   -0.0582    0.2962    0.5629 C   0  0  0  0  0  0  0  0  0  0  0  0
   -5.4568    0.0851   -0.2391 C   0  0  0  0  0  0  0  0  0  0  0  0
   -2.9632    0.2182   -0.0974 C   0  0  0  0  0  0  0  0  0  0  0  0
   -7.8540   -0.0215   -0.5078 C   0  0  0  0  0  0  0  0  0  0  0  0
   -6.5829    0.1402   -1.0589 C   0  0  0  0  0  0  0  0  0  0  0  0
   -5.5990   -0.1311    1.1308 C   0  0  0  0  0  0  0  0  0  0  0  0
   -7.9976   -0.2380    0.8626 C   0  0  0  0  0  0  0  0  0  0  0  0
   -6.8701   -0.2928    1.6820 C   0  0  0  0  0  0  0  0  0  0  0  0
    8.6365    0.9564   -0.2571 C   0  0  0  0  0  0  0  0  0  0  0  0
   -9.0583    0.0358   -1.3861 C   0  0  0  0  0  0  0  0  0  0  0  0
    3.7059    2.7328    0.4228 H   0  0  0  0  0  0  0  0  0  0  0  0
    6.1092    2.8032    0.8842 H   0  0  0  0  0  0  0  0  0  0  0  0
    2.4399    0.8930   -2.3415 H   0  0  0  0  0  0  0  0  0  0  0  0
    1.6579    0.2040    1.8481 H   0  0  0  0  0  0  0  0  0  0  0  0
    0.0316    0.8159   -2.8022 H   0  0  0  0  0  0  0  0  0  0  0  0
   -0.6914    0.1252    1.4217 H   0  0  0  0  0  0  0  0  0  0  0  0
   -2.1547    0.5546   -1.9781 H   0  0  0  0  0  0  0  0  0  0  0  0
    2.8698   -3.4434   -0.7482 H   0  0  0  0  0  0  0  0  0  0  0  0
    2.1355   -1.9104   -0.6327 H   0  0  0  0  0  0  0  0  0  0  0  0
   -4.1438    0.4028   -1.7945 H   0  0  0  0  0  0  0  0  0  0  0  0
   -6.4696    0.3075   -2.1277 H   0  0  0  0  0  0  0  0  0  0  0  0
   -4.7893   -0.1889    1.8420 H   0  0  0  0  0  0  0  0  0  0  0  0
   -6.9841   -0.4611    2.7489 H   0  0  0  0  0  0  0  0  0  0  0  0
    9.6676    0.9593    0.1067 H   0  0  0  0  0  0  0  0  0  0  0  0
    8.4249    1.9257   -0.7195 H   0  0  0  0  0  0  0  0  0  0  0  0
    8.5274    0.1553   -0.9950 H   0  0  0  0  0  0  0  0  0  0  0  0
   -8.8182    0.4276   -2.3803 H   0  0  0  0  0  0  0  0  0  0  0  0
   -9.4829   -0.9658   -1.5081 H   0  0  0  0  0  0  0  0  0  0  0  0
   -9.8184    0.6950   -0.9534 H   0  0  0  0  0  0  0  0  0  0  0  0
  1 27  1  0  0  0  0
  2  5  1  0  0  0  0
  2 12  1  0  0  0  0
  3 14  1  0  0  0  0
  3 29  1  0  0  0  0
  4 23  2  0  0  0  0
  5 15  2  0  0  0  0
  6 19  1  0  0  0  0
  6 23  1  0  0  0  0
  6 37  1  0  0  0  0
  7 15  1  0  0  0  0
  7 38  1  0  0  0  0
  7 39  1  0  0  0  0
  8 22  1  0  0  0  0
  8 23  1  0  0  0  0
  8 40  1  0  0  0  0
  9 10  2  0  0  0  0
  9 11  1  0  0  0  0
  9 13  1  0  0  0  0
 10 12  1  0  0  0  0
 10 15  1  0  0  0  0
 11 17  2  0  0  0  0
 11 18  1  0  0  0  0
 12 14  2  0  0  0  0
 13 16  2  0  0  0  0
 13 31  1  0  0  0  0
 14 16  1  0  0  0  0
 16 32  1  0  0  0  0
 17 20  1  0  0  0  0
 17 33  1  0  0  0  0
 18 21  2  0  0  0  0
 18 34  1  0  0  0  0
 19 20  2  0  0  0  0
 19 21  1  0  0  0  0
 20 35  1  0  0  0  0
 21 36  1  0  0  0  0
 22 25  2  0  0  0  0
 22 26  1  0  0  0  0
 24 25  1  0  0  0  0
 24 27  2  0  0  0  0
 24 30  1  0  0  0  0
 25 41  1  0  0  0  0
 26 28  2  0  0  0  0
 26 42  1  0  0  0  0
 27 28  1  0  0  0  0
 28 43  1  0  0  0  0
 29 44  1  0  0  0  0
 29 45  1  0  0  0  0
 29 46  1  0  0  0  0
 30 47  1  0  0  0  0
 30 48  1  0  0  0  0
 30 49  1  0  0  0  0
M  END
> <PUBCHEM_COMPOUND_CID>
11463885

> <PUBCHEM_CONFORMER_RMSD>
0.8

> <PUBCHEM_CONFORMER_DIVERSEORDER>
2
13
5
19
17
14
12
15
9
3
20
8
18
11
10
16
1
6
7
4

> <PUBCHEM_MMFF94_PARTIAL_CHARGES>
40
1 -0.19
12 0.14
13 -0.15
14 0.08
15 0.37
16 -0.15
17 -0.15
18 -0.15
19 0.12
2 -0.02
20 -0.15
21 -0.15
22 0.12
23 0.69
24 -0.14
25 -0.15
26 -0.15
27 0.19
28 -0.15
29 0.28
3 -0.36
30 0.14
31 0.15
32 0.15
33 0.15
34 0.15
35 0.15
36 0.15
37 0.37
38 0.4
39 0.4
4 -0.57
40 0.37
41 0.15
42 0.15
43 0.15
5 -0.41
6 -0.55
7 -0.88
8 -0.55

> <PUBCHEM_EFFECTIVE_ROTOR_COUNT>
6

> <PUBCHEM_PHARMACOPHORE_FEATURES>
10
1 3 acceptor
1 4 acceptor
1 6 donor
1 7 donor
1 8 donor
3 5 7 15 cation
5 2 5 10 12 15 rings
6 11 17 18 19 20 21 rings
6 22 24 25 26 27 28 rings
6 9 10 12 13 14 16 rings

> <PUBCHEM_HEAVY_ATOM_COUNT>
30

> <PUBCHEM_ATOM_DEF_STEREO_COUNT>
0

> <PUBCHEM_ATOM_UDEF_STEREO_COUNT>
0

> <PUBCHEM_BOND_DEF_STEREO_COUNT>
0

> <PUBCHEM_BOND_UDEF_STEREO_COUNT>
0

> <PUBCHEM_ISOTOPIC_ATOM_COUNT>
0

> <PUBCHEM_COMPONENT_COUNT>
1

> <PUBCHEM_CACTVS_TAUTO_COUNT>
12

> <PUBCHEM_CONFORMER_ID>
00AEECCD00000002

> <PUBCHEM_MMFF94_ENERGY>
98.8294

> <PUBCHEM_FEATURE_SELFOVERLAP>
50.894

> <PUBCHEM_SHAPE_FINGERPRINT>
10162869 55 18272359914900527101
10165383 225 18410574029478334788
10299344 5 17704070698892197555
10951579 204 17242171237062417861
11315181 36 17489305318244082679
11719270 70 17168141239296892163
12089408 11 16845574222815814129
12236239 1 17346875664113511956
12741549 16 18040704876062383372
13533116 47 18273214175189793650
13560911 43 16988847194386891753
13685833 64 18259706679242871727
13885169 127 17458340819926926429
14118638 360 18340206302084319912
14170010 4 18334576845504794524
14251764 18 17418373597662744005
14251764 46 17749387075058009833
14294032 229 15769774633241365937
15183329 4 16845575327244693809
15301273 46 17967529060943124349
15419008 47 17895184515782790061
15419008 91 17458891735123911917
15510794 2 18040433300688903243
1577012 14 17060337418628322461
15840311 113 17131829911383230792
15849732 13 17967813860203455831
16120349 18 18341887528135072653
18335252 98 18334576832968123604
19315958 150 18409171025679310266
20157964 124 18342175579275951384
20554085 129 14477241548237268598
21150785 3 11386369257858865841
21267235 1 16660368091299326045
22224240 67 18411978087370411526
23516275 137 17703249337716205503
23569943 247 17316471795844919962
3004659 81 15791737412191122893
3092352 35 17060617815183204910
3383291 50 17458070382889352179
3633792 109 18336542725651894001
4073 2 18336826523531087994
4340502 62 18341893009172420094
5758199 1 15195570104635780581
59755656 215 17313103025735718595
67123 10 16081085996053232348
9663363 56 16950276321345841061
9962374 69 18041279988845143895

> <PUBCHEM_SHAPE_MULTIPOLES>
572.58
29.51
1.57
1.33
36.45
0.97
-0.07
0.76
4.56
-4.3
-0.11
2.11
-0.14
1.16

> <PUBCHEM_SHAPE_SELFOVERLAP>
1267.779

> <PUBCHEM_SHAPE_VOLUME>
308.6

> <PUBCHEM_COORDINATE_TYPE>
2
5
10

$$$$
