49830505
  -OEChem-10052115183D

 30 32  0     0  0  0  0  0  0999 V2000
   -3.0010    2.4926    0.4676 O   0  0  0  0  0  0  0  0  0  0  0  0
   -4.3199    0.5911    0.0412 N   0  0  0  0  0  0  0  0  0  0  0  0
   -2.6056   -0.9048   -0.1973 C   0  0  0  0  0  0  0  0  0  0  0  0
   -2.0496    0.3467    0.0721 C   0  0  0  0  0  0  0  0  0  0  0  0
   -4.0920   -0.8154   -0.2315 C   0  0  0  0  0  0  0  0  0  0  0  0
    0.1403   -0.5511   -0.0295 C   0  0  0  0  0  0  0  0  0  0  0  0
   -0.6876    0.5561    0.1621 C   0  0  0  0  0  0  0  0  0  0  0  0
   -1.7896   -2.0037   -0.3877 C   0  0  0  0  0  0  0  0  0  0  0  0
   -3.1448    1.3089    0.2257 C   0  0  0  0  0  0  0  0  0  0  0  0
    1.5770   -0.3945    0.0522 C   0  0  0  0  0  0  0  0  0  0  0  0
   -0.4054   -1.8195   -0.3020 C   0  0  0  0  0  0  0  0  0  0  0  0
    2.1680    0.8183   -0.3017 C   0  0  0  0  0  0  0  0  0  0  0  0
    2.3706   -1.4573    0.4842 C   0  0  0  0  0  0  0  0  0  0  0  0
    3.5526    0.9687   -0.2234 C   0  0  0  0  0  0  0  0  0  0  0  0
    3.7552   -1.3071    0.5623 C   0  0  0  0  0  0  0  0  0  0  0  0
    4.3462   -0.0940    0.2087 C   0  0  0  0  0  0  0  0  0  0  0  0
    4.1855    2.2650   -0.6031 C   0  0  0  0  0  0  0  0  0  0  0  0
   -4.5650   -1.4079    0.5555 H   0  0  0  0  0  0  0  0  0  0  0  0
   -4.5029   -1.0545   -1.2155 H   0  0  0  0  0  0  0  0  0  0  0  0
   -0.3170    1.5461    0.4026 H   0  0  0  0  0  0  0  0  0  0  0  0
   -2.2045   -2.9818   -0.6048 H   0  0  0  0  0  0  0  0  0  0  0  0
   -5.2435    1.0093    0.0924 H   0  0  0  0  0  0  0  0  0  0  0  0
    0.2191   -2.6900   -0.4876 H   0  0  0  0  0  0  0  0  0  0  0  0
    1.5835    1.6561   -0.6738 H   0  0  0  0  0  0  0  0  0  0  0  0
    1.9540   -2.4093    0.8010 H   0  0  0  0  0  0  0  0  0  0  0  0
    4.3729   -2.1320    0.9052 H   0  0  0  0  0  0  0  0  0  0  0  0
    5.4261    0.0095    0.2739 H   0  0  0  0  0  0  0  0  0  0  0  0
    4.3295    2.3094   -1.6872 H   0  0  0  0  0  0  0  0  0  0  0  0
    3.5612    3.1103   -0.2941 H   0  0  0  0  0  0  0  0  0  0  0  0
    5.1591    2.3916   -0.1175 H   0  0  0  0  0  0  0  0  0  0  0  0
  1  9  2  0  0  0  0
  2  5  1  0  0  0  0
  2  9  1  0  0  0  0
  2 22  1  0  0  0  0
  3  4  2  0  0  0  0
  3  5  1  0  0  0  0
  3  8  1  0  0  0  0
  4  7  1  0  0  0  0
  4  9  1  0  0  0  0
  5 18  1  0  0  0  0
  5 19  1  0  0  0  0
  6  7  2  0  0  0  0
  6 10  1  0  0  0  0
  6 11  1  0  0  0  0
  7 20  1  0  0  0  0
  8 11  2  0  0  0  0
  8 21  1  0  0  0  0
 10 12  1  0  0  0  0
 10 13  2  0  0  0  0
 11 23  1  0  0  0  0
 12 14  2  0  0  0  0
 12 24  1  0  0  0  0
 13 15  1  0  0  0  0
 13 25  1  0  0  0  0
 14 16  1  0  0  0  0
 14 17  1  0  0  0  0
 15 16  2  0  0  0  0
 15 26  1  0  0  0  0
 16 27  1  0  0  0  0
 17 28  1  0  0  0  0
 17 29  1  0  0  0  0
 17 30  1  0  0  0  0
M  END
> <PUBCHEM_COMPOUND_CID>
49830505

> <PUBCHEM_CONFORMER_RMSD>
0.6

> <PUBCHEM_CONFORMER_DIVERSEORDER>
1
3
2
4

> <PUBCHEM_MMFF94_PARTIAL_CHARGES>
23
1 -0.57
11 -0.15
12 -0.15
13 -0.15
14 -0.14
15 -0.15
16 -0.15
17 0.14
2 -0.73
20 0.15
21 0.15
22 0.37
23 0.15
24 0.15
25 0.15
26 0.15
27 0.15
3 -0.14
4 0.09
5 0.44
7 -0.15
8 -0.15
9 0.54

> <PUBCHEM_EFFECTIVE_ROTOR_COUNT>
1.4

> <PUBCHEM_PHARMACOPHORE_FEATURES>
5
1 1 acceptor
1 2 donor
5 2 3 4 5 9 rings
6 10 12 13 14 15 16 rings
6 3 4 6 7 8 11 rings

> <PUBCHEM_HEAVY_ATOM_COUNT>
17

> <PUBCHEM_ATOM_DEF_STEREO_COUNT>
0

> <PUBCHEM_ATOM_UDEF_STEREO_COUNT>
0

> <PUBCHEM_BOND_DEF_STEREO_COUNT>
0

> <PUBCHEM_BOND_UDEF_STEREO_COUNT>
0

> <PUBCHEM_ISOTOPIC_ATOM_COUNT>
0

> <PUBCHEM_COMPONENT_COUNT>
1

> <PUBCHEM_CACTVS_TAUTO_COUNT>
2

> <PUBCHEM_CONFORMER_ID>
02F85A6900000001

> <PUBCHEM_MMFF94_ENERGY>
55.2003

> <PUBCHEM_FEATURE_SELFOVERLAP>
25.46

> <PUBCHEM_SHAPE_FINGERPRINT>
10608611 8 18341891917849767648
10616163 171 18341050812845563726
12107183 9 17832702375009794082
12173636 292 18342731935969289927
12236239 1 18334853922667128554
12251169 10 18408601440027608478
12390115 104 17987539043103369665
13167823 11 18409446981607188850
13583140 156 17459190694653455865
14144814 61 18410009931549839810
14415576 193 18411421709122953246
14739800 52 18128239272886638536
14897335 6 18410009961793945894
15042514 8 18268993253615929423
15196674 1 18409729573116770597
15239154 128 18410013243054131412
15342168 16 17314800800485094524
15442244 35 18337388228249656010
15536298 74 18411699894202200798
15669948 3 18201151165061117911
17492 89 18410293605471548706
17834072 32 18266459798241474781
1813 80 17314512518471080894
18186145 218 17967527969900306686
19050596 39 18335135414739253970
19422 9 18408039606691889666
20510252 161 18201725041843460715
20715895 44 17977378331423446997
21267235 1 18410018732117463146
21501502 16 18410006663306632782
21524375 3 18341891853462317831
21652331 79 18409450314491209021
2255824 54 18113616781727906770
22854114 111 18259984886002560742
23366157 5 18120099385651705271
23402539 116 18271796931009256703
23402655 69 18410576210551152636
23463225 33 18409445852020155990
23559900 14 18059014965383260854
245318 6 16666004389561937988
2838139 119 17315610939039806861
335352 9 18194964041701974862
3545911 37 18408324414747597934
4214541 1 18410572859959768328
474 4 17677616530827549716
5104073 3 18408040723314542842
633830 44 18412264999701996270
69090 78 18411695487133452799
7097593 13 18044362838787079466
7364860 26 18341050718820324870
77779 3 18409449189183260802
9709674 26 18412831278376787254
9981440 41 17541940236371649312

> <PUBCHEM_SHAPE_MULTIPOLES>
339
8.98
2.22
0.71
1.56
0.55
-0.01
2.7
0.02
0.04
-0.04
0.15
0
-1.1

> <PUBCHEM_SHAPE_SELFOVERLAP>
756.11

> <PUBCHEM_SHAPE_VOLUME>
184

> <PUBCHEM_COORDINATE_TYPE>
2
5
10

$$$$
