18870913
  -OEChem-10052120443D

 26 27  0     0  0  0  0  0  0999 V2000
    4.0819    0.9543   -0.1416 O   0  0  0  0  0  0  0  0  0  0  0  0
    1.2674    1.6668   -0.2440 N   0  0  0  0  0  0  0  0  0  0  0  0
   -0.0757    1.7099   -0.2603 N   0  0  0  0  0  0  0  0  0  0  0  0
    3.5222   -1.2438    0.2205 N   0  0  0  0  0  0  0  0  0  0  0  0
   -0.4224    0.4347   -0.0661 C   0  0  0  0  0  0  0  0  0  0  0  0
   -1.8055    0.0525   -0.0171 C   0  0  0  0  0  0  0  0  0  0  0  0
    1.7764    0.4166   -0.0478 C   0  0  0  0  0  0  0  0  0  0  0  0
    0.6907   -0.4160    0.0731 C   0  0  0  0  0  0  0  0  0  0  0  0
   -2.1924   -1.2211   -0.4344 C   0  0  0  0  0  0  0  0  0  0  0  0
   -2.7624    0.9546    0.4480 C   0  0  0  0  0  0  0  0  0  0  0  0
    3.1675    0.1066    0.0096 C   0  0  0  0  0  0  0  0  0  0  0  0
   -3.5361   -1.5923   -0.3871 C   0  0  0  0  0  0  0  0  0  0  0  0
   -4.1060    0.5833    0.4955 C   0  0  0  0  0  0  0  0  0  0  0  0
   -4.4929   -0.6902    0.0780 C   0  0  0  0  0  0  0  0  0  0  0  0
    4.8873   -1.7159    0.2737 C   0  0  0  0  0  0  0  0  0  0  0  0
    0.6978   -1.4832    0.2440 H   0  0  0  0  0  0  0  0  0  0  0  0
    1.7754    2.5329   -0.3739 H   0  0  0  0  0  0  0  0  0  0  0  0
   -1.4726   -1.9430   -0.8120 H   0  0  0  0  0  0  0  0  0  0  0  0
   -2.4913    1.9512    0.7884 H   0  0  0  0  0  0  0  0  0  0  0  0
   -3.8382   -2.5829   -0.7144 H   0  0  0  0  0  0  0  0  0  0  0  0
   -4.8511    1.2847    0.8593 H   0  0  0  0  0  0  0  0  0  0  0  0
   -5.5391   -0.9792    0.1148 H   0  0  0  0  0  0  0  0  0  0  0  0
    2.7938   -1.9430    0.3201 H   0  0  0  0  0  0  0  0  0  0  0  0
    5.3129   -1.6696   -0.7320 H   0  0  0  0  0  0  0  0  0  0  0  0
    4.8895   -2.7465    0.6354 H   0  0  0  0  0  0  0  0  0  0  0  0
    5.4686   -1.0788    0.9451 H   0  0  0  0  0  0  0  0  0  0  0  0
  1 11  2  0  0  0  0
  2  3  1  0  0  0  0
  2  7  1  0  0  0  0
  2 17  1  0  0  0  0
  3  5  2  0  0  0  0
  4 11  1  0  0  0  0
  4 15  1  0  0  0  0
  4 23  1  0  0  0  0
  5  6  1  0  0  0  0
  5  8  1  0  0  0  0
  6  9  2  0  0  0  0
  6 10  1  0  0  0  0
  7  8  2  0  0  0  0
  7 11  1  0  0  0  0
  8 16  1  0  0  0  0
  9 12  1  0  0  0  0
  9 18  1  0  0  0  0
 10 13  2  0  0  0  0
 10 19  1  0  0  0  0
 12 14  2  0  0  0  0
 12 20  1  0  0  0  0
 13 14  1  0  0  0  0
 13 21  1  0  0  0  0
 14 22  1  0  0  0  0
 15 24  1  0  0  0  0
 15 25  1  0  0  0  0
 15 26  1  0  0  0  0
M  END
> <PUBCHEM_COMPOUND_CID>
18870913

> <PUBCHEM_CONFORMER_RMSD>
0.6

> <PUBCHEM_CONFORMER_DIVERSEORDER>
1
8
7
4
2
6
5
3

> <PUBCHEM_MMFF94_PARTIAL_CHARGES>
23
1 -0.57
10 -0.15
11 0.71
12 -0.15
13 -0.15
14 -0.15
15 0.3
16 0.15
17 0.27
18 0.15
19 0.15
2 0.3
20 0.15
21 0.15
22 0.15
23 0.37
3 -0.71
4 -0.73
5 0.23
6 0.05
7 -0.24
8 -0.15
9 -0.15

> <PUBCHEM_EFFECTIVE_ROTOR_COUNT>
3

> <PUBCHEM_PHARMACOPHORE_FEATURES>
6
1 1 acceptor
1 2 donor
1 3 acceptor
1 4 donor
5 2 3 5 7 8 rings
6 6 9 10 12 13 14 rings

> <PUBCHEM_HEAVY_ATOM_COUNT>
15

> <PUBCHEM_ATOM_DEF_STEREO_COUNT>
0

> <PUBCHEM_ATOM_UDEF_STEREO_COUNT>
0

> <PUBCHEM_BOND_DEF_STEREO_COUNT>
0

> <PUBCHEM_BOND_UDEF_STEREO_COUNT>
0

> <PUBCHEM_ISOTOPIC_ATOM_COUNT>
0

> <PUBCHEM_COMPONENT_COUNT>
1

> <PUBCHEM_CACTVS_TAUTO_COUNT>
5

> <PUBCHEM_CONFORMER_ID>
011FF28100000001

> <PUBCHEM_MMFF94_ENERGY>
26.6735

> <PUBCHEM_FEATURE_SELFOVERLAP>
30.446

> <PUBCHEM_SHAPE_FINGERPRINT>
10062212 137 18343298180479475951
10465860 250 17418373584355823457
10616163 171 18198345245778751815
11046707 91 18411417289095190370
11543360 7 14201409303950029058
11769659 78 18341327868147231238
12032990 46 18335140886158226352
12251169 10 18342741840438239269
12555020 224 18410281524429736735
13167823 11 18411418414503521306
13288520 33 18411139100143143990
13675066 3 18261114084138565617
13690532 89 18410011039830698203
13760787 5 18113343011130870533
14144814 61 18412265051541881009
14965852 173 18341893039031352183
15196674 1 18410855468755253507
15242433 33 18409169930493993086
15375462 189 18260544502565657554
15442244 35 18411703179330222145
15536298 74 18413669132243540584
17804303 29 18273217499547039697
17834072 33 18411421743493299508
1813 80 17895204251082817462
18186145 218 16226051106342883428
19141452 34 18342175548995136423
19422 9 18410014350949712156
200 152 18201993370331473175
20279233 1 15913335706100296917
20281475 54 18409447015929627310
20645477 70 18408040697956636566
21267235 1 18410301293420245347
21501925 9 18340481261468788360
221490 88 18117284867748886099
22485316 2 18410572898598656252
2255824 54 18188775079690861268
22646028 1 18413387648492421795
22646028 28 18409728460873527042
22854114 59 11743840261350475362
23402539 116 17917705791416791541
23463225 33 18411420617715917943
23559900 14 18272927237231012440
42 15 18413390925378369403
4214541 1 18412263900227161425
5104073 3 18342177777787543867
559249 180 18337104545470084987
573450 72 18272930505653469915
633830 44 17167865257224558820
7364860 26 18126284383297007136
77779 3 18411983580533141960
83771 10 18335419054152595908
9981440 41 17256523548623901785

> <PUBCHEM_SHAPE_MULTIPOLES>
287.88
9.54
1.69
0.67
4.04
0.13
-0.01
3.74
-0.95
0.46
0.09
-0.15
0.02
-0.67

> <PUBCHEM_SHAPE_SELFOVERLAP>
619.773

> <PUBCHEM_SHAPE_VOLUME>
159.6

> <PUBCHEM_COORDINATE_TYPE>
2
5
10

$$$$
