49830496
  -OEChem-10052115193D

 40 42  0     0  0  0  0  0  0999 V2000
    5.8992   -0.8360   -1.9516 F   0  0  0  0  0  0  0  0  0  0  0  0
    1.0182    3.6264    1.2976 O   0  0  0  0  0  0  0  0  0  0  0  0
    1.1316    0.4104    0.1309 N   0  0  0  0  0  0  0  0  0  0  0  0
    1.0803    3.7147   -0.9930 N   0  0  0  0  0  0  0  0  0  0  0  0
   -5.7240   -2.4488   -0.1844 N   0  0  0  0  0  0  0  0  0  0  0  0
   -0.2034    0.8716    0.1038 C   0  0  0  0  0  0  0  0  0  0  0  0
    1.4725   -0.9768    0.0954 C   0  0  0  0  0  0  0  0  0  0  0  0
   -2.5667    0.3774    0.0113 C   0  0  0  0  0  0  0  0  0  0  0  0
   -0.4902    2.2362    0.1401 C   0  0  0  0  0  0  0  0  0  0  0  0
   -1.2416   -0.0577    0.0395 C   0  0  0  0  0  0  0  0  0  0  0  0
    2.9635   -1.1554    0.1736 C   0  0  0  0  0  0  0  0  0  0  0  0
   -2.8534    1.7420    0.0475 C   0  0  0  0  0  0  0  0  0  0  0  0
   -1.8152    2.6714    0.1121 C   0  0  0  0  0  0  0  0  0  0  0  0
   -3.6438   -0.5861   -0.0556 C   0  0  0  0  0  0  0  0  0  0  0  0
    3.7553   -0.9078   -0.9477 C   0  0  0  0  0  0  0  0  0  0  0  0
    3.5547   -1.5687    1.3675 C   0  0  0  0  0  0  0  0  0  0  0  0
    0.5712    3.2327    0.2077 C   0  0  0  0  0  0  0  0  0  0  0  0
   -4.8390   -0.2555   -0.6849 C   0  0  0  0  0  0  0  0  0  0  0  0
   -3.4877   -1.8471    0.5093 C   0  0  0  0  0  0  0  0  0  0  0  0
    5.1384   -1.0735   -0.8750 C   0  0  0  0  0  0  0  0  0  0  0  0
    4.9378   -1.7345    1.4401 C   0  0  0  0  0  0  0  0  0  0  0  0
    5.7297   -1.4869    0.3188 C   0  0  0  0  0  0  0  0  0  0  0  0
   -5.8390   -1.2137   -0.7219 C   0  0  0  0  0  0  0  0  0  0  0  0
   -4.5482   -2.7341    0.4188 C   0  0  0  0  0  0  0  0  0  0  0  0
    1.0055   -1.5158    0.9296 H   0  0  0  0  0  0  0  0  0  0  0  0
    1.1200   -1.4474   -0.8317 H   0  0  0  0  0  0  0  0  0  0  0  0
    1.8678    1.1056    0.1807 H   0  0  0  0  0  0  0  0  0  0  0  0
   -1.0208   -1.1179   -0.0269 H   0  0  0  0  0  0  0  0  0  0  0  0
   -3.8698    2.1260    0.0572 H   0  0  0  0  0  0  0  0  0  0  0  0
   -2.0515    3.7320    0.1467 H   0  0  0  0  0  0  0  0  0  0  0  0
    3.3063   -0.5852   -1.8833 H   0  0  0  0  0  0  0  0  0  0  0  0
    2.9508   -1.7631    2.2498 H   0  0  0  0  0  0  0  0  0  0  0  0
   -5.0168    0.6979   -1.1702 H   0  0  0  0  0  0  0  0  0  0  0  0
   -2.5964   -2.1605    1.0417 H   0  0  0  0  0  0  0  0  0  0  0  0
    5.3984   -2.0559    2.3697 H   0  0  0  0  0  0  0  0  0  0  0  0
    6.8065   -1.6157    0.3750 H   0  0  0  0  0  0  0  0  0  0  0  0
   -6.7877   -1.0085   -1.2070 H   0  0  0  0  0  0  0  0  0  0  0  0
   -4.4803   -3.7276    0.8499 H   0  0  0  0  0  0  0  0  0  0  0  0
    1.8243    4.4043   -1.0050 H   0  0  0  0  0  0  0  0  0  0  0  0
    0.7321    3.3976   -1.8922 H   0  0  0  0  0  0  0  0  0  0  0  0
  1 20  1  0  0  0  0
  2 17  2  0  0  0  0
  3  6  1  0  0  0  0
  3  7  1  0  0  0  0
  3 27  1  0  0  0  0
  4 17  1  0  0  0  0
  4 39  1  0  0  0  0
  4 40  1  0  0  0  0
  5 23  2  0  0  0  0
  5 24  1  0  0  0  0
  6  9  2  0  0  0  0
  6 10  1  0  0  0  0
  7 11  1  0  0  0  0
  7 25  1  0  0  0  0
  7 26  1  0  0  0  0
  8 10  2  0  0  0  0
  8 12  1  0  0  0  0
  8 14  1  0  0  0  0
  9 13  1  0  0  0  0
  9 17  1  0  0  0  0
 10 28  1  0  0  0  0
 11 15  2  0  0  0  0
 11 16  1  0  0  0  0
 12 13  2  0  0  0  0
 12 29  1  0  0  0  0
 13 30  1  0  0  0  0
 14 18  2  0  0  0  0
 14 19  1  0  0  0  0
 15 20  1  0  0  0  0
 15 31  1  0  0  0  0
 16 21  2  0  0  0  0
 16 32  1  0  0  0  0
 18 23  1  0  0  0  0
 18 33  1  0  0  0  0
 19 24  2  0  0  0  0
 19 34  1  0  0  0  0
 20 22  2  0  0  0  0
 21 22  1  0  0  0  0
 21 35  1  0  0  0  0
 22 36  1  0  0  0  0
 23 37  1  0  0  0  0
 24 38  1  0  0  0  0
M  END
> <PUBCHEM_COMPOUND_CID>
49830496

> <PUBCHEM_CONFORMER_RMSD>
0.8

> <PUBCHEM_CONFORMER_DIVERSEORDER>
1
47
36
10
48
45
40
39
44
38
43
32
49
19
29
42
37
41
16
30
35
46
26
21
23
27
13
8
15
31
28
11
24
25
6
14
20
9
5
12
17
7
33
3
2
18
22
34
4

> <PUBCHEM_MMFF94_PARTIAL_CHARGES>
36
1 -0.19
10 -0.15
11 -0.14
12 -0.15
13 -0.15
15 -0.15
16 -0.15
17 0.54
18 -0.15
19 -0.15
2 -0.57
20 0.19
21 -0.15
22 -0.15
23 0.16
24 0.16
27 0.4
28 0.15
29 0.15
3 -0.87
30 0.15
31 0.15
32 0.15
33 0.15
34 0.15
35 0.15
36 0.15
37 0.15
38 0.15
39 0.37
4 -0.8
40 0.37
5 -0.62
6 0.1
7 0.51
9 0.09

> <PUBCHEM_EFFECTIVE_ROTOR_COUNT>
5

> <PUBCHEM_PHARMACOPHORE_FEATURES>
8
1 2 acceptor
1 3 cation
1 3 donor
1 4 donor
1 5 acceptor
6 11 15 16 20 21 22 rings
6 5 14 18 19 23 24 rings
6 6 8 9 10 12 13 rings

> <PUBCHEM_HEAVY_ATOM_COUNT>
24

> <PUBCHEM_ATOM_DEF_STEREO_COUNT>
0

> <PUBCHEM_ATOM_UDEF_STEREO_COUNT>
0

> <PUBCHEM_BOND_DEF_STEREO_COUNT>
0

> <PUBCHEM_BOND_UDEF_STEREO_COUNT>
0

> <PUBCHEM_ISOTOPIC_ATOM_COUNT>
0

> <PUBCHEM_COMPONENT_COUNT>
1

> <PUBCHEM_CACTVS_TAUTO_COUNT>
7

> <PUBCHEM_CONFORMER_ID>
02F85A6000000001

> <PUBCHEM_MMFF94_ENERGY>
88.8884

> <PUBCHEM_FEATURE_SELFOVERLAP>
40.596

> <PUBCHEM_SHAPE_FINGERPRINT>
10050765 1 18411135879414148233
10411042 1 18411134753657118563
10622 236 17389363945300250554
11045515 52 17968376749700709820
11056379 131 18195533584372101540
11204353 107 17973734867885382554
11265709 11 18410575076500542321
11963148 33 17545595017191126231
12166972 35 17822013107764291510
12342043 65 17416976024206394830
12516196 113 18412823594590221042
12553582 1 18409454661182729259
12788726 201 18334580101185379514
13540713 4 18264749104599634077
13540713 5 18270135612058899097
13631057 29 18409729526352496722
13673619 4 17275114886475185222
13782708 43 17559964221369520502
14117953 113 18273777151731021711
14866123 147 18339643314209279673
15250474 111 18043242440812717866
15352361 1 18410289216320323211
15927050 60 17692813001135539262
17138139 8 17822003263357137594
17492 89 18050564346972878267
17686467 74 18411130339190367960
1813 80 18272938219140310038
18222031 100 18343862225332942646
19841028 212 18051409875994961739
20567600 70 18335977674710703754
21033648 29 17131253684957734835
2297311 6 18272095954974548710
2303208 19 17346321453959901398
23557571 272 18057894541311521516
23559900 14 18336817710790751473
238078 22 18338522932628608264
249999 5 18054502779594214776
25147074 1 18341068375431015225
3004659 81 18114178648595273327
314173 85 18272652329048242099
329604 57 18407479964079505678
335352 9 18410007716364742573
3421961 26 18339637975026711001
4280585 95 18334565841661393185
5104073 3 18272647943786471841
5486654 36 18336839640946311545
621550 5 17703792475337781352
6371380 46 18335977594139948889
6669772 16 17836936963962372428
6823239 73 18339065056042765592
7970288 3 18411132528522233167
8863177 126 17898019164507736947
9709674 26 18045496680657930547

> <PUBCHEM_SHAPE_MULTIPOLES>
465.82
13.63
3.96
1.11
4.12
4.16
-0.1
-14.47
-2.56
-1.55
0.65
1.58
-0.14
-0.29

> <PUBCHEM_SHAPE_SELFOVERLAP>
1020.475

> <PUBCHEM_SHAPE_VOLUME>
251.9

> <PUBCHEM_COORDINATE_TYPE>
2
5
10

$$$$
