136027079
  -OEChem-10052115193D

 45 48  0     0  0  0  0  0  0999 V2000
    2.8782    1.7704   -0.3008 O   0  0  0  0  0  0  0  0  0  0  0  0
   -6.1409    1.6327   -1.2660 O   0  0  0  0  0  0  0  0  0  0  0  0
   -2.3458   -2.3311    0.0628 N   0  0  0  0  0  0  0  0  0  0  0  0
   -5.0068   -0.3454   -0.9140 N   0  0  0  0  0  0  0  0  0  0  0  0
   -3.5950   -2.2726   -0.4456 N   0  0  0  0  0  0  0  0  0  0  0  0
   -2.7667   -0.2037    0.0115 C   0  0  0  0  0  0  0  0  0  0  0  0
   -1.8008   -1.1099    0.3555 C   0  0  0  0  0  0  0  0  0  0  0  0
   -0.4732   -0.9913    0.9051 C   0  0  0  0  0  0  0  0  0  0  0  0
   -3.8476   -0.9618   -0.4743 C   0  0  0  0  0  0  0  0  0  0  0  0
   -2.8385    1.2127    0.0627 C   0  0  0  0  0  0  0  0  0  0  0  0
    1.9101   -0.7538    0.5867 C   0  0  0  0  0  0  0  0  0  0  0  0
    0.6259   -0.8697    0.0547 C   0  0  0  0  0  0  0  0  0  0  0  0
    3.0503   -0.6272   -0.2949 C   0  0  0  0  0  0  0  0  0  0  0  0
   -0.2878   -0.9968    2.2878 C   0  0  0  0  0  0  0  0  0  0  0  0
   -3.9595    1.8270   -0.3614 C   0  0  0  0  0  0  0  0  0  0  0  0
    2.0955   -0.7593    1.9693 C   0  0  0  0  0  0  0  0  0  0  0  0
   -1.6600    1.9696    0.5887 C   0  0  0  0  0  0  0  0  0  0  0  0
   -5.1329    1.0384   -0.8867 C   0  0  0  0  0  0  0  0  0  0  0  0
    0.9964   -0.8806    2.8198 C   0  0  0  0  0  0  0  0  0  0  0  0
    3.4989    0.6269   -0.7093 C   0  0  0  0  0  0  0  0  0  0  0  0
    3.7040   -1.7803   -0.7294 C   0  0  0  0  0  0  0  0  0  0  0  0
    4.6011    0.7280   -1.5582 C   0  0  0  0  0  0  0  0  0  0  0  0
    4.8065   -1.6793   -1.5781 C   0  0  0  0  0  0  0  0  0  0  0  0
    5.2549   -0.4251   -1.9927 C   0  0  0  0  0  0  0  0  0  0  0  0
    3.6659    2.7080    0.4294 C   0  0  0  0  0  0  0  0  0  0  0  0
    2.7678    3.4741    1.3773 C   0  0  0  0  0  0  0  0  0  0  0  0
    0.4804   -0.8640   -1.0245 H   0  0  0  0  0  0  0  0  0  0  0  0
   -1.9246   -3.2440    0.1831 H   0  0  0  0  0  0  0  0  0  0  0  0
   -1.1340   -1.0895    2.9644 H   0  0  0  0  0  0  0  0  0  0  0  0
   -5.7611   -0.9314   -1.2563 H   0  0  0  0  0  0  0  0  0  0  0  0
   -4.0664    2.9064   -0.3437 H   0  0  0  0  0  0  0  0  0  0  0  0
    3.0896   -0.6682    2.4005 H   0  0  0  0  0  0  0  0  0  0  0  0
   -1.4473    1.7011    1.6282 H   0  0  0  0  0  0  0  0  0  0  0  0
   -1.8424    3.0506    0.5749 H   0  0  0  0  0  0  0  0  0  0  0  0
   -0.7697    1.7946   -0.0235 H   0  0  0  0  0  0  0  0  0  0  0  0
    1.1406   -0.8838    3.8962 H   0  0  0  0  0  0  0  0  0  0  0  0
    3.3685   -2.7665   -0.4166 H   0  0  0  0  0  0  0  0  0  0  0  0
    4.9572    1.6968   -1.8978 H   0  0  0  0  0  0  0  0  0  0  0  0
    5.3154   -2.5770   -1.9168 H   0  0  0  0  0  0  0  0  0  0  0  0
    6.1118   -0.3467   -2.6554 H   0  0  0  0  0  0  0  0  0  0  0  0
    4.4483    2.1997    1.0068 H   0  0  0  0  0  0  0  0  0  0  0  0
    4.1393    3.4007   -0.2748 H   0  0  0  0  0  0  0  0  0  0  0  0
    1.9742    3.9887    0.8255 H   0  0  0  0  0  0  0  0  0  0  0  0
    2.2757    2.7912    2.0778 H   0  0  0  0  0  0  0  0  0  0  0  0
    3.3387    4.2129    1.9464 H   0  0  0  0  0  0  0  0  0  0  0  0
  1 20  1  0  0  0  0
  1 25  1  0  0  0  0
  2 18  2  0  0  0  0
  3  5  1  0  0  0  0
  3  7  1  0  0  0  0
  3 28  1  0  0  0  0
  4  9  1  0  0  0  0
  4 18  1  0  0  0  0
  4 30  1  0  0  0  0
  5  9  2  0  0  0  0
  6  7  2  0  0  0  0
  6  9  1  0  0  0  0
  6 10  1  0  0  0  0
  7  8  1  0  0  0  0
  8 12  1  0  0  0  0
  8 14  2  0  0  0  0
 10 15  2  0  0  0  0
 10 17  1  0  0  0  0
 11 12  2  0  0  0  0
 11 13  1  0  0  0  0
 11 16  1  0  0  0  0
 12 27  1  0  0  0  0
 13 20  1  0  0  0  0
 13 21  2  0  0  0  0
 14 19  1  0  0  0  0
 14 29  1  0  0  0  0
 15 18  1  0  0  0  0
 15 31  1  0  0  0  0
 16 19  2  0  0  0  0
 16 32  1  0  0  0  0
 17 33  1  0  0  0  0
 17 34  1  0  0  0  0
 17 35  1  0  0  0  0
 19 36  1  0  0  0  0
 20 22  2  0  0  0  0
 21 23  1  0  0  0  0
 21 37  1  0  0  0  0
 22 24  1  0  0  0  0
 22 38  1  0  0  0  0
 23 24  2  0  0  0  0
 23 39  1  0  0  0  0
 24 40  1  0  0  0  0
 25 26  1  0  0  0  0
 25 41  1  0  0  0  0
 25 42  1  0  0  0  0
 26 43  1  0  0  0  0
 26 44  1  0  0  0  0
 26 45  1  0  0  0  0
M  END
> <PUBCHEM_COMPOUND_CID>
136027079

> <PUBCHEM_CONFORMER_RMSD>
0.8

> <PUBCHEM_CONFORMER_DIVERSEORDER>
1
19
25
12
6
10
7
18
17
9
23
5
20
16
13
24
8
15
4
14
22
2
21
11
3

> <PUBCHEM_MMFF94_PARTIAL_CHARGES>
34
1 -0.36
10 -0.09
12 -0.15
14 -0.15
15 -0.14
16 -0.15
17 0.14
18 0.62
19 -0.15
2 -0.57
20 0.08
21 -0.15
22 -0.15
23 -0.15
24 -0.15
25 0.28
27 0.15
28 0.27
29 0.15
3 0.3
30 0.37
31 0.15
32 0.15
36 0.15
37 0.15
38 0.15
39 0.15
4 -0.49
40 0.15
5 -0.71
6 -0.05
7 -0.2
8 0.05
9 0.35

> <PUBCHEM_EFFECTIVE_ROTOR_COUNT>
4

> <PUBCHEM_PHARMACOPHORE_FEATURES>
8
1 1 acceptor
1 2 acceptor
1 3 donor
1 4 donor
5 3 5 6 7 9 rings
6 13 20 21 22 23 24 rings
6 4 6 9 10 15 18 rings
6 8 11 12 14 16 19 rings

> <PUBCHEM_HEAVY_ATOM_COUNT>
26

> <PUBCHEM_ATOM_DEF_STEREO_COUNT>
0

> <PUBCHEM_ATOM_UDEF_STEREO_COUNT>
0

> <PUBCHEM_BOND_DEF_STEREO_COUNT>
0

> <PUBCHEM_BOND_UDEF_STEREO_COUNT>
0

> <PUBCHEM_ISOTOPIC_ATOM_COUNT>
0

> <PUBCHEM_COMPONENT_COUNT>
1

> <PUBCHEM_CACTVS_TAUTO_COUNT>
-1

> <PUBCHEM_CONFORMER_ID>
081B9BC700000001

> <PUBCHEM_MMFF94_ENERGY>
80.7671

> <PUBCHEM_FEATURE_SELFOVERLAP>
40.713

> <PUBCHEM_SHAPE_FINGERPRINT>
10498660 4 18409726274882736617
11578080 2 17274826797306829280
12166972 35 16845576383627502068
12236239 1 17749389226805158615
12363563 72 15123513584049876898
12596602 18 14057011515711418493
13782708 43 15625639718902134933
14251757 17 18342176717073552672
14840074 17 17749396902101686333
14848178 96 17603589646765290132
15183329 4 18337680694053322566
15188451 53 11599718442235517911
15210252 30 17240492428989127164
15342168 16 16443351944548096131
15575132 122 17822854148682551445
17349148 13 16271661009342851222
1813 80 13614526268031322882
18222031 100 14117800206559960822
19784866 240 14045733808044512183
20775438 99 17771877645058859743
21033648 29 17822018643697781504
21756936 100 17385736802014969394
221357 26 18341616979671194740
22393880 68 18334852831513287941
23559900 14 18273208694674120346
283562 15 16011304506685214386
34797466 226 18201717418355657437
38570 142 17531823332829696119
46194498 28 18129110076956866630
474 4 17167865278778425743
5252454 2 17750792151786368485
5281201 14 18272939353328180510
57527295 17 18260843587742101706
5895379 119 18269547248282457536
59755656 520 16805613559357811226
633830 44 17530688727282828374
6669772 16 15767786867069158840
960060 61 16917065585524077657
9981440 41 17899129696704492352

> <PUBCHEM_SHAPE_MULTIPOLES>
508.39
12.01
2.86
1.97
5.9
2.05
-1.08
2.29
8.84
-1
-0.49
-1.65
-0.4
1.43

> <PUBCHEM_SHAPE_SELFOVERLAP>
1129.024

> <PUBCHEM_SHAPE_VOLUME>
272.7

> <PUBCHEM_COORDINATE_TYPE>
2
5
10

$$$$
