49830278
  -OEChem-10062121543D

 39 42  0     0  0  0  0  0  0999 V2000
    3.8391   -1.6742    1.0629 F   0  0  0  0  0  0  0  0  0  0  0  0
    3.3728    2.6010   -0.9536 F   0  0  0  0  0  0  0  0  0  0  0  0
    1.3922    1.2778    0.1054 O   0  0  0  0  0  0  0  0  0  0  0  0
   -3.4809   -2.8548   -0.2860 N   0  0  0  0  0  0  0  0  0  0  0  0
   -1.1461   -3.4453   -0.3443 N   0  0  0  0  0  0  0  0  0  0  0  0
    1.6546   -1.0486   -0.1172 N   0  0  0  0  0  0  0  0  0  0  0  0
   -2.0270   -1.1674   -0.1245 C   0  0  0  0  0  0  0  0  0  0  0  0
   -3.3460   -0.6440   -0.0734 C   0  0  0  0  0  0  0  0  0  0  0  0
   -2.1460   -2.5477   -0.2572 C   0  0  0  0  0  0  0  0  0  0  0  0
   -0.7296   -0.6325   -0.0741 C   0  0  0  0  0  0  0  0  0  0  0  0
   -3.7954    0.7121    0.0574 C   0  0  0  0  0  0  0  0  0  0  0  0
   -4.2195   -1.7052   -0.1749 C   0  0  0  0  0  0  0  0  0  0  0  0
    0.3431   -1.5181   -0.1602 C   0  0  0  0  0  0  0  0  0  0  0  0
    0.0800   -2.8751   -0.2904 C   0  0  0  0  0  0  0  0  0  0  0  0
   -4.5866    1.0821    1.1449 C   0  0  0  0  0  0  0  0  0  0  0  0
   -3.4416    1.6604   -0.9022 C   0  0  0  0  0  0  0  0  0  0  0  0
    2.0943    0.2770    0.0088 C   0  0  0  0  0  0  0  0  0  0  0  0
   -5.0243    2.4004    1.2727 C   0  0  0  0  0  0  0  0  0  0  0  0
   -3.8791    2.9787   -0.7745 C   0  0  0  0  0  0  0  0  0  0  0  0
    3.5689    0.4588    0.0534 C   0  0  0  0  0  0  0  0  0  0  0  0
   -4.6706    3.3487    0.3129 C   0  0  0  0  0  0  0  0  0  0  0  0
    4.3794   -0.5434    0.5866 C   0  0  0  0  0  0  0  0  0  0  0  0
    4.1422    1.6312   -0.4387 C   0  0  0  0  0  0  0  0  0  0  0  0
    5.7634   -0.3731    0.6280 C   0  0  0  0  0  0  0  0  0  0  0  0
    5.5260    1.8017   -0.3976 C   0  0  0  0  0  0  0  0  0  0  0  0
    6.3366    0.7995    0.1359 C   0  0  0  0  0  0  0  0  0  0  0  0
   -0.6356    0.4373    0.0308 H   0  0  0  0  0  0  0  0  0  0  0  0
   -5.3002   -1.7533   -0.1807 H   0  0  0  0  0  0  0  0  0  0  0  0
   -3.8618   -3.7864   -0.3759 H   0  0  0  0  0  0  0  0  0  0  0  0
    0.8966   -3.5905   -0.3598 H   0  0  0  0  0  0  0  0  0  0  0  0
   -4.8697    0.3597    1.9069 H   0  0  0  0  0  0  0  0  0  0  0  0
   -2.8285    1.3908   -1.7590 H   0  0  0  0  0  0  0  0  0  0  0  0
    2.3643   -1.7725   -0.2015 H   0  0  0  0  0  0  0  0  0  0  0  0
   -5.6395    2.6888    2.1200 H   0  0  0  0  0  0  0  0  0  0  0  0
   -3.6043    3.7171   -1.5221 H   0  0  0  0  0  0  0  0  0  0  0  0
   -5.0112    4.3752    0.4124 H   0  0  0  0  0  0  0  0  0  0  0  0
    6.3941   -1.1534    1.0433 H   0  0  0  0  0  0  0  0  0  0  0  0
    5.9721    2.7146   -0.7808 H   0  0  0  0  0  0  0  0  0  0  0  0
    7.4140    0.9322    0.1680 H   0  0  0  0  0  0  0  0  0  0  0  0
  1 22  1  0  0  0  0
  2 23  1  0  0  0  0
  3 17  2  0  0  0  0
  4  9  1  0  0  0  0
  4 12  1  0  0  0  0
  4 29  1  0  0  0  0
  5  9  1  0  0  0  0
  5 14  2  0  0  0  0
  6 13  1  0  0  0  0
  6 17  1  0  0  0  0
  6 33  1  0  0  0  0
  7  8  1  0  0  0  0
  7  9  2  0  0  0  0
  7 10  1  0  0  0  0
  8 11  1  0  0  0  0
  8 12  2  0  0  0  0
 10 13  2  0  0  0  0
 10 27  1  0  0  0  0
 11 15  2  0  0  0  0
 11 16  1  0  0  0  0
 12 28  1  0  0  0  0
 13 14  1  0  0  0  0
 14 30  1  0  0  0  0
 15 18  1  0  0  0  0
 15 31  1  0  0  0  0
 16 19  2  0  0  0  0
 16 32  1  0  0  0  0
 17 20  1  0  0  0  0
 18 21  2  0  0  0  0
 18 34  1  0  0  0  0
 19 21  1  0  0  0  0
 19 35  1  0  0  0  0
 20 22  2  0  0  0  0
 20 23  1  0  0  0  0
 21 36  1  0  0  0  0
 22 24  1  0  0  0  0
 23 25  2  0  0  0  0
 24 26  2  0  0  0  0
 24 37  1  0  0  0  0
 25 26  1  0  0  0  0
 25 38  1  0  0  0  0
 26 39  1  0  0  0  0
M  END
> <PUBCHEM_COMPOUND_CID>
49830278

> <PUBCHEM_CONFORMER_RMSD>
0.8

> <PUBCHEM_CONFORMER_DIVERSEORDER>
2
3
7
11
9
6
5
10
8
1
4

> <PUBCHEM_MMFF94_PARTIAL_CHARGES>
38
1 -0.19
10 -0.15
11 0.05
12 -0.3
13 0.12
14 0.16
15 -0.15
16 -0.15
17 0.54
18 -0.15
19 -0.15
2 -0.19
20 0.09
21 -0.15
22 0.19
23 0.19
24 -0.15
25 -0.15
26 -0.15
27 0.15
28 0.15
29 0.27
3 -0.57
30 0.15
31 0.15
32 0.15
33 0.37
34 0.15
35 0.15
36 0.15
37 0.15
38 0.15
39 0.15
4 0.03
5 -0.57
6 -0.55
8 -0.05
9 0.11

> <PUBCHEM_EFFECTIVE_ROTOR_COUNT>
4

> <PUBCHEM_PHARMACOPHORE_FEATURES>
9
1 3 acceptor
1 4 cation
1 4 donor
1 5 acceptor
1 6 donor
5 4 7 8 9 12 rings
6 11 15 16 18 19 21 rings
6 20 22 23 24 25 26 rings
6 5 7 9 10 13 14 rings

> <PUBCHEM_HEAVY_ATOM_COUNT>
26

> <PUBCHEM_ATOM_DEF_STEREO_COUNT>
0

> <PUBCHEM_ATOM_UDEF_STEREO_COUNT>
0

> <PUBCHEM_BOND_DEF_STEREO_COUNT>
0

> <PUBCHEM_BOND_UDEF_STEREO_COUNT>
0

> <PUBCHEM_ISOTOPIC_ATOM_COUNT>
0

> <PUBCHEM_COMPONENT_COUNT>
1

> <PUBCHEM_CACTVS_TAUTO_COUNT>
4

> <PUBCHEM_CONFORMER_ID>
02F8598600000002

> <PUBCHEM_MMFF94_ENERGY>
70.7382

> <PUBCHEM_FEATURE_SELFOVERLAP>
45.784

> <PUBCHEM_SHAPE_FINGERPRINT>
10165383 225 18272095968376630025
10411042 1 17835801177209826903
10595046 47 18264204884697357990
10670039 82 18411979204024926756
11101153 10 18194962074575447501
12107183 9 18191859029645266618
12390115 104 18342750597892308555
12422481 6 17969215647186844420
12978246 48 18337393742803632537
13073987 5 18337105769857478962
13785724 45 17833828266881700658
14251764 75 17983868783243642633
14294032 229 18060420227559531695
14347329 18 18341888589223746608
14466204 15 18411976949346373312
14713325 29 18337396032379657291
14790565 3 18409168831314603110
14950920 106 16950289524191529009
15021287 119 17458060478478840052
15183329 4 18334853935752328196
17844677 252 18337114578740119492
19246450 95 17537688046827909938
20715895 44 18195806267350628561
21033648 29 17560504192899163818
21033650 10 18192737694128054502
21236236 1 18412260662127502605
21279426 13 18200882768887441262
21421861 104 17896307036024468194
2303208 19 13407069272348277672
283562 15 18410570730516612071
350125 39 18412826919585556523
4015057 19 12319442338302314918
4144715 1 18408612469852414586
4197921 191 18188491388553249964
4214541 1 18410008883741258942
5104073 3 18261384581695612186
5283173 99 18270961349295792720
5372103 7 17388516248264402957
6327066 14 18264482902473750837
6328613 192 18334860567409089468
636775 72 18124030402727041416
6371009 1 18339065082118523941
6700243 42 17409407230055906735
7226269 152 17988924444628275144
7808743 9 18411699876874632289
9981440 41 18409733941705724843

> <PUBCHEM_SHAPE_MULTIPOLES>
499.71
14.41
4.01
0.89
13.42
0.51
-0.1
-10.05
-2.13
-4.87
0.54
-0.37
-0.35
-1.38

> <PUBCHEM_SHAPE_SELFOVERLAP>
1126.976

> <PUBCHEM_SHAPE_VOLUME>
261.9

> <PUBCHEM_COORDINATE_TYPE>
2
5
10

$$$$
