44353100
  -OEChem-10052115143D

 67 74  0     1  0  0  0  0  0999 V2000
    1.0343   -1.4705   -2.3292 O   0  0  0  0  0  0  0  0  0  0  0  0
    3.8460   -1.3596    0.0891 O   0  0  0  0  0  0  0  0  0  0  0  0
   -4.5921    2.4889    0.3136 O   0  0  0  0  0  0  0  0  0  0  0  0
   -0.3742   -2.2654    4.2818 O   0  0  0  0  0  0  0  0  0  0  0  0
   -0.6678   -0.4165    2.9941 O   0  0  0  0  0  0  0  0  0  0  0  0
    1.5761    0.3415   -0.9176 N   0  0  0  0  0  0  0  0  0  0  0  0
   -0.9145   -1.3227   -1.0844 N   0  0  0  0  0  0  0  0  0  0  0  0
    1.3172   -1.8561    1.3921 N   0  0  1  0  0  0  0  0  0  0  0  0
   -2.9206    4.0932    0.6406 N   0  0  0  0  0  0  0  0  0  0  0  0
    2.0894   -0.8558   -1.5864 C   0  0  1  0  0  0  0  0  0  0  0  0
    2.7663   -1.9014   -0.6578 C   0  0  2  0  0  0  0  0  0  0  0  0
    1.8055   -2.6533    0.2691 C   0  0  2  0  0  0  0  0  0  0  0  0
    0.0927   -2.2160   -1.5920 C   0  0  2  0  0  0  0  0  0  0  0  0
    0.6655   -3.2089   -0.5759 C   0  0  0  0  0  0  0  0  0  0  0  0
    0.2925    0.7857   -0.6669 C   0  0  0  0  0  0  0  0  0  0  0  0
   -0.8933   -0.0004   -0.7559 C   0  0  0  0  0  0  0  0  0  0  0  0
    0.0623    2.1395   -0.2116 C   0  0  0  0  0  0  0  0  0  0  0  0
   -2.1298    0.6829   -0.4140 C   0  0  0  0  0  0  0  0  0  0  0  0
    3.0643   -0.4796   -2.7297 C   0  0  0  0  0  0  0  0  0  0  0  0
    2.3271    1.4636   -0.5023 C   0  0  0  0  0  0  0  0  0  0  0  0
   -2.2693   -1.6358   -0.9551 C   0  0  0  0  0  0  0  0  0  0  0  0
    1.4588    2.5359   -0.1323 C   0  0  0  0  0  0  0  0  0  0  0  0
   -1.1351    2.7909    0.0716 C   0  0  0  0  0  0  0  0  0  0  0  0
   -2.2770    2.0165   -0.0464 C   0  0  0  0  0  0  0  0  0  0  0  0
   -3.0122   -0.4785   -0.5772 C   0  0  0  0  0  0  0  0  0  0  0  0
   -1.4793    4.1693    0.5290 C   0  0  0  0  0  0  0  0  0  0  0  0
    0.1018   -2.4485    1.9505 C   0  0  0  0  0  0  0  0  0  0  0  0
    3.7245    1.6615   -0.4236 C   0  0  0  0  0  0  0  0  0  0  0  0
   -3.4288    2.8405    0.3121 C   0  0  0  0  0  0  0  0  0  0  0  0
    2.3480   -1.7388    2.4235 C   0  0  0  0  0  0  0  0  0  0  0  0
   -2.9099   -2.8769   -1.1554 C   0  0  0  0  0  0  0  0  0  0  0  0
    2.0335    3.7690    0.2733 C   0  0  0  0  0  0  0  0  0  0  0  0
   -4.4124   -0.6338   -0.4123 C   0  0  0  0  0  0  0  0  0  0  0  0
    4.8331   -2.3433    0.3711 C   0  0  0  0  0  0  0  0  0  0  0  0
    4.2498    2.8900   -0.0137 C   0  0  0  0  0  0  0  0  0  0  0  0
    3.4150    3.9373    0.3260 C   0  0  0  0  0  0  0  0  0  0  0  0
   -4.2896   -2.9770   -0.9820 C   0  0  0  0  0  0  0  0  0  0  0  0
   -5.0340   -1.8692   -0.6155 C   0  0  0  0  0  0  0  0  0  0  0  0
   -0.3638   -1.5980    3.0999 C   0  0  0  0  0  0  0  0  0  0  0  0
    3.1740   -2.6643   -1.3411 H   0  0  0  0  0  0  0  0  0  0  0  0
    2.3174   -3.5354    0.6779 H   0  0  0  0  0  0  0  0  0  0  0  0
   -0.4189   -2.8154   -2.3552 H   0  0  0  0  0  0  0  0  0  0  0  0
    1.1359   -3.9960   -1.1887 H   0  0  0  0  0  0  0  0  0  0  0  0
   -0.1080   -3.7676   -0.0423 H   0  0  0  0  0  0  0  0  0  0  0  0
    2.6617    0.3399   -3.3377 H   0  0  0  0  0  0  0  0  0  0  0  0
    3.1996   -1.3276   -3.4140 H   0  0  0  0  0  0  0  0  0  0  0  0
    4.0603   -0.1971   -2.3876 H   0  0  0  0  0  0  0  0  0  0  0  0
   -1.0599    4.4003    1.5111 H   0  0  0  0  0  0  0  0  0  0  0  0
   -1.2184    4.9312   -0.2094 H   0  0  0  0  0  0  0  0  0  0  0  0
    0.2700   -3.4747    2.3021 H   0  0  0  0  0  0  0  0  0  0  0  0
   -0.7640   -2.4503    1.2884 H   0  0  0  0  0  0  0  0  0  0  0  0
    4.4285    0.8765   -0.6692 H   0  0  0  0  0  0  0  0  0  0  0  0
    3.1517   -1.0589    2.1407 H   0  0  0  0  0  0  0  0  0  0  0  0
    2.7706   -2.7076    2.7136 H   0  0  0  0  0  0  0  0  0  0  0  0
    1.9777   -1.2724    3.3428 H   0  0  0  0  0  0  0  0  0  0  0  0
   -2.3443   -3.7595   -1.4402 H   0  0  0  0  0  0  0  0  0  0  0  0
    1.3946    4.6010    0.5591 H   0  0  0  0  0  0  0  0  0  0  0  0
   -5.0353    0.2041   -0.1208 H   0  0  0  0  0  0  0  0  0  0  0  0
   -3.5026    4.8728    0.9304 H   0  0  0  0  0  0  0  0  0  0  0  0
    5.6199   -1.8678    0.9637 H   0  0  0  0  0  0  0  0  0  0  0  0
    5.2851   -2.7076   -0.5570 H   0  0  0  0  0  0  0  0  0  0  0  0
    4.4368   -3.1816    0.9483 H   0  0  0  0  0  0  0  0  0  0  0  0
    5.3276    3.0201    0.0372 H   0  0  0  0  0  0  0  0  0  0  0  0
    3.8330    4.8883    0.6426 H   0  0  0  0  0  0  0  0  0  0  0  0
   -4.7821   -3.9333   -1.1357 H   0  0  0  0  0  0  0  0  0  0  0  0
   -6.1086   -1.9583   -0.4817 H   0  0  0  0  0  0  0  0  0  0  0  0
   -0.6612   -1.6910    5.0235 H   0  0  0  0  0  0  0  0  0  0  0  0
  1 10  1  0  0  0  0
  1 13  1  0  0  0  0
  2 11  1  0  0  0  0
  2 34  1  0  0  0  0
  3 29  2  0  0  0  0
  4 39  1  0  0  0  0
  4 67  1  0  0  0  0
  5 39  2  0  0  0  0
  6 10  1  0  0  0  0
  6 15  1  0  0  0  0
  6 20  1  0  0  0  0
  7 13  1  0  0  0  0
  7 16  1  0  0  0  0
  7 21  1  0  0  0  0
  8 12  1  0  0  0  0
  8 27  1  0  0  0  0
  8 30  1  0  0  0  0
  9 26  1  0  0  0  0
  9 29  1  0  0  0  0
  9 59  1  0  0  0  0
 10 11  1  0  0  0  0
 10 19  1  0  0  0  0
 11 12  1  0  0  0  0
 11 40  1  0  0  0  0
 12 14  1  0  0  0  0
 12 41  1  0  0  0  0
 13 14  1  0  0  0  0
 13 42  1  0  0  0  0
 14 43  1  0  0  0  0
 14 44  1  0  0  0  0
 15 16  2  0  0  0  0
 15 17  1  0  0  0  0
 16 18  1  0  0  0  0
 17 22  1  0  0  0  0
 17 23  2  0  0  0  0
 18 24  2  0  0  0  0
 18 25  1  0  0  0  0
 19 45  1  0  0  0  0
 19 46  1  0  0  0  0
 19 47  1  0  0  0  0
 20 22  1  0  0  0  0
 20 28  2  0  0  0  0
 21 25  1  0  0  0  0
 21 31  2  0  0  0  0
 22 32  2  0  0  0  0
 23 24  1  0  0  0  0
 23 26  1  0  0  0  0
 24 29  1  0  0  0  0
 25 33  2  0  0  0  0
 26 48  1  0  0  0  0
 26 49  1  0  0  0  0
 27 39  1  0  0  0  0
 27 50  1  0  0  0  0
 27 51  1  0  0  0  0
 28 35  1  0  0  0  0
 28 52  1  0  0  0  0
 30 53  1  0  0  0  0
 30 54  1  0  0  0  0
 30 55  1  0  0  0  0
 31 37  1  0  0  0  0
 31 56  1  0  0  0  0
 32 36  1  0  0  0  0
 32 57  1  0  0  0  0
 33 38  1  0  0  0  0
 33 58  1  0  0  0  0
 34 60  1  0  0  0  0
 34 61  1  0  0  0  0
 34 62  1  0  0  0  0
 35 36  2  0  0  0  0
 35 63  1  0  0  0  0
 36 64  1  0  0  0  0
 37 38  2  0  0  0  0
 37 65  1  0  0  0  0
 38 66  1  0  0  0  0
M  END
> <PUBCHEM_COMPOUND_CID>
44353100

> <PUBCHEM_CONFORMER_RMSD>
1

> <PUBCHEM_CONFORMER_DIVERSEORDER>
1
2
4
3
5

> <PUBCHEM_MMFF94_PARTIAL_CHARGES>
45
1 -0.56
10 0.54
11 0.28
12 0.27
13 0.54
15 -0.05
16 -0.05
17 -0.01
18 -0.01
2 -0.56
20 -0.15
21 -0.15
23 -0.14
24 0.09
26 0.44
27 0.33
28 -0.15
29 0.54
3 -0.57
30 0.27
31 -0.15
32 -0.15
33 -0.15
34 0.28
35 -0.15
36 -0.15
37 -0.15
38 -0.15
39 0.66
4 -0.65
5 -0.57
52 0.15
56 0.15
57 0.15
58 0.15
59 0.37
6 -0.04
63 0.15
64 0.15
65 0.15
66 0.15
67 0.5
7 -0.04
8 -0.81
9 -0.73

> <PUBCHEM_EFFECTIVE_ROTOR_COUNT>
5.2

> <PUBCHEM_PHARMACOPHORE_FEATURES>
18
1 1 acceptor
1 2 acceptor
1 3 acceptor
1 4 acceptor
1 5 acceptor
1 6 cation
1 7 cation
1 8 cation
1 9 donor
3 4 5 39 anion
5 6 15 17 20 22 rings
5 7 16 18 21 25 rings
5 9 23 24 26 29 rings
6 1 10 11 12 13 14 rings
6 15 16 17 18 23 24 rings
6 20 22 28 32 35 36 rings
6 21 25 31 33 37 38 rings
7 1 6 7 10 13 15 16 rings

> <PUBCHEM_HEAVY_ATOM_COUNT>
39

> <PUBCHEM_ATOM_DEF_STEREO_COUNT>
4

> <PUBCHEM_ATOM_UDEF_STEREO_COUNT>
0

> <PUBCHEM_BOND_DEF_STEREO_COUNT>
0

> <PUBCHEM_BOND_UDEF_STEREO_COUNT>
0

> <PUBCHEM_ISOTOPIC_ATOM_COUNT>
0

> <PUBCHEM_COMPONENT_COUNT>
1

> <PUBCHEM_CACTVS_TAUTO_COUNT>
2

> <PUBCHEM_CONFORMER_ID>
02A4C64C00000001

> <PUBCHEM_MMFF94_ENERGY>
172.7306

> <PUBCHEM_FEATURE_SELFOVERLAP>
92.532

> <PUBCHEM_SHAPE_FINGERPRINT>
10006869 2 18271800280888478047
10906281 52 17833284377407167205
1100329 8 18268430131335737036
11578080 2 16844992555948681697
11607047 403 13173146347925080087
12107698 1 18410849962791932822
12156800 1 17985520442195626608
12608794 3 17912965839306904250
12788726 201 18121775303528854416
13140716 1 18341894065201871997
13583140 156 17533506629988544157
14787075 74 17972869538720926455
14790565 3 17836931470646446581
15513586 35 16460713203006580864
19319366 153 17462866271582676809
20600515 1 17768803178872545180
20691752 17 17749391446833648564
20905425 154 18272089434823868556
21421861 104 18409730673076875849
23558518 356 18408895044039910293
23559900 14 18130792196382078676
3383291 50 18265883839443563322
35225 105 16808716544464249538
5265222 85 16251943144910467974
57527573 199 17975413830266291772
70251023 43 18198927914000661367

> <PUBCHEM_SHAPE_MULTIPOLES>
753.33
7.68
5.71
2.39
2.5
4.55
-2.59
0.31
1.83
-0.32
-1.15
-0.44
-2.63
-0.99

> <PUBCHEM_SHAPE_SELFOVERLAP>
1723.564

> <PUBCHEM_SHAPE_VOLUME>
387.2

> <PUBCHEM_COORDINATE_TYPE>
2
5
10

$$$$
