24905313
  -OEChem-10052115163D

 39 42  0     0  0  0  0  0  0999 V2000
    5.3049   -0.6244    0.2053 O   0  0  0  0  0  0  0  0  0  0  0  0
    4.0818   -0.1761   -2.2499 O   0  0  0  0  0  0  0  0  0  0  0  0
   -4.3596   -3.1155    0.4539 N   0  0  0  0  0  0  0  0  0  0  0  0
   -2.2665   -0.6468   -0.3152 N   0  0  0  0  0  0  0  0  0  0  0  0
   -1.0171   -1.1475   -0.2966 N   0  0  0  0  0  0  0  0  0  0  0  0
   -3.4130    1.4762   -0.1143 N   0  0  0  0  0  0  0  0  0  0  0  0
   -1.8496    3.3164    0.2325 N   0  0  0  0  0  0  0  0  0  0  0  0
    0.5129    2.9971    0.3478 N   0  0  0  0  0  0  0  0  0  0  0  0
   -3.4361   -1.4867   -0.5043 C   0  0  0  0  0  0  0  0  0  0  0  0
   -3.1247   -2.9828   -0.3573 C   0  0  0  0  0  0  0  0  0  0  0  0
   -4.2492   -1.6734    0.7845 C   0  0  0  0  0  0  0  0  0  0  0  0
   -2.3149    0.7044   -0.1413 C   0  0  0  0  0  0  0  0  0  0  0  0
   -1.0022    1.1184    0.0015 C   0  0  0  0  0  0  0  0  0  0  0  0
   -0.2518   -0.0676   -0.1033 C   0  0  0  0  0  0  0  0  0  0  0  0
    1.1801   -0.2098   -0.0266 C   0  0  0  0  0  0  0  0  0  0  0  0
   -0.7855    2.4787    0.1945 C   0  0  0  0  0  0  0  0  0  0  0  0
    1.9522   -0.1234   -1.1851 C   0  0  0  0  0  0  0  0  0  0  0  0
    1.7940   -0.4346    1.2056 C   0  0  0  0  0  0  0  0  0  0  0  0
   -3.0796    2.7708    0.0780 C   0  0  0  0  0  0  0  0  0  0  0  0
    3.3383   -0.2616   -1.1115 C   0  0  0  0  0  0  0  0  0  0  0  0
    3.1801   -0.5732    1.2791 C   0  0  0  0  0  0  0  0  0  0  0  0
    3.9522   -0.4866    0.1206 C   0  0  0  0  0  0  0  0  0  0  0  0
    5.8533   -0.8520    1.5021 C   0  0  0  0  0  0  0  0  0  0  0  0
   -4.0279   -1.2343   -1.3923 H   0  0  0  0  0  0  0  0  0  0  0  0
   -3.1345   -3.5560   -1.2898 H   0  0  0  0  0  0  0  0  0  0  0  0
   -2.2339   -3.2733    0.2116 H   0  0  0  0  0  0  0  0  0  0  0  0
   -3.7143   -1.4905    1.7248 H   0  0  0  0  0  0  0  0  0  0  0  0
   -5.2052   -1.1422    0.8205 H   0  0  0  0  0  0  0  0  0  0  0  0
   -5.1832   -3.3319   -0.1089 H   0  0  0  0  0  0  0  0  0  0  0  0
    1.4754    0.0522   -2.1474 H   0  0  0  0  0  0  0  0  0  0  0  0
    1.2052   -0.5040    2.1174 H   0  0  0  0  0  0  0  0  0  0  0  0
   -3.9088    3.4693    0.1137 H   0  0  0  0  0  0  0  0  0  0  0  0
    1.3247    2.3978    0.3238 H   0  0  0  0  0  0  0  0  0  0  0  0
    0.6258    3.9925    0.4858 H   0  0  0  0  0  0  0  0  0  0  0  0
    3.5878   -0.7459    2.2691 H   0  0  0  0  0  0  0  0  0  0  0  0
    3.4892   -0.0181   -3.0047 H   0  0  0  0  0  0  0  0  0  0  0  0
    6.9385   -0.9366    1.3827 H   0  0  0  0  0  0  0  0  0  0  0  0
    5.5055   -1.7999    1.9267 H   0  0  0  0  0  0  0  0  0  0  0  0
    5.6725   -0.0039    2.1714 H   0  0  0  0  0  0  0  0  0  0  0  0
  1 22  1  0  0  0  0
  1 23  1  0  0  0  0
  2 20  1  0  0  0  0
  2 36  1  0  0  0  0
  3 10  1  0  0  0  0
  3 11  1  0  0  0  0
  3 29  1  0  0  0  0
  4  5  1  0  0  0  0
  4  9  1  0  0  0  0
  4 12  1  0  0  0  0
  5 14  2  0  0  0  0
  6 12  2  0  0  0  0
  6 19  1  0  0  0  0
  7 16  1  0  0  0  0
  7 19  2  0  0  0  0
  8 16  1  0  0  0  0
  8 33  1  0  0  0  0
  8 34  1  0  0  0  0
  9 10  1  0  0  0  0
  9 11  1  0  0  0  0
  9 24  1  0  0  0  0
 10 25  1  0  0  0  0
 10 26  1  0  0  0  0
 11 27  1  0  0  0  0
 11 28  1  0  0  0  0
 12 13  1  0  0  0  0
 13 14  1  0  0  0  0
 13 16  2  0  0  0  0
 14 15  1  0  0  0  0
 15 17  2  0  0  0  0
 15 18  1  0  0  0  0
 17 20  1  0  0  0  0
 17 30  1  0  0  0  0
 18 21  2  0  0  0  0
 18 31  1  0  0  0  0
 19 32  1  0  0  0  0
 20 22  2  0  0  0  0
 21 22  1  0  0  0  0
 21 35  1  0  0  0  0
 23 37  1  0  0  0  0
 23 38  1  0  0  0  0
 23 39  1  0  0  0  0
M  END
> <PUBCHEM_COMPOUND_CID>
24905313

> <PUBCHEM_CONFORMER_RMSD>
0.6

> <PUBCHEM_CONFORMER_DIVERSEORDER>
2
19
17
11
16
7
6
12
13
5
9
15
18
8
10
14
1
4
3

> <PUBCHEM_MMFF94_PARTIAL_CHARGES>
30
1 -0.36
10 0.21
11 0.21
12 0.11
14 0.23
15 0.05
16 0.41
17 -0.15
18 -0.15
19 0.47
2 -0.53
20 0.08
21 -0.15
22 0.08
23 0.28
29 0.36
3 -0.78
30 0.15
31 0.15
32 0.15
33 0.4
34 0.4
35 0.15
36 0.45
4 0.48
5 -0.71
6 -0.57
7 -0.62
8 -0.9
9 0.09

> <PUBCHEM_EFFECTIVE_ROTOR_COUNT>
3.8

> <PUBCHEM_PHARMACOPHORE_FEATURES>
13
1 1 acceptor
1 2 donor
1 3 cation
1 3 donor
1 5 acceptor
1 8 cation
1 8 donor
3 4 6 12 cation
3 6 7 19 cation
4 3 9 10 11 rings
5 4 5 12 13 14 rings
6 15 17 18 20 21 22 rings
6 6 7 12 13 16 19 rings

> <PUBCHEM_HEAVY_ATOM_COUNT>
23

> <PUBCHEM_ATOM_DEF_STEREO_COUNT>
0

> <PUBCHEM_ATOM_UDEF_STEREO_COUNT>
0

> <PUBCHEM_BOND_DEF_STEREO_COUNT>
0

> <PUBCHEM_BOND_UDEF_STEREO_COUNT>
0

> <PUBCHEM_ISOTOPIC_ATOM_COUNT>
0

> <PUBCHEM_COMPONENT_COUNT>
1

> <PUBCHEM_CACTVS_TAUTO_COUNT>
15

> <PUBCHEM_CONFORMER_ID>
017C066100000002

> <PUBCHEM_MMFF94_ENERGY>
74.5641

> <PUBCHEM_FEATURE_SELFOVERLAP>
66.252

> <PUBCHEM_SHAPE_FINGERPRINT>
10319926 262 18198886056172398506
10369192 42 16771820216335270352
10411042 1 18267017439799733139
1100329 8 18411139126229913753
11370993 144 16845305907724601371
12035758 1 18270695194894513025
12173636 292 17979635628525992837
12236239 1 17822010870075682680
12363563 72 18339363097114894831
12553582 1 18339082713170835519
12616971 3 17385730149548100948
12714826 92 18202007628942543507
12788726 201 18262532479739655147
13009979 54 18114742634210546698
13052359 8 18336544903047566109
13103583 49 17973479699931091771
13140716 1 18341332279706820745
13583140 156 17845636076764954434
14178342 30 18337106757488992814
14787075 74 17971751331475031208
14790565 3 18052551975869397017
14844126 61 18409720760150387035
15042514 8 18410296874357391945
15099037 37 18343016692343316502
15842332 3 17895197645407167954
16752209 62 18408876339699734215
17349148 13 17530963579730945346
17492 89 18410014325808292590
1813 80 18199758105598857231
18222031 100 18129102402103834495
18927931 339 18342173366951524126
200 152 17458341957328368530
20905425 154 18198067082232375837
21033648 29 17203033119569907914
21065201 7 18270684152248797046
21728266 224 18334846204489779882
22182313 1 17703516501987271510
2297311 6 18341903995551141686
23184049 29 18339357582345082293
23366157 5 17901389214416431605
23402539 116 18336538348737405910
23557571 272 18202279174139573152
23559900 14 18339629105692703168
23845131 108 17551814525130631161
25147074 1 17894922819435353806
2748010 2 18269821177312903893
312423 11 18113627797975726934
314173 85 18272375312574762167
335352 9 18410852179807051471
5104073 3 18342448241085364056
573450 72 18261387811342310450
6049 1 17847063276710825536
633830 44 13757785001743816434
7471813 234 18263357156610133326
77492 1 17822296738819819964
7970288 3 18265612267834353187
8863177 126 17464549968221781507
9709674 26 18128819638230551902
9981440 41 17832146018095708705

> <PUBCHEM_SHAPE_MULTIPOLES>
431.7
10.05
3.3
1.21
9.42
1.47
-0.27
-6.07
1.58
-5.84
0.43
1.75
-0.28
-0.26

> <PUBCHEM_SHAPE_SELFOVERLAP>
958.901

> <PUBCHEM_SHAPE_VOLUME>
230.5

> <PUBCHEM_COORDINATE_TYPE>
2
5
10

$$$$
