10231458
  -OEChem-10052115163D

 81 85  0     0  0  0  0  0  0999 V2000
   -7.0905   -4.2069   -0.7879 O   0  0  0  0  0  0  0  0  0  0  0  0
   -6.0632    1.6562    0.5369 O   0  0  0  0  0  0  0  0  0  0  0  0
    4.3601    1.3392    2.1980 O   0  0  0  0  0  0  0  0  0  0  0  0
   -4.0948    1.0078    2.3878 O   0  0  0  0  0  0  0  0  0  0  0  0
    9.8374   -1.1543   -0.3041 O   0  0  0  0  0  0  0  0  0  0  0  0
    0.2315    0.9787   -0.2597 N   0  0  0  0  0  0  0  0  0  0  0  0
    2.4437    0.3520    1.3708 N   0  0  0  0  0  0  0  0  0  0  0  0
   -7.3905   -1.5233    0.1122 N   0  0  0  0  0  0  0  0  0  0  0  0
   -0.4566    1.5204   -2.4275 N   0  0  0  0  0  0  0  0  0  0  0  0
    4.5088   -0.7803    1.2666 N   0  0  0  0  0  0  0  0  0  0  0  0
   -2.7827    1.9307   -2.9046 N   0  0  0  0  0  0  0  0  0  0  0  0
    0.9224    2.0535    0.4687 C   0  0  0  0  0  0  0  0  0  0  0  0
    1.0225   -0.2323   -0.5406 C   0  0  0  0  0  0  0  0  0  0  0  0
    1.6117    1.5022    1.7176 C   0  0  0  0  0  0  0  0  0  0  0  0
    1.6874   -0.7341    0.7388 C   0  0  0  0  0  0  0  0  0  0  0  0
   -0.8038    1.3010   -1.1453 C   0  0  0  0  0  0  0  0  0  0  0  0
   -7.9288   -0.5142    1.0220 C   0  0  0  0  0  0  0  0  0  0  0  0
   -6.5553   -2.4891    0.8395 C   0  0  0  0  0  0  0  0  0  0  0  0
   -8.4745   -2.2238   -0.5904 C   0  0  0  0  0  0  0  0  0  0  0  0
   -2.1100    1.3774   -0.6698 C   0  0  0  0  0  0  0  0  0  0  0  0
   -8.2712    0.7600    0.2566 C   0  0  0  0  0  0  0  0  0  0  0  0
   -6.0149   -3.5380   -0.1283 C   0  0  0  0  0  0  0  0  0  0  0  0
   -7.8895   -3.2798   -1.5239 C   0  0  0  0  0  0  0  0  0  0  0  0
    3.8224    0.3673    1.6612 C   0  0  0  0  0  0  0  0  0  0  0  0
   -7.0484    1.3368   -0.4437 C   0  0  0  0  0  0  0  0  0  0  0  0
   -3.0947    1.7054   -1.6160 C   0  0  0  0  0  0  0  0  0  0  0  0
   -2.4479    1.1439    0.6745 C   0  0  0  0  0  0  0  0  0  0  0  0
   -4.7582    1.5604    0.1573 C   0  0  0  0  0  0  0  0  0  0  0  0
   -4.4141    1.7912   -1.1780 C   0  0  0  0  0  0  0  0  0  0  0  0
   -3.7743    1.2365    1.0847 C   0  0  0  0  0  0  0  0  0  0  0  0
   -1.4808    1.8264   -3.2401 C   0  0  0  0  0  0  0  0  0  0  0  0
    5.8656   -0.8758    0.8681 C   0  0  0  0  0  0  0  0  0  0  0  0
    6.3810   -2.0976    0.4352 C   0  0  0  0  0  0  0  0  0  0  0  0
    6.6852    0.2521    0.9077 C   0  0  0  0  0  0  0  0  0  0  0  0
    7.7159   -2.1914    0.0418 C   0  0  0  0  0  0  0  0  0  0  0  0
    8.0202    0.1584    0.5146 C   0  0  0  0  0  0  0  0  0  0  0  0
   -3.0238    0.6813    3.2720 C   0  0  0  0  0  0  0  0  0  0  0  0
    8.5355   -1.0634    0.0816 C   0  0  0  0  0  0  0  0  0  0  0  0
   10.2500   -0.3339   -1.3961 C   0  0  0  0  0  0  0  0  0  0  0  0
   11.3365    0.6198   -0.9231 C   0  0  0  0  0  0  0  0  0  0  0  0
   10.7306   -1.2203   -2.5351 C   0  0  0  0  0  0  0  0  0  0  0  0
    1.6639    2.5131   -0.1968 H   0  0  0  0  0  0  0  0  0  0  0  0
    0.2165    2.8369    0.7686 H   0  0  0  0  0  0  0  0  0  0  0  0
    1.7831   -0.0002   -1.2965 H   0  0  0  0  0  0  0  0  0  0  0  0
    0.3800   -1.0259   -0.9408 H   0  0  0  0  0  0  0  0  0  0  0  0
    0.8674    1.1599    2.4466 H   0  0  0  0  0  0  0  0  0  0  0  0
    2.1998    2.2918    2.1949 H   0  0  0  0  0  0  0  0  0  0  0  0
    0.9302   -1.0643    1.4606 H   0  0  0  0  0  0  0  0  0  0  0  0
    2.3005   -1.6006    0.4945 H   0  0  0  0  0  0  0  0  0  0  0  0
   -7.1905   -0.2597    1.7937 H   0  0  0  0  0  0  0  0  0  0  0  0
   -8.8106   -0.8818    1.5623 H   0  0  0  0  0  0  0  0  0  0  0  0
   -5.7083   -1.9804    1.3143 H   0  0  0  0  0  0  0  0  0  0  0  0
   -7.1423   -2.9823    1.6254 H   0  0  0  0  0  0  0  0  0  0  0  0
   -9.0714   -1.5292   -1.1901 H   0  0  0  0  0  0  0  0  0  0  0  0
   -9.1438   -2.7119    0.1302 H   0  0  0  0  0  0  0  0  0  0  0  0
   -8.6487    1.4945    0.9790 H   0  0  0  0  0  0  0  0  0  0  0  0
   -9.0720    0.5897   -0.4708 H   0  0  0  0  0  0  0  0  0  0  0  0
   -5.4413   -4.2915    0.4209 H   0  0  0  0  0  0  0  0  0  0  0  0
   -5.3471   -3.0925   -0.8759 H   0  0  0  0  0  0  0  0  0  0  0  0
   -7.2853   -2.8265   -2.3193 H   0  0  0  0  0  0  0  0  0  0  0  0
   -8.6970   -3.8435   -2.0020 H   0  0  0  0  0  0  0  0  0  0  0  0
   -6.6889    0.6167   -1.1891 H   0  0  0  0  0  0  0  0  0  0  0  0
   -7.3353    2.2598   -0.9609 H   0  0  0  0  0  0  0  0  0  0  0  0
   -1.6514    0.8872    1.3629 H   0  0  0  0  0  0  0  0  0  0  0  0
   -5.1637    2.0804   -1.9118 H   0  0  0  0  0  0  0  0  0  0  0  0
    3.9974   -1.6534    1.2116 H   0  0  0  0  0  0  0  0  0  0  0  0
   -1.2361    2.0090   -4.2794 H   0  0  0  0  0  0  0  0  0  0  0  0
    5.7530   -2.9841    0.3987 H   0  0  0  0  0  0  0  0  0  0  0  0
    6.3461    1.2332    1.2129 H   0  0  0  0  0  0  0  0  0  0  0  0
    8.1118   -3.1453   -0.2957 H   0  0  0  0  0  0  0  0  0  0  0  0
    8.6455    1.0455    0.5562 H   0  0  0  0  0  0  0  0  0  0  0  0
   -2.5451   -0.2641    2.9946 H   0  0  0  0  0  0  0  0  0  0  0  0
   -2.3060    1.5041    3.3591 H   0  0  0  0  0  0  0  0  0  0  0  0
   -3.4605    0.5353    4.2656 H   0  0  0  0  0  0  0  0  0  0  0  0
    9.4133    0.2645   -1.7820 H   0  0  0  0  0  0  0  0  0  0  0  0
   12.1957    0.0661   -0.5284 H   0  0  0  0  0  0  0  0  0  0  0  0
   11.6814    1.2648   -1.7372 H   0  0  0  0  0  0  0  0  0  0  0  0
   10.9725    1.2539   -0.1086 H   0  0  0  0  0  0  0  0  0  0  0  0
    9.9292   -1.8922   -2.8606 H   0  0  0  0  0  0  0  0  0  0  0  0
   11.0575   -0.6257   -3.3935 H   0  0  0  0  0  0  0  0  0  0  0  0
   11.5620   -1.8562   -2.2114 H   0  0  0  0  0  0  0  0  0  0  0  0
  1 22  1  0  0  0  0
  1 23  1  0  0  0  0
  2 25  1  0  0  0  0
  2 28  1  0  0  0  0
  3 24  2  0  0  0  0
  4 30  1  0  0  0  0
  4 37  1  0  0  0  0
  5 38  1  0  0  0  0
  5 39  1  0  0  0  0
  6 12  1  0  0  0  0
  6 13  1  0  0  0  0
  6 16  1  0  0  0  0
  7 14  1  0  0  0  0
  7 15  1  0  0  0  0
  7 24  1  0  0  0  0
  8 17  1  0  0  0  0
  8 18  1  0  0  0  0
  8 19  1  0  0  0  0
  9 16  2  0  0  0  0
  9 31  1  0  0  0  0
 10 24  1  0  0  0  0
 10 32  1  0  0  0  0
 10 66  1  0  0  0  0
 11 26  1  0  0  0  0
 11 31  2  0  0  0  0
 12 14  1  0  0  0  0
 12 42  1  0  0  0  0
 12 43  1  0  0  0  0
 13 15  1  0  0  0  0
 13 44  1  0  0  0  0
 13 45  1  0  0  0  0
 14 46  1  0  0  0  0
 14 47  1  0  0  0  0
 15 48  1  0  0  0  0
 15 49  1  0  0  0  0
 16 20  1  0  0  0  0
 17 21  1  0  0  0  0
 17 50  1  0  0  0  0
 17 51  1  0  0  0  0
 18 22  1  0  0  0  0
 18 52  1  0  0  0  0
 18 53  1  0  0  0  0
 19 23  1  0  0  0  0
 19 54  1  0  0  0  0
 19 55  1  0  0  0  0
 20 26  1  0  0  0  0
 20 27  2  0  0  0  0
 21 25  1  0  0  0  0
 21 56  1  0  0  0  0
 21 57  1  0  0  0  0
 22 58  1  0  0  0  0
 22 59  1  0  0  0  0
 23 60  1  0  0  0  0
 23 61  1  0  0  0  0
 25 62  1  0  0  0  0
 25 63  1  0  0  0  0
 26 29  2  0  0  0  0
 27 30  1  0  0  0  0
 27 64  1  0  0  0  0
 28 29  1  0  0  0  0
 28 30  2  0  0  0  0
 29 65  1  0  0  0  0
 31 67  1  0  0  0  0
 32 33  2  0  0  0  0
 32 34  1  0  0  0  0
 33 35  1  0  0  0  0
 33 68  1  0  0  0  0
 34 36  2  0  0  0  0
 34 69  1  0  0  0  0
 35 38  2  0  0  0  0
 35 70  1  0  0  0  0
 36 38  1  0  0  0  0
 36 71  1  0  0  0  0
 37 72  1  0  0  0  0
 37 73  1  0  0  0  0
 37 74  1  0  0  0  0
 39 40  1  0  0  0  0
 39 41  1  0  0  0  0
 39 75  1  0  0  0  0
 40 76  1  0  0  0  0
 40 77  1  0  0  0  0
 40 78  1  0  0  0  0
 41 79  1  0  0  0  0
 41 80  1  0  0  0  0
 41 81  1  0  0  0  0
M  END
> <PUBCHEM_COMPOUND_CID>
10231458

> <PUBCHEM_CONFORMER_RMSD>
1.4

> <PUBCHEM_CONFORMER_DIVERSEORDER>
10
9
1
13
6
2
12
8
4
11
7
3
5

> <PUBCHEM_MMFF94_PARTIAL_CHARGES>
45
1 -0.56
10 -0.55
11 -0.62
12 0.37
13 0.37
14 0.3
15 0.3
16 0.41
17 0.27
18 0.27
19 0.27
2 -0.36
22 0.28
23 0.28
24 0.69
25 0.28
26 0.31
27 -0.15
28 0.08
29 -0.15
3 -0.57
30 0.08
31 0.47
32 0.12
33 -0.15
34 -0.15
35 -0.15
36 -0.15
37 0.28
38 0.08
39 0.28
4 -0.36
5 -0.36
6 -0.84
64 0.15
65 0.15
66 0.37
67 0.15
68 0.15
69 0.15
7 -0.66
70 0.15
71 0.15
8 -0.81
9 -0.62

> <PUBCHEM_EFFECTIVE_ROTOR_COUNT>
14.4

> <PUBCHEM_PHARMACOPHORE_FEATURES>
15
1 1 acceptor
1 10 donor
1 2 acceptor
1 3 acceptor
1 4 acceptor
1 5 acceptor
1 8 cation
3 39 40 41 hydrophobe
3 6 9 16 cation
3 9 11 31 cation
6 1 8 18 19 22 23 rings
6 20 26 27 28 29 30 rings
6 32 33 34 35 36 38 rings
6 6 7 12 13 14 15 rings
6 9 11 16 20 26 31 rings

> <PUBCHEM_HEAVY_ATOM_COUNT>
41

> <PUBCHEM_ATOM_DEF_STEREO_COUNT>
0

> <PUBCHEM_ATOM_UDEF_STEREO_COUNT>
0

> <PUBCHEM_BOND_DEF_STEREO_COUNT>
0

> <PUBCHEM_BOND_UDEF_STEREO_COUNT>
0

> <PUBCHEM_ISOTOPIC_ATOM_COUNT>
0

> <PUBCHEM_COMPONENT_COUNT>
1

> <PUBCHEM_CACTVS_TAUTO_COUNT>
2

> <PUBCHEM_CONFORMER_ID>
009C1EA20000000A

> <PUBCHEM_MMFF94_ENERGY>
151.0028

> <PUBCHEM_FEATURE_SELFOVERLAP>
76.304

> <PUBCHEM_SHAPE_FINGERPRINT>
10076449 9 18333732403257792832
10372059 70 9439413414560924038
11135609 99 18271523187052806391
11456790 92 12967123938893409730
11621639 183 17059226826455123761
12013929 2 17917424282217960489
13347071 3 18338229492338170515
13383668 251 18263066864172020392
13947947 19 17022913358037883163
14415361 349 17967250888295754603
14856354 85 18343865489703441812
15183329 4 17059762331572387864
15289351 153 10231754474589558391
15392192 29 17749398074833239443
15776043 110 16845570877558497810
16989713 51 18113887261566922831
16993089 31 18272369746112563182
17324776 126 17125054871210400647
17686467 74 17313109661112336276
19611394 137 17775000237313678473
20105231 36 17846497020260619878
21223535 225 9295289448109712619
21781055 127 13254524214326612336
21867018 265 18334015007890257475
23389318 12 16877659067747696714
397638 5 8502653710585051598
4339292 15 17967802848028816938
45377200 153 18410574002632865314
4625314 4 18335976528529740621
4756326 101 11963394064017323046
5028188 123 18407759231474772276
5381727 24 13182727148852791349
6058803 2 15216644288912767728
9962374 69 17967534593035257372

> <PUBCHEM_SHAPE_MULTIPOLES>
784.53
37.16
3.25
2.51
71.05
3.36
0.53
25.47
10.24
-8.52
1.26
0.03
-1.29
-0.06

> <PUBCHEM_SHAPE_SELFOVERLAP>
1664.904

> <PUBCHEM_SHAPE_VOLUME>
435.2

> <PUBCHEM_COORDINATE_TYPE>
2
5
10

$$$$
