49830909
  -OEChem-10062121543D

 43 45  0     0  0  0  0  0  0999 V2000
    1.6803    3.6539   -0.0859 Cl  0  0  0  0  0  0  0  0  0  0  0  0
   -4.7666    3.2183    0.0363 F   0  0  0  0  0  0  0  0  0  0  0  0
   -7.3267   -2.5068    0.0214 F   0  0  0  0  0  0  0  0  0  0  0  0
   -5.5145   -2.9281   -1.1038 F   0  0  0  0  0  0  0  0  0  0  0  0
   -5.4718   -2.9532    1.0645 F   0  0  0  0  0  0  0  0  0  0  0  0
   -1.5039   -0.6427   -0.0744 O   0  0  0  0  0  0  0  0  0  0  0  0
    8.8038   -1.5038   -0.3296 O   0  0  0  0  0  0  0  0  0  0  0  0
   -0.3636    1.4033   -0.0733 N   0  0  0  0  0  0  0  0  0  0  0  0
   -2.6701    1.3838   -0.0264 N   0  0  0  0  0  0  0  0  0  0  0  0
    5.5892   -0.4285   -1.3605 N   0  0  0  0  0  0  0  0  0  0  0  0
    6.8748   -0.8467   -1.3866 N   0  0  0  0  0  0  0  0  0  0  0  0
    3.6389    0.1755   -0.1659 C   0  0  0  0  0  0  0  0  0  0  0  0
    5.0440   -0.2702   -0.1969 C   0  0  0  0  0  0  0  0  0  0  0  0
    0.9794    1.0161   -0.1054 C   0  0  0  0  0  0  0  0  0  0  0  0
    5.7180   -0.4918    1.1122 C   0  0  0  0  0  0  0  0  0  0  0  0
    3.3382    1.5373   -0.1433 C   0  0  0  0  0  0  0  0  0  0  0  0
    2.6098   -0.7661   -0.1582 C   0  0  0  0  0  0  0  0  0  0  0  0
    2.0085    1.9578   -0.1132 C   0  0  0  0  0  0  0  0  0  0  0  0
    1.2802   -0.3457   -0.1278 C   0  0  0  0  0  0  0  0  0  0  0  0
   -4.0210    0.9635   -0.0037 C   0  0  0  0  0  0  0  0  0  0  0  0
   -5.6563   -0.8149    0.0084 C   0  0  0  0  0  0  0  0  0  0  0  0
   -4.3255   -0.3977   -0.0132 C   0  0  0  0  0  0  0  0  0  0  0  0
    6.9872   -0.9046    1.0307 C   0  0  0  0  0  0  0  0  0  0  0  0
    5.0365   -0.2342    2.4182 C   0  0  0  0  0  0  0  0  0  0  0  0
   -1.5166    0.5840   -0.0595 C   0  0  0  0  0  0  0  0  0  0  0  0
   -5.0474    1.9075    0.0276 C   0  0  0  0  0  0  0  0  0  0  0  0
   -6.6827    0.1291    0.0397 C   0  0  0  0  0  0  0  0  0  0  0  0
   -6.3782    1.4903    0.0494 C   0  0  0  0  0  0  0  0  0  0  0  0
    7.6390   -1.1149   -0.2782 C   0  0  0  0  0  0  0  0  0  0  0  0
   -5.9828   -2.2703   -0.0023 C   0  0  0  0  0  0  0  0  0  0  0  0
    4.1448    2.2675   -0.1493 H   0  0  0  0  0  0  0  0  0  0  0  0
    2.8345   -1.8297   -0.1753 H   0  0  0  0  0  0  0  0  0  0  0  0
    0.5536   -1.1439   -0.1239 H   0  0  0  0  0  0  0  0  0  0  0  0
   -0.5251    2.4072   -0.0576 H   0  0  0  0  0  0  0  0  0  0  0  0
   -3.5826   -1.1822   -0.0369 H   0  0  0  0  0  0  0  0  0  0  0  0
    7.5848   -1.0910    1.9166 H   0  0  0  0  0  0  0  0  0  0  0  0
   -2.5298    2.3910   -0.0176 H   0  0  0  0  0  0  0  0  0  0  0  0
    4.7219    0.8114    2.4937 H   0  0  0  0  0  0  0  0  0  0  0  0
    5.6978   -0.4364    3.2679 H   0  0  0  0  0  0  0  0  0  0  0  0
    4.1579   -0.8772    2.5307 H   0  0  0  0  0  0  0  0  0  0  0  0
   -7.7257   -0.1747    0.0569 H   0  0  0  0  0  0  0  0  0  0  0  0
   -7.1770    2.2256    0.0737 H   0  0  0  0  0  0  0  0  0  0  0  0
    7.2612   -0.9639   -2.3178 H   0  0  0  0  0  0  0  0  0  0  0  0
  1 18  1  0  0  0  0
  2 26  1  0  0  0  0
  3 30  1  0  0  0  0
  4 30  1  0  0  0  0
  5 30  1  0  0  0  0
  6 25  2  0  0  0  0
  7 29  2  0  0  0  0
  8 14  1  0  0  0  0
  8 25  1  0  0  0  0
  8 34  1  0  0  0  0
  9 20  1  0  0  0  0
  9 25  1  0  0  0  0
  9 37  1  0  0  0  0
 10 11  1  0  0  0  0
 10 13  2  0  0  0  0
 11 29  1  0  0  0  0
 11 43  1  0  0  0  0
 12 13  1  0  0  0  0
 12 16  2  0  0  0  0
 12 17  1  0  0  0  0
 13 15  1  0  0  0  0
 14 18  2  0  0  0  0
 14 19  1  0  0  0  0
 15 23  2  0  0  0  0
 15 24  1  0  0  0  0
 16 18  1  0  0  0  0
 16 31  1  0  0  0  0
 17 19  2  0  0  0  0
 17 32  1  0  0  0  0
 19 33  1  0  0  0  0
 20 22  1  0  0  0  0
 20 26  2  0  0  0  0
 21 22  2  0  0  0  0
 21 27  1  0  0  0  0
 21 30  1  0  0  0  0
 22 35  1  0  0  0  0
 23 29  1  0  0  0  0
 23 36  1  0  0  0  0
 24 38  1  0  0  0  0
 24 39  1  0  0  0  0
 24 40  1  0  0  0  0
 26 28  1  0  0  0  0
 27 28  2  0  0  0  0
 27 41  1  0  0  0  0
 28 42  1  0  0  0  0
M  END
> <PUBCHEM_COMPOUND_CID>
49830909

> <PUBCHEM_CONFORMER_RMSD>
0.8

> <PUBCHEM_CONFORMER_DIVERSEORDER>
2
49
32
63
54
30
41
56
22
50
52
15
46
51
13
44
19
29
60
42
57
31
1
26
62
25
53
9
48
34
61
24
16
43
36
59
5
4
47
45
14
35
23
33
58
7
55
3
28
10
11
27
17
6
37
8
18
39
12
38
40
20
21

> <PUBCHEM_MMFF94_PARTIAL_CHARGES>
40
1 -0.18
10 -0.51
11 -0.37
12 0.09
13 0.35
14 0.12
15 -0.12
16 -0.15
17 -0.15
18 0.18
19 -0.15
2 -0.19
20 0.12
21 -0.14
22 -0.15
23 -0.14
24 0.14
25 0.69
26 0.19
27 -0.15
28 -0.15
29 0.62
3 -0.34
30 1.16
31 0.15
32 0.15
33 0.15
34 0.37
35 0.15
36 0.15
37 0.37
4 -0.34
41 0.15
42 0.15
43 0.37
5 -0.34
6 -0.57
7 -0.57
8 -0.55
9 -0.55

> <PUBCHEM_EFFECTIVE_ROTOR_COUNT>
6

> <PUBCHEM_PHARMACOPHORE_FEATURES>
9
1 10 acceptor
1 11 donor
1 6 acceptor
1 7 acceptor
1 8 donor
1 9 donor
6 10 11 13 15 23 29 rings
6 12 14 16 17 18 19 rings
6 20 21 22 26 27 28 rings

> <PUBCHEM_HEAVY_ATOM_COUNT>
30

> <PUBCHEM_ATOM_DEF_STEREO_COUNT>
0

> <PUBCHEM_ATOM_UDEF_STEREO_COUNT>
0

> <PUBCHEM_BOND_DEF_STEREO_COUNT>
0

> <PUBCHEM_BOND_UDEF_STEREO_COUNT>
0

> <PUBCHEM_ISOTOPIC_ATOM_COUNT>
0

> <PUBCHEM_COMPONENT_COUNT>
1

> <PUBCHEM_CACTVS_TAUTO_COUNT>
44

> <PUBCHEM_CONFORMER_ID>
02F85BFD00000002

> <PUBCHEM_MMFF94_ENERGY>
89.2295

> <PUBCHEM_FEATURE_SELFOVERLAP>
45.721

> <PUBCHEM_SHAPE_FINGERPRINT>
10050765 1 18265616674469817892
10299344 5 17894352155277569776
10319926 262 18342167878315544809
11524674 6 17561361781904259583
11646440 116 17346599677387496888
11719270 70 18272651221289720806
11761917 87 15912503311721949006
11963148 33 18336822001395365774
12166972 35 18187367648894131796
13782708 43 18187079580930962185
14068700 675 18334297543850971644
14344974 204 18058728155889059303
15021287 119 18201429320428905981
15183329 4 17313100856360522162
15301273 46 18059852832103702640
15419008 47 17703501104609403616
15419008 91 18270379642962350440
15849732 13 17989203724992631580
17844677 252 18339931506335687661
18681886 176 18413102883449391544
20028762 73 18342457066911483822
21130935 74 18341047437459860930
21267235 1 18410578396082870636
23081809 10 17603869983501930900
23522609 53 17824569425018223340
23559900 14 18338229492564497289
23569914 152 13339177693076063155
249057 3 18409448069057074989
25025965 108 18201426035244187351
3004659 81 18260269642471916420
3383291 50 18411696629648202899
397830 11 17774709982722214018
4073 2 18187089494126860515
4340502 62 15410892943039989796
5104073 3 18342177821381347049
59682541 35 17988916774496666088
9831232 110 18200602398044477710

> <PUBCHEM_SHAPE_MULTIPOLES>
558.5
24.81
2.99
1.06
5.82
0.82
0.39
-15.13
-0.03
-5.05
-0.1
2
-0.34
-0.01

> <PUBCHEM_SHAPE_SELFOVERLAP>
1207.882

> <PUBCHEM_SHAPE_VOLUME>
306.3

> <PUBCHEM_COORDINATE_TYPE>
2
5
10

$$$$
