22477600
  -OEChem-10062122023D

 25 27  0     0  0  0  0  0  0999 V2000
    3.2087   -1.1334    0.0000 N   0  0  0  0  0  0  0  0  0  0  0  0
    2.9092    1.2568   -0.0006 N   0  0  0  0  0  0  0  0  0  0  0  0
    1.0999   -0.3985    0.0007 C   0  0  0  0  0  0  0  0  0  0  0  0
    0.1264    0.6133    0.0006 C   0  0  0  0  0  0  0  0  0  0  0  0
    2.4344   -0.0031    0.0000 C   0  0  0  0  0  0  0  0  0  0  0  0
   -1.2733    0.2678    0.0001 C   0  0  0  0  0  0  0  0  0  0  0  0
    1.0918   -1.8186    0.0013 C   0  0  0  0  0  0  0  0  0  0  0  0
    0.5632    1.9368   -0.0004 C   0  0  0  0  0  0  0  0  0  0  0  0
    2.4031   -2.2425   -0.0001 C   0  0  0  0  0  0  0  0  0  0  0  0
   -1.9500    0.0996   -1.2079 C   0  0  0  0  0  0  0  0  0  0  0  0
   -1.9509    0.1016    1.2080 C   0  0  0  0  0  0  0  0  0  0  0  0
    1.9285    2.1894   -0.0007 C   0  0  0  0  0  0  0  0  0  0  0  0
   -3.3042   -0.2349   -1.2083 C   0  0  0  0  0  0  0  0  0  0  0  0
   -3.3051   -0.2330    1.2077 C   0  0  0  0  0  0  0  0  0  0  0  0
   -3.9817   -0.4012   -0.0004 C   0  0  0  0  0  0  0  0  0  0  0  0
    0.2272   -2.4684    0.0019 H   0  0  0  0  0  0  0  0  0  0  0  0
   -0.1404    2.7640   -0.0009 H   0  0  0  0  0  0  0  0  0  0  0  0
    4.2191   -1.1464   -0.0005 H   0  0  0  0  0  0  0  0  0  0  0  0
    2.8337   -3.2338   -0.0005 H   0  0  0  0  0  0  0  0  0  0  0  0
   -1.4370    0.2253   -2.1585 H   0  0  0  0  0  0  0  0  0  0  0  0
   -1.4387    0.2287    2.1588 H   0  0  0  0  0  0  0  0  0  0  0  0
    2.2868    3.2155   -0.0013 H   0  0  0  0  0  0  0  0  0  0  0  0
   -3.8311   -0.3660   -2.1489 H   0  0  0  0  0  0  0  0  0  0  0  0
   -3.8327   -0.3626    2.1481 H   0  0  0  0  0  0  0  0  0  0  0  0
   -5.0361   -0.6617   -0.0007 H   0  0  0  0  0  0  0  0  0  0  0  0
  1  5  1  0  0  0  0
  1  9  1  0  0  0  0
  1 18  1  0  0  0  0
  2  5  2  0  0  0  0
  2 12  1  0  0  0  0
  3  4  2  0  0  0  0
  3  5  1  0  0  0  0
  3  7  1  0  0  0  0
  4  6  1  0  0  0  0
  4  8  1  0  0  0  0
  6 10  2  0  0  0  0
  6 11  1  0  0  0  0
  7  9  2  0  0  0  0
  7 16  1  0  0  0  0
  8 12  2  0  0  0  0
  8 17  1  0  0  0  0
  9 19  1  0  0  0  0
 10 13  1  0  0  0  0
 10 20  1  0  0  0  0
 11 14  2  0  0  0  0
 11 21  1  0  0  0  0
 12 22  1  0  0  0  0
 13 15  2  0  0  0  0
 13 23  1  0  0  0  0
 14 15  1  0  0  0  0
 14 24  1  0  0  0  0
 15 25  1  0  0  0  0
M  END
> <PUBCHEM_COMPOUND_CID>
22477600

> <PUBCHEM_CONFORMER_RMSD>
0.4

> <PUBCHEM_CONFORMER_DIVERSEORDER>
1
2
3

> <PUBCHEM_MMFF94_PARTIAL_CHARGES>
22
1 0.03
10 -0.15
11 -0.15
12 0.16
13 -0.15
14 -0.15
15 -0.15
16 0.15
17 0.15
18 0.27
19 0.15
2 -0.57
20 0.15
21 0.15
22 0.15
23 0.15
24 0.15
25 0.15
5 0.11
7 -0.15
8 -0.15
9 -0.3

> <PUBCHEM_EFFECTIVE_ROTOR_COUNT>
1

> <PUBCHEM_PHARMACOPHORE_FEATURES>
5
1 1 donor
3 1 2 5 cation
5 1 3 5 7 9 rings
6 2 3 4 5 8 12 rings
6 6 10 11 13 14 15 rings

> <PUBCHEM_HEAVY_ATOM_COUNT>
15

> <PUBCHEM_ATOM_DEF_STEREO_COUNT>
0

> <PUBCHEM_ATOM_UDEF_STEREO_COUNT>
0

> <PUBCHEM_BOND_DEF_STEREO_COUNT>
0

> <PUBCHEM_BOND_UDEF_STEREO_COUNT>
0

> <PUBCHEM_ISOTOPIC_ATOM_COUNT>
0

> <PUBCHEM_COMPONENT_COUNT>
1

> <PUBCHEM_CACTVS_TAUTO_COUNT>
2

> <PUBCHEM_CONFORMER_ID>
0156FB2000000001

> <PUBCHEM_MMFF94_ENERGY>
38.7429

> <PUBCHEM_FEATURE_SELFOVERLAP>
25.484

> <PUBCHEM_SHAPE_FINGERPRINT>
107287 299 18187653556086602900
10980938 120 18412263964720145120
11471102 20 18409727374167517541
11471102 22 18408327687206716024
12202030 40 17604449464905670899
12236239 1 17703792535198148009
12553582 1 18195252100658367226
12932764 1 17703788137120261473
13140716 1 18194678405118180256
13296908 3 17967253096203648171
13538477 17 17417807396260837303
14251717 144 18411696612388354679
15219456 202 18113616811328174661
15279307 12 18058729246546111327
15375462 189 17989208178836488723
15442244 35 18196939868313168041
15501101 241 18333455343438806204
16945 1 18410574015469611684
1813 80 17914915148916061030
19049666 15 17895747392604825525
19422 9 17918277562626286455
200 152 18272643546224892799
20201158 50 18187365406767722091
20279233 1 17822007631675648843
20361792 2 18269833133905464815
204376 136 18122060072935170592
20645477 70 18410846651614747655
20871998 22 18127417743930957366
21639500 275 18339634663269503821
21730867 7 18333732450380814724
22112679 90 17346600781141493513
22445834 79 18202006521014898625
2255824 54 18341898536457667876
22802520 49 18041831814532990997
23419403 2 14931191352156999962
23557571 272 17022903475682086589
23559900 14 16877937214166944538
23728640 28 15957792976558108811
2748010 2 18123459493586316340
474 4 17628624551419816664
581208 293 18411695525803722904
6049 1 17894352168278776349
63268167 104 18341609347413718873
7364860 26 18342737442317914104
77492 1 17703792539477310529
81228 2 17617653259520299648
8272917 22 18341902870390834415
88987 49 15502365747333285847
9981440 41 15690097715585885824

> <PUBCHEM_SHAPE_MULTIPOLES>
298.73
6.06
1.98
1.01
3.27
0.07
0
-1.22
0
-2.36
0
1.05
-0.03
0

> <PUBCHEM_SHAPE_SELFOVERLAP>
673.675

> <PUBCHEM_SHAPE_VOLUME>
155.5

> <PUBCHEM_COORDINATE_TYPE>
2
5
10

$$$$
