2866301
  -OEChem-10062121533D

 44 46  0     1  0  0  0  0  0999 V2000
    2.0066   -2.1710    1.8812 O   0  0  0  0  0  0  0  0  0  0  0  0
    0.2844   -0.0105    0.2751 O   0  0  0  0  0  0  0  0  0  0  0  0
    2.7557   -0.4173   -1.1683 N   0  0  0  0  0  0  0  0  0  0  0  0
    3.5880   -0.5723    1.4811 N   0  0  0  0  0  0  0  0  0  0  0  0
   -1.3023   -1.4659   -0.6643 N   0  0  0  0  0  0  0  0  0  0  0  0
   -6.1504    1.1571    0.2983 N   0  0  0  0  0  0  0  0  0  0  0  0
    2.4355   -1.6278   -0.4314 C   0  0  2  0  0  0  0  0  0  0  0  0
    1.0116   -2.0562   -0.7674 C   0  0  0  0  0  0  0  0  0  0  0  0
    3.7775    0.4038   -0.7191 C   0  0  0  0  0  0  0  0  0  0  0  0
    2.6202   -1.4688    1.0755 C   0  0  0  0  0  0  0  0  0  0  0  0
    4.2096    0.3324    0.6084 C   0  0  0  0  0  0  0  0  0  0  0  0
   -0.0237   -1.0414   -0.3139 C   0  0  0  0  0  0  0  0  0  0  0  0
    4.3520    1.3667   -1.5573 C   0  0  0  0  0  0  0  0  0  0  0  0
    5.2071    1.1835    1.0914 C   0  0  0  0  0  0  0  0  0  0  0  0
   -2.5286   -0.8030   -0.4197 C   0  0  0  0  0  0  0  0  0  0  0  0
    5.3561    2.2149   -1.0845 C   0  0  0  0  0  0  0  0  0  0  0  0
    5.7849    2.1212    0.2381 C   0  0  0  0  0  0  0  0  0  0  0  0
   -4.9282    0.4961    0.0556 C   0  0  0  0  0  0  0  0  0  0  0  0
   -3.7104   -1.3855   -0.8465 C   0  0  0  0  0  0  0  0  0  0  0  0
   -2.5207    0.4150    0.2395 C   0  0  0  0  0  0  0  0  0  0  0  0
   -4.9189   -0.7313   -0.6071 C   0  0  0  0  0  0  0  0  0  0  0  0
   -3.7291    1.0692    0.4789 C   0  0  0  0  0  0  0  0  0  0  0  0
   -7.2677    0.9905   -0.6095 C   0  0  0  0  0  0  0  0  0  0  0  0
   -6.3091    2.0007    1.4662 C   0  0  0  0  0  0  0  0  0  0  0  0
    3.1282   -2.4183   -0.7479 H   0  0  0  0  0  0  0  0  0  0  0  0
    0.7802   -3.0157   -0.2883 H   0  0  0  0  0  0  0  0  0  0  0  0
    0.9060   -2.1931   -1.8512 H   0  0  0  0  0  0  0  0  0  0  0  0
    2.5066   -0.3696   -2.1503 H   0  0  0  0  0  0  0  0  0  0  0  0
    3.8280   -0.5268    2.4673 H   0  0  0  0  0  0  0  0  0  0  0  0
    4.0239    1.4615   -2.5900 H   0  0  0  0  0  0  0  0  0  0  0  0
    5.5347    1.1283    2.1260 H   0  0  0  0  0  0  0  0  0  0  0  0
   -1.3828   -2.3549   -1.1535 H   0  0  0  0  0  0  0  0  0  0  0  0
    5.7990    2.9523   -1.7476 H   0  0  0  0  0  0  0  0  0  0  0  0
    6.5617    2.7850    0.6058 H   0  0  0  0  0  0  0  0  0  0  0  0
   -3.7141   -2.3423   -1.3613 H   0  0  0  0  0  0  0  0  0  0  0  0
   -1.6364    0.9234    0.5941 H   0  0  0  0  0  0  0  0  0  0  0  0
   -5.8355   -1.2106   -0.9389 H   0  0  0  0  0  0  0  0  0  0  0  0
   -3.7023    2.0293    0.9867 H   0  0  0  0  0  0  0  0  0  0  0  0
   -7.7869    0.0458   -0.4168 H   0  0  0  0  0  0  0  0  0  0  0  0
   -6.9422    1.0145   -1.6557 H   0  0  0  0  0  0  0  0  0  0  0  0
   -7.9982    1.7984   -0.4891 H   0  0  0  0  0  0  0  0  0  0  0  0
   -5.8548    2.9831    1.2999 H   0  0  0  0  0  0  0  0  0  0  0  0
   -5.8603    1.5434    2.3553 H   0  0  0  0  0  0  0  0  0  0  0  0
   -7.3682    2.1625    1.6960 H   0  0  0  0  0  0  0  0  0  0  0  0
  1 10  2  0  0  0  0
  2 12  2  0  0  0  0
  3  7  1  0  0  0  0
  3  9  1  0  0  0  0
  3 28  1  0  0  0  0
  4 10  1  0  0  0  0
  4 11  1  0  0  0  0
  4 29  1  0  0  0  0
  5 12  1  0  0  0  0
  5 15  1  0  0  0  0
  5 32  1  0  0  0  0
  6 18  1  0  0  0  0
  6 23  1  0  0  0  0
  6 24  1  0  0  0  0
  7  8  1  0  0  0  0
  7 10  1  0  0  0  0
  7 25  1  0  0  0  0
  8 12  1  0  0  0  0
  8 26  1  0  0  0  0
  8 27  1  0  0  0  0
  9 11  1  0  0  0  0
  9 13  2  0  0  0  0
 11 14  2  0  0  0  0
 13 16  1  0  0  0  0
 13 30  1  0  0  0  0
 14 17  1  0  0  0  0
 14 31  1  0  0  0  0
 15 19  2  0  0  0  0
 15 20  1  0  0  0  0
 16 17  2  0  0  0  0
 16 33  1  0  0  0  0
 17 34  1  0  0  0  0
 18 21  2  0  0  0  0
 18 22  1  0  0  0  0
 19 21  1  0  0  0  0
 19 35  1  0  0  0  0
 20 22  2  0  0  0  0
 20 36  1  0  0  0  0
 21 37  1  0  0  0  0
 22 38  1  0  0  0  0
 23 39  1  0  0  0  0
 23 40  1  0  0  0  0
 23 41  1  0  0  0  0
 24 42  1  0  0  0  0
 24 43  1  0  0  0  0
 24 44  1  0  0  0  0
M  END
> <PUBCHEM_COMPOUND_CID>
2866301

> <PUBCHEM_CONFORMER_RMSD>
0.8

> <PUBCHEM_CONFORMER_DIVERSEORDER>
9
12
34
25
30
7
2
1
13
27
19
29
22
14
16
33
15
35
17
20
3
24
32
11
31
8
18
5
10
23
21
28
6
26
4

> <PUBCHEM_MMFF94_PARTIAL_CHARGES>
35
1 -0.57
10 0.57
11 0.12
12 0.57
13 -0.15
14 -0.15
15 0.12
16 -0.15
17 -0.15
18 0.1
19 -0.15
2 -0.57
20 -0.15
21 -0.15
22 -0.15
23 0.37
24 0.37
28 0.4
29 0.37
3 -0.87
30 0.15
31 0.15
32 0.37
33 0.15
34 0.15
35 0.15
36 0.15
37 0.15
38 0.15
4 -0.55
5 -0.55
6 -0.84
7 0.43
8 0.06
9 0.1

> <PUBCHEM_EFFECTIVE_ROTOR_COUNT>
5.6

> <PUBCHEM_PHARMACOPHORE_FEATURES>
10
1 1 acceptor
1 2 acceptor
1 3 cation
1 3 donor
1 4 donor
1 5 donor
1 6 cation
6 15 18 19 20 21 22 rings
6 3 4 7 9 10 11 rings
6 9 11 13 14 16 17 rings

> <PUBCHEM_HEAVY_ATOM_COUNT>
24

> <PUBCHEM_ATOM_DEF_STEREO_COUNT>
0

> <PUBCHEM_ATOM_UDEF_STEREO_COUNT>
1

> <PUBCHEM_BOND_DEF_STEREO_COUNT>
0

> <PUBCHEM_BOND_UDEF_STEREO_COUNT>
0

> <PUBCHEM_ISOTOPIC_ATOM_COUNT>
0

> <PUBCHEM_COMPONENT_COUNT>
1

> <PUBCHEM_CACTVS_TAUTO_COUNT>
4

> <PUBCHEM_CONFORMER_ID>
002BBC7D00000009

> <PUBCHEM_MMFF94_ENERGY>
94.4449

> <PUBCHEM_FEATURE_SELFOVERLAP>
50.778

> <PUBCHEM_SHAPE_FINGERPRINT>
10 15 18187089460152243697
10280341 67 17914883473934147856
10319926 262 13767916893508094551
10378564 45 17203337680512552276
10498660 4 17918278666469584064
10554248 39 18127678337177270823
10670039 82 17632026255765016776
10906281 52 18059304175949044491
12236239 1 18409725183744882486
125118 31 18262236608929581653
12596602 18 18187083953809186763
12633257 1 15936689380355725004
13533116 47 17241044280446218875
13631057 29 17972314285914135955
13668630 136 11600005462025771269
13685833 64 8358260341049655964
13955234 65 18041840584809139682
14211702 104 8430012258551051781
14251740 57 11603084056034652296
14251764 75 17315934431528970180
14341114 328 18187640345009936362
14347332 77 8862946065799175995
14461889 52 17967823785946931771
14528608 73 17989204854362957461
14739800 52 18271509988528609560
14840074 17 18408610262159830533
15142526 21 18042403719656390872
15183329 4 13901915509176777835
15188451 53 12252183004570482297
15238133 3 18272080609230330762
15348495 7 15140968395607593421
15475509 35 14418676032247703352
15961568 22 18412266129273490597
1601671 61 18272368689534510696
17349148 13 8214144079390081935
18222031 100 11240004442811508302
19377110 9 18041000687053663851
19784866 240 9079122167305390943
1979834 28 16371010676293943810
20511986 3 18336815455653164653
20567600 234 16950286247088868173
20567600 247 10663827364313093268
21150785 3 16630520757120314773
21637258 2 10735891551658213044
22061861 79 13182737031339871673
221357 26 14333413345686749810
2215653 11 14692572130461879357
23081809 10 17845649258256715775
23559900 14 17916587505617131223
270888 7 18339361980597432260
2748736 6 18341889654824431133
2838139 119 18129095796565172916
300161 21 18409444783010941495
3472631 163 18272652389267474764
34797466 226 15769765888703015593
397830 11 17458639934070246561
4340502 62 17312824874625721859
465052 167 8430314653722000616
474 4 18040996293338698782
5104073 3 17967532393395076787
543368 44 18342458166812975413
59682541 52 14261355708873455629
6438161 24 10447928339146136909
7808743 9 18271521004692728046
86090 222 14997123541352370330
960060 61 12967131635848843626

> <PUBCHEM_SHAPE_MULTIPOLES>
462.25
17.69
2.33
1.37
16.45
0.05
-0.26
13.73
-0.12
-1.13
-0.14
-1.17
-0.01
-2.05

> <PUBCHEM_SHAPE_SELFOVERLAP>
996.002

> <PUBCHEM_SHAPE_VOLUME>
251.7

> <PUBCHEM_COORDINATE_TYPE>
2
5
10

$$$$
