24905280
  -OEChem-10052115143D

 35 37  0     0  0  0  0  0  0999 V2000
    5.3685    0.3208    0.4714 F   0  0  0  0  0  0  0  0  0  0  0  0
    4.1677    0.3485   -2.0041 O   0  0  0  0  0  0  0  0  0  0  0  0
   -2.1531    1.0074   -0.0064 N   0  0  0  0  0  0  0  0  0  0  0  0
   -0.8695    1.4024    0.0837 N   0  0  0  0  0  0  0  0  0  0  0  0
   -3.4594   -1.0276   -0.1283 N   0  0  0  0  0  0  0  0  0  0  0  0
   -2.0432   -3.0131   -0.0737 N   0  0  0  0  0  0  0  0  0  0  0  0
    0.3357   -2.8968    0.0830 N   0  0  0  0  0  0  0  0  0  0  0  0
   -3.2013    1.9990   -0.0555 C   0  0  0  0  0  0  0  0  0  0  0  0
   -2.3055   -0.3469   -0.0413 C   0  0  0  0  0  0  0  0  0  0  0  0
   -1.0292   -0.8769    0.0312 C   0  0  0  0  0  0  0  0  0  0  0  0
   -0.1901    0.2505    0.1062 C   0  0  0  0  0  0  0  0  0  0  0  0
   -3.0763    2.8894   -1.2944 C   0  0  0  0  0  0  0  0  0  0  0  0
   -3.2382    2.8430    1.2209 C   0  0  0  0  0  0  0  0  0  0  0  0
    1.2480    0.2688    0.1990 C   0  0  0  0  0  0  0  0  0  0  0  0
   -0.9183   -2.2632    0.0128 C   0  0  0  0  0  0  0  0  0  0  0  0
    2.0214    0.3004   -0.9614 C   0  0  0  0  0  0  0  0  0  0  0  0
    1.8666    0.2552    1.4492 C   0  0  0  0  0  0  0  0  0  0  0  0
   -3.2270   -2.3580   -0.1380 C   0  0  0  0  0  0  0  0  0  0  0  0
    3.4132    0.3186   -0.8717 C   0  0  0  0  0  0  0  0  0  0  0  0
    3.2584    0.2734    1.5390 C   0  0  0  0  0  0  0  0  0  0  0  0
    4.0316    0.3051    0.3785 C   0  0  0  0  0  0  0  0  0  0  0  0
   -4.1553    1.4629   -0.1269 H   0  0  0  0  0  0  0  0  0  0  0  0
   -2.1583    3.4873   -1.2730 H   0  0  0  0  0  0  0  0  0  0  0  0
   -3.9247    3.5785   -1.3623 H   0  0  0  0  0  0  0  0  0  0  0  0
   -3.0583    2.2852   -2.2083 H   0  0  0  0  0  0  0  0  0  0  0  0
   -2.3265    3.4392    1.3391 H   0  0  0  0  0  0  0  0  0  0  0  0
   -3.3359    2.2057    2.1067 H   0  0  0  0  0  0  0  0  0  0  0  0
   -4.0900    3.5311    1.2047 H   0  0  0  0  0  0  0  0  0  0  0  0
    1.5418    0.3104   -1.9381 H   0  0  0  0  0  0  0  0  0  0  0  0
    1.2781    0.2300    2.3633 H   0  0  0  0  0  0  0  0  0  0  0  0
   -4.1071   -2.9883   -0.2064 H   0  0  0  0  0  0  0  0  0  0  0  0
    3.7403    0.2622    2.5121 H   0  0  0  0  0  0  0  0  0  0  0  0
    1.1909   -2.3646    0.1477 H   0  0  0  0  0  0  0  0  0  0  0  0
    0.3714   -3.9072    0.0664 H   0  0  0  0  0  0  0  0  0  0  0  0
    3.5771    0.3535   -2.7769 H   0  0  0  0  0  0  0  0  0  0  0  0
  1 21  1  0  0  0  0
  2 19  1  0  0  0  0
  2 35  1  0  0  0  0
  3  4  1  0  0  0  0
  3  8  1  0  0  0  0
  3  9  1  0  0  0  0
  4 11  2  0  0  0  0
  5  9  2  0  0  0  0
  5 18  1  0  0  0  0
  6 15  1  0  0  0  0
  6 18  2  0  0  0  0
  7 15  1  0  0  0  0
  7 33  1  0  0  0  0
  7 34  1  0  0  0  0
  8 12  1  0  0  0  0
  8 13  1  0  0  0  0
  8 22  1  0  0  0  0
  9 10  1  0  0  0  0
 10 11  1  0  0  0  0
 10 15  2  0  0  0  0
 11 14  1  0  0  0  0
 12 23  1  0  0  0  0
 12 24  1  0  0  0  0
 12 25  1  0  0  0  0
 13 26  1  0  0  0  0
 13 27  1  0  0  0  0
 13 28  1  0  0  0  0
 14 16  2  0  0  0  0
 14 17  1  0  0  0  0
 16 19  1  0  0  0  0
 16 29  1  0  0  0  0
 17 20  2  0  0  0  0
 17 30  1  0  0  0  0
 18 31  1  0  0  0  0
 19 21  2  0  0  0  0
 20 21  1  0  0  0  0
 20 32  1  0  0  0  0
M  END
> <PUBCHEM_COMPOUND_CID>
24905280

> <PUBCHEM_CONFORMER_RMSD>
0.6

> <PUBCHEM_CONFORMER_DIVERSEORDER>
2
3
4
6
5
1

> <PUBCHEM_MMFF94_PARTIAL_CHARGES>
25
1 -0.19
11 0.23
14 0.05
15 0.41
16 -0.15
17 -0.15
18 0.47
19 0.08
2 -0.53
20 -0.15
21 0.19
29 0.15
3 0.31
30 0.15
31 0.15
32 0.15
33 0.4
34 0.4
35 0.45
4 -0.71
5 -0.57
6 -0.62
7 -0.9
8 0.26
9 0.11

> <PUBCHEM_EFFECTIVE_ROTOR_COUNT>
2

> <PUBCHEM_PHARMACOPHORE_FEATURES>
10
1 2 donor
1 4 acceptor
1 7 cation
1 7 donor
3 3 5 9 cation
3 5 6 18 cation
3 8 12 13 hydrophobe
5 3 4 9 10 11 rings
6 14 16 17 19 20 21 rings
6 5 6 9 10 15 18 rings

> <PUBCHEM_HEAVY_ATOM_COUNT>
21

> <PUBCHEM_ATOM_DEF_STEREO_COUNT>
0

> <PUBCHEM_ATOM_UDEF_STEREO_COUNT>
0

> <PUBCHEM_BOND_DEF_STEREO_COUNT>
0

> <PUBCHEM_BOND_UDEF_STEREO_COUNT>
0

> <PUBCHEM_ISOTOPIC_ATOM_COUNT>
0

> <PUBCHEM_COMPONENT_COUNT>
1

> <PUBCHEM_CACTVS_TAUTO_COUNT>
15

> <PUBCHEM_CONFORMER_ID>
017C064000000002

> <PUBCHEM_MMFF94_ENERGY>
47.1147

> <PUBCHEM_FEATURE_SELFOVERLAP>
51.025

> <PUBCHEM_SHAPE_FINGERPRINT>
10165383 225 18196109745645457921
10319926 262 18270658949739199696
11582403 64 16479592917114490768
11725454 13 16841302573066095928
11796584 16 18271251504907979630
12173636 292 18337948987495729421
12236239 1 17676762158599919386
12500047 106 18340197519034110640
12553582 1 18120375608078292811
12714826 92 18270129022750157858
12788726 201 18192161592457401091
13140716 1 18122627416803328547
13878862 14 16969141441957759945
14178342 30 18409437086239656122
15042514 8 18265336290737067139
15842332 3 17822005424178431906
16752209 62 18336817675940493579
16945 1 18410852209328750035
1741750 31 18341049605980319849
18186145 218 17989212512279272168
19049666 15 17917436397534088562
20510252 161 18271523195168085017
20645477 56 18412267220205401673
20871999 31 18340782519370884812
21065201 7 18413107273465208418
21524375 3 18188207585720141009
22112679 90 17968093144562378524
22907989 373 18261100916037823157
2334 1 18338794495184673123
23366157 5 17898006824396684547
23402539 116 18341321301575064543
23419403 2 17057218241832418425
23526113 38 17489582329795049480
23557571 272 18272934968467726088
23559900 14 18201723895651675478
23598291 2 17676487254996920886
2748010 2 18194127317954133423
283562 15 18339918307711205267
350125 39 18266745667138190091
458136 41 17980212885410726041
559249 180 18335694989254958898
573450 72 18261663831747381250
57527295 17 17202206209526880444
59755656 520 17773050674074669609
6049 1 17917714655532951936
633830 44 17773593819417320233
7615 1 17894623794837506836
77492 1 17676482874014240720
81228 2 18338517568435670561
84936 182 17624123906919765153
90525 40 18259983768825942511
9709674 26 18273219707461248382
9862522 239 17896028846022641989

> <PUBCHEM_SHAPE_MULTIPOLES>
394.12
8.05
3.14
1.24
7.23
1.06
0.1
-3.12
0.48
-5.13
0.09
1.02
-0.63
-0.11

> <PUBCHEM_SHAPE_SELFOVERLAP>
868.025

> <PUBCHEM_SHAPE_VOLUME>
213.8

> <PUBCHEM_COORDINATE_TYPE>
2
5
10

$$$$
