49830854
  -OEChem-10062121533D

 30 32  0     0  0  0  0  0  0999 V2000
    4.8905    1.2420   -0.1319 F   0  0  0  0  0  0  0  0  0  0  0  0
   -1.4685   -2.8429   -0.0219 N   0  0  0  0  0  0  0  0  0  0  0  0
   -0.1453   -2.6105   -0.0579 N   0  0  0  0  0  0  0  0  0  0  0  0
   -0.8661    1.5555    0.6608 N   0  0  0  0  0  0  0  0  0  0  0  0
   -2.3975    3.3562    0.1925 N   0  0  0  0  0  0  0  0  0  0  0  0
   -1.3364   -0.6630    0.0201 C   0  0  0  0  0  0  0  0  0  0  0  0
   -0.0708   -1.2771   -0.0320 C   0  0  0  0  0  0  0  0  0  0  0  0
    1.2094   -0.6272   -0.0577 C   0  0  0  0  0  0  0  0  0  0  0  0
   -2.2261   -1.7095    0.0255 C   0  0  0  0  0  0  0  0  0  0  0  0
   -1.7326    0.7122    0.0620 C   0  0  0  0  0  0  0  0  0  0  0  0
    1.5259    0.2491   -1.0958 C   0  0  0  0  0  0  0  0  0  0  0  0
    2.1364   -0.8718    0.9555 C   0  0  0  0  0  0  0  0  0  0  0  0
   -1.9568   -4.2011   -0.0327 C   0  0  0  0  0  0  0  0  0  0  0  0
   -2.9343    1.1105   -0.4871 C   0  0  0  0  0  0  0  0  0  0  0  0
    2.7693    0.8805   -1.1210 C   0  0  0  0  0  0  0  0  0  0  0  0
    3.3799   -0.2404    0.9304 C   0  0  0  0  0  0  0  0  0  0  0  0
    3.6963    0.6356   -0.1078 C   0  0  0  0  0  0  0  0  0  0  0  0
   -3.2172    2.4578   -0.3917 C   0  0  0  0  0  0  0  0  0  0  0  0
   -1.2559    2.8442    0.6905 C   0  0  0  0  0  0  0  0  0  0  0  0
   -3.3066   -1.7551    0.0657 H   0  0  0  0  0  0  0  0  0  0  0  0
    0.8203    0.4487   -1.8990 H   0  0  0  0  0  0  0  0  0  0  0  0
    1.9068   -1.5485    1.7753 H   0  0  0  0  0  0  0  0  0  0  0  0
   -1.6125   -4.6829   -0.9512 H   0  0  0  0  0  0  0  0  0  0  0  0
   -1.5589   -4.7164    0.8451 H   0  0  0  0  0  0  0  0  0  0  0  0
   -3.0491   -4.1970   -0.0001 H   0  0  0  0  0  0  0  0  0  0  0  0
   -3.6281    0.4405   -0.9793 H   0  0  0  0  0  0  0  0  0  0  0  0
    3.0167    1.5618   -1.9297 H   0  0  0  0  0  0  0  0  0  0  0  0
    4.1017   -0.4299    1.7194 H   0  0  0  0  0  0  0  0  0  0  0  0
   -4.1372    2.8652   -0.7974 H   0  0  0  0  0  0  0  0  0  0  0  0
   -0.5784    3.5432    1.1652 H   0  0  0  0  0  0  0  0  0  0  0  0
  1 17  1  0  0  0  0
  2  3  1  0  0  0  0
  2  9  1  0  0  0  0
  2 13  1  0  0  0  0
  3  7  2  0  0  0  0
  4 10  2  0  0  0  0
  4 19  1  0  0  0  0
  5 18  1  0  0  0  0
  5 19  2  0  0  0  0
  6  7  1  0  0  0  0
  6  9  2  0  0  0  0
  6 10  1  0  0  0  0
  7  8  1  0  0  0  0
  8 11  2  0  0  0  0
  8 12  1  0  0  0  0
  9 20  1  0  0  0  0
 10 14  1  0  0  0  0
 11 15  1  0  0  0  0
 11 21  1  0  0  0  0
 12 16  2  0  0  0  0
 12 22  1  0  0  0  0
 13 23  1  0  0  0  0
 13 24  1  0  0  0  0
 13 25  1  0  0  0  0
 14 18  2  0  0  0  0
 14 26  1  0  0  0  0
 15 17  2  0  0  0  0
 15 27  1  0  0  0  0
 16 17  1  0  0  0  0
 16 28  1  0  0  0  0
 18 29  1  0  0  0  0
 19 30  1  0  0  0  0
M  END
> <PUBCHEM_COMPOUND_CID>
49830854

> <PUBCHEM_CONFORMER_RMSD>
0.6

> <PUBCHEM_CONFORMER_DIVERSEORDER>
1
6
4
8
2
5
7
3

> <PUBCHEM_MMFF94_PARTIAL_CHARGES>
27
1 -0.19
10 0.36
11 -0.15
12 -0.15
13 0.26
14 -0.15
15 -0.15
16 -0.15
17 0.19
18 0.16
19 0.47
2 0.31
20 0.15
21 0.15
22 0.15
26 0.15
27 0.15
28 0.15
29 0.15
3 -0.71
30 0.15
4 -0.62
5 -0.62
6 -0.05
7 0.23
8 0.05
9 -0.3

> <PUBCHEM_EFFECTIVE_ROTOR_COUNT>
2

> <PUBCHEM_PHARMACOPHORE_FEATURES>
6
1 3 acceptor
1 4 acceptor
3 4 5 19 cation
5 2 3 6 7 9 rings
6 4 5 10 14 18 19 rings
6 8 11 12 15 16 17 rings

> <PUBCHEM_HEAVY_ATOM_COUNT>
19

> <PUBCHEM_ATOM_DEF_STEREO_COUNT>
0

> <PUBCHEM_ATOM_UDEF_STEREO_COUNT>
0

> <PUBCHEM_BOND_DEF_STEREO_COUNT>
0

> <PUBCHEM_BOND_UDEF_STEREO_COUNT>
0

> <PUBCHEM_ISOTOPIC_ATOM_COUNT>
0

> <PUBCHEM_COMPONENT_COUNT>
1

> <PUBCHEM_CACTVS_TAUTO_COUNT>
1

> <PUBCHEM_CONFORMER_ID>
02F85BC600000001

> <PUBCHEM_MMFF94_ENERGY>
45.0162

> <PUBCHEM_FEATURE_SELFOVERLAP>
30.446

> <PUBCHEM_SHAPE_FINGERPRINT>
10090160 65 18191294984749250709
10162869 55 18198366112402265579
10319926 262 18198319906652795832
10411042 1 17834394901320644214
11370993 70 18192704549280420653
11640471 11 18040442074837733444
11725454 13 16770375290140626242
12173636 292 18410852123070721293
12553582 1 18049722120232474251
12788726 201 18189611807807971386
13140716 1 18123196972089156539
13538477 17 18335132111946203122
13583140 156 17631434796588681546
138480 1 16969704386997573513
13965767 371 17825950312801187476
14178342 30 18263065726390263178
14739800 52 18196350706965955520
14790565 3 18340217336425483177
15042514 8 18337399356373257163
15420108 30 17260154737340288067
15490181 8 18121781634373529691
15906896 17 18342447153963161815
16945 1 18411141371822153927
1741750 31 18411137996157148864
20510252 161 18341618122163689171
20600515 1 17626129772473768735
20671657 1 17691411810904704351
20905425 154 17836935864070702372
21524375 3 18188491246529029321
2255824 54 17619632384734662159
23352939 185 17623586640616871274
23402539 116 18200026382083194703
23419403 2 17272560896492823651
23557571 272 18201164363874965236
23558518 356 18260834786673896490
23559900 14 18272935995386402694
2748010 2 18121519976359975215
3071541 12 17691688883482102543
3091708 16 9199438409192356203
350125 39 18194981642388503627
352729 6 18339074870402109123
474 4 17977382729358681705
6333272 397 18265615377437193265
6442390 28 18055100712525032907
68521 5 18266459999793448079
6992083 37 18041276591357103628
7164475 11 18264777738855861830
7364860 26 17404859255174215427
81228 2 18198637694697259115
84936 182 17767677265696153145
90316 7 18195251237337980643
9981440 41 18265607672313194841

> <PUBCHEM_SHAPE_MULTIPOLES>
363.81
6.1
4.19
0.9
5.9
2.56
0.04
-3.64
0.25
-5.09
-0.25
0.46
-0.19
-0.43

> <PUBCHEM_SHAPE_SELFOVERLAP>
807.299

> <PUBCHEM_SHAPE_VOLUME>
195.9

> <PUBCHEM_COORDINATE_TYPE>
2
5
10

$$$$
