44352826
  -OEChem-10062121583D

 72 79  0     1  0  0  0  0  0999 V2000
   -0.0228   -0.2122    2.4188 O   0  0  0  0  0  0  0  0  0  0  0  0
   -1.2812    0.4204   -0.6044 O   0  0  0  0  0  0  0  0  0  0  0  0
    6.0423   -1.5172   -1.5316 O   0  0  0  0  0  0  0  0  0  0  0  0
   -4.8187    0.9413    0.8646 O   0  0  0  0  0  0  0  0  0  0  0  0
   -9.2257    0.4795   -1.5319 O   0  0  0  0  0  0  0  0  0  0  0  0
   -8.1005   -1.4010   -2.1263 O   0  0  0  0  0  0  0  0  0  0  0  0
    0.6422    1.4416    0.9247 N   0  0  0  0  0  0  0  0  0  0  0  0
    1.1143   -1.5209    0.8679 N   0  0  0  0  0  0  0  0  0  0  0  0
   -3.5677   -0.9830    0.4344 N   0  0  0  0  0  0  0  0  0  0  0  0
    6.0589    0.8174   -1.6873 N   0  0  0  0  0  0  0  0  0  0  0  0
   -0.4911    0.9118    1.6682 C   0  0  1  0  0  0  0  0  0  0  0  0
   -1.7086    0.5959    0.7537 C   0  0  2  0  0  0  0  0  0  0  0  0
   -0.0265   -1.4505    1.7520 C   0  0  2  0  0  0  0  0  0  0  0  0
   -2.3873   -0.6922    1.2112 C   0  0  2  0  0  0  0  0  0  0  0  0
   -1.3758   -1.8316    1.1259 C   0  0  0  0  0  0  0  0  0  0  0  0
    1.7717    0.8260    0.4377 C   0  0  0  0  0  0  0  0  0  0  0  0
    1.9923   -0.5823    0.4011 C   0  0  0  0  0  0  0  0  0  0  0  0
    2.8236    1.6141   -0.1635 C   0  0  0  0  0  0  0  0  0  0  0  0
    3.2371   -0.9961   -0.2257 C   0  0  0  0  0  0  0  0  0  0  0  0
    0.8392    2.7595    0.4871 C   0  0  0  0  0  0  0  0  0  0  0  0
   -0.9401    1.8300    2.8293 C   0  0  0  0  0  0  0  0  0  0  0  0
    1.7475   -2.7130    0.5016 C   0  0  0  0  0  0  0  0  0  0  0  0
    2.1487    2.9032   -0.0638 C   0  0  0  0  0  0  0  0  0  0  0  0
    4.0409    1.2026   -0.6964 C   0  0  0  0  0  0  0  0  0  0  0  0
    4.2412   -0.1688   -0.7240 C   0  0  0  0  0  0  0  0  0  0  0  0
    2.9964   -2.4412   -0.1317 C   0  0  0  0  0  0  0  0  0  0  0  0
    5.1888    1.9170   -1.3271 C   0  0  0  0  0  0  0  0  0  0  0  0
   -0.0325    3.8683    0.5084 C   0  0  0  0  0  0  0  0  0  0  0  0
    5.5355   -0.4274   -1.3516 C   0  0  0  0  0  0  0  0  0  0  0  0
    1.3094   -4.0387    0.7057 C   0  0  0  0  0  0  0  0  0  0  0  0
    2.5632    4.1906   -0.4907 C   0  0  0  0  0  0  0  0  0  0  0  0
   -3.5684   -2.2692   -0.2688 C   0  0  0  0  0  0  0  0  0  0  0  0
   -4.7020   -0.1545    0.3100 C   0  0  0  0  0  0  0  0  0  0  0  0
    3.7630   -3.5571   -0.5549 C   0  0  0  0  0  0  0  0  0  0  0  0
   -2.3558    0.5979   -1.5183 C   0  0  0  0  0  0  0  0  0  0  0  0
    0.4126    5.1175    0.0685 C   0  0  0  0  0  0  0  0  0  0  0  0
    1.7007    5.2832   -0.4103 C   0  0  0  0  0  0  0  0  0  0  0  0
    2.1012   -5.1012    0.2727 C   0  0  0  0  0  0  0  0  0  0  0  0
    3.3139   -4.8650   -0.3514 C   0  0  0  0  0  0  0  0  0  0  0  0
   -5.8163   -0.6954   -0.5805 C   0  0  0  0  0  0  0  0  0  0  0  0
   -7.0222    0.2394   -0.6822 C   0  0  0  0  0  0  0  0  0  0  0  0
   -8.1412   -0.3391   -1.5209 C   0  0  0  0  0  0  0  0  0  0  0  0
   -2.3837    1.4584    0.7880 H   0  0  0  0  0  0  0  0  0  0  0  0
    0.1852   -2.1853    2.5394 H   0  0  0  0  0  0  0  0  0  0  0  0
   -2.7243   -0.5683    2.2482 H   0  0  0  0  0  0  0  0  0  0  0  0
   -1.7575   -2.7068    1.6677 H   0  0  0  0  0  0  0  0  0  0  0  0
   -1.1655   -2.1624    0.1047 H   0  0  0  0  0  0  0  0  0  0  0  0
   -0.0767    2.1848    3.4056 H   0  0  0  0  0  0  0  0  0  0  0  0
   -1.5741    1.2784    3.5354 H   0  0  0  0  0  0  0  0  0  0  0  0
   -1.5167    2.6991    2.5108 H   0  0  0  0  0  0  0  0  0  0  0  0
    4.9003    2.4521   -2.2350 H   0  0  0  0  0  0  0  0  0  0  0  0
    5.7107    2.5703   -0.6239 H   0  0  0  0  0  0  0  0  0  0  0  0
   -1.0593    3.7775    0.8419 H   0  0  0  0  0  0  0  0  0  0  0  0
    0.3613   -4.2455    1.1936 H   0  0  0  0  0  0  0  0  0  0  0  0
    3.5556    4.3346   -0.9104 H   0  0  0  0  0  0  0  0  0  0  0  0
   -4.4706   -2.5125   -0.8247 H   0  0  0  0  0  0  0  0  0  0  0  0
   -3.4706   -3.0802    0.4597 H   0  0  0  0  0  0  0  0  0  0  0  0
   -2.7689   -2.3145   -1.0118 H   0  0  0  0  0  0  0  0  0  0  0  0
    4.7174   -3.4212   -1.0508 H   0  0  0  0  0  0  0  0  0  0  0  0
    6.9586    0.9399   -2.1411 H   0  0  0  0  0  0  0  0  0  0  0  0
   -1.9100    1.0114   -2.4304 H   0  0  0  0  0  0  0  0  0  0  0  0
   -3.0974    1.3327   -1.1947 H   0  0  0  0  0  0  0  0  0  0  0  0
   -2.7987   -0.3438   -1.8325 H   0  0  0  0  0  0  0  0  0  0  0  0
   -0.2649    5.9669    0.0986 H   0  0  0  0  0  0  0  0  0  0  0  0
    2.0334    6.2598   -0.7501 H   0  0  0  0  0  0  0  0  0  0  0  0
    1.7618   -6.1217    0.4274 H   0  0  0  0  0  0  0  0  0  0  0  0
    3.9228   -5.7001   -0.6864 H   0  0  0  0  0  0  0  0  0  0  0  0
   -5.4247   -0.8529   -1.5922 H   0  0  0  0  0  0  0  0  0  0  0  0
   -6.1718   -1.6448   -0.1630 H   0  0  0  0  0  0  0  0  0  0  0  0
   -6.7165    1.1918   -1.1299 H   0  0  0  0  0  0  0  0  0  0  0  0
   -7.4188    0.4384    0.3202 H   0  0  0  0  0  0  0  0  0  0  0  0
   -9.9548    0.1125   -2.0761 H   0  0  0  0  0  0  0  0  0  0  0  0
  1 11  1  0  0  0  0
  1 13  1  0  0  0  0
  2 12  1  0  0  0  0
  2 35  1  0  0  0  0
  3 29  2  0  0  0  0
  4 33  2  0  0  0  0
  5 42  1  0  0  0  0
  5 72  1  0  0  0  0
  6 42  2  0  0  0  0
  7 11  1  0  0  0  0
  7 16  1  0  0  0  0
  7 20  1  0  0  0  0
  8 13  1  0  0  0  0
  8 17  1  0  0  0  0
  8 22  1  0  0  0  0
  9 14  1  0  0  0  0
  9 32  1  0  0  0  0
  9 33  1  0  0  0  0
 10 27  1  0  0  0  0
 10 29  1  0  0  0  0
 10 60  1  0  0  0  0
 11 12  1  0  0  0  0
 11 21  1  0  0  0  0
 12 14  1  0  0  0  0
 12 43  1  0  0  0  0
 13 15  1  0  0  0  0
 13 44  1  0  0  0  0
 14 15  1  0  0  0  0
 14 45  1  0  0  0  0
 15 46  1  0  0  0  0
 15 47  1  0  0  0  0
 16 17  2  0  0  0  0
 16 18  1  0  0  0  0
 17 19  1  0  0  0  0
 18 23  1  0  0  0  0
 18 24  2  0  0  0  0
 19 25  2  0  0  0  0
 19 26  1  0  0  0  0
 20 23  1  0  0  0  0
 20 28  2  0  0  0  0
 21 48  1  0  0  0  0
 21 49  1  0  0  0  0
 21 50  1  0  0  0  0
 22 26  1  0  0  0  0
 22 30  2  0  0  0  0
 23 31  2  0  0  0  0
 24 25  1  0  0  0  0
 24 27  1  0  0  0  0
 25 29  1  0  0  0  0
 26 34  2  0  0  0  0
 27 51  1  0  0  0  0
 27 52  1  0  0  0  0
 28 36  1  0  0  0  0
 28 53  1  0  0  0  0
 30 38  1  0  0  0  0
 30 54  1  0  0  0  0
 31 37  1  0  0  0  0
 31 55  1  0  0  0  0
 32 56  1  0  0  0  0
 32 57  1  0  0  0  0
 32 58  1  0  0  0  0
 33 40  1  0  0  0  0
 34 39  1  0  0  0  0
 34 59  1  0  0  0  0
 35 61  1  0  0  0  0
 35 62  1  0  0  0  0
 35 63  1  0  0  0  0
 36 37  2  0  0  0  0
 36 64  1  0  0  0  0
 37 65  1  0  0  0  0
 38 39  2  0  0  0  0
 38 66  1  0  0  0  0
 39 67  1  0  0  0  0
 40 41  1  0  0  0  0
 40 68  1  0  0  0  0
 40 69  1  0  0  0  0
 41 42  1  0  0  0  0
 41 70  1  0  0  0  0
 41 71  1  0  0  0  0
M  END
> <PUBCHEM_COMPOUND_CID>
44352826

> <PUBCHEM_CONFORMER_RMSD>
1

> <PUBCHEM_CONFORMER_DIVERSEORDER>
2
6
3
10
7
5
1
9
8
4

> <PUBCHEM_MMFF94_PARTIAL_CHARGES>
48
1 -0.56
10 -0.73
11 0.54
12 0.28
13 0.54
14 0.3
16 -0.05
17 -0.05
18 -0.01
19 -0.01
2 -0.56
20 -0.15
22 -0.15
24 -0.14
25 0.09
27 0.44
28 -0.15
29 0.54
3 -0.57
30 -0.15
31 -0.15
32 0.3
33 0.57
34 -0.15
35 0.28
36 -0.15
37 -0.15
38 -0.15
39 -0.15
4 -0.57
40 0.06
41 0.06
42 0.66
5 -0.65
53 0.15
54 0.15
55 0.15
59 0.15
6 -0.57
60 0.37
64 0.15
65 0.15
66 0.15
67 0.15
7 -0.04
72 0.5
8 -0.04
9 -0.66

> <PUBCHEM_EFFECTIVE_ROTOR_COUNT>
7.2

> <PUBCHEM_PHARMACOPHORE_FEATURES>
18
1 1 acceptor
1 10 donor
1 2 acceptor
1 3 acceptor
1 4 acceptor
1 5 acceptor
1 6 acceptor
1 7 cation
1 8 cation
3 5 6 42 anion
5 10 24 25 27 29 rings
5 7 16 18 20 23 rings
5 8 17 19 22 26 rings
6 1 11 12 13 14 15 rings
6 16 17 18 19 24 25 rings
6 20 23 28 31 36 37 rings
6 22 26 30 34 38 39 rings
7 1 7 8 11 13 16 17 rings

> <PUBCHEM_HEAVY_ATOM_COUNT>
42

> <PUBCHEM_ATOM_DEF_STEREO_COUNT>
4

> <PUBCHEM_ATOM_UDEF_STEREO_COUNT>
0

> <PUBCHEM_BOND_DEF_STEREO_COUNT>
0

> <PUBCHEM_BOND_UDEF_STEREO_COUNT>
0

> <PUBCHEM_ISOTOPIC_ATOM_COUNT>
0

> <PUBCHEM_COMPONENT_COUNT>
1

> <PUBCHEM_CACTVS_TAUTO_COUNT>
2

> <PUBCHEM_CONFORMER_ID>
02A4C53A00000002

> <PUBCHEM_MMFF94_ENERGY>
189.6186

> <PUBCHEM_FEATURE_SELFOVERLAP>
92.365

> <PUBCHEM_SHAPE_FINGERPRINT>
10622 236 18056192480364314179
10675989 125 18409174315777266048
10693767 8 18201722825530203014
10930396 42 18268410487516497768
11115154 58 17917716786512178921
11135609 187 18337964492770753464
11445158 3 17177485013400436280
11513181 2 17836100974563923846
11621639 179 18042109991808418109
12608794 3 17905012066923446188
1361 2 18339083799570136424
13911987 19 18190204415253889372
14068700 675 18060142016103890688
14117953 113 18410014347577982558
14400156 96 11815308530621553835
14415360 78 18120366816201143252
15082195 135 18339352068050354923
15183329 4 18412262831587166341
15324884 4 17608385862214253184
15328829 1 17630917965714302763
15351339 4 18188487960858222048
15439362 3 18050850223579112388
15444296 8 17622176667394727230
15484559 13 18411134762242577574
15927050 60 17616552666272850132
15950262 2 15287070465740260934
20775438 99 17481976149020327270
21133410 171 17464224176981174427
22121540 332 17314485124873658285
23522609 53 17915762920031729841
23559900 14 18339927146416342505
24771750 20 17899715727575025429
3388396 114 18265352624755552982
3882209 13 17900243227222092858
4066623 53 18114738214346184684
4353968 344 18195822774070724542
46194498 28 18260537893223197967
463206 1 18410022056517225678
57527452 28 16271934813180813604
6004065 56 18340207500501514640
70251023 43 18193558857041109738

> <PUBCHEM_SHAPE_MULTIPOLES>
809.2
15.02
6.44
1.74
37.32
1.3
-0.45
-4.15
13.67
-8.68
-0.13
1.21
0.16
-0.81

> <PUBCHEM_SHAPE_SELFOVERLAP>
1837.983

> <PUBCHEM_SHAPE_VOLUME>
419.8

> <PUBCHEM_COORDINATE_TYPE>
2
5
10

$$$$
