5330391
  -OEChem-10062121593D

 49 52  0     0  0  0  0  0  0999 V2000
   -1.4469    2.6873   -1.1768 Cl  0  0  0  0  0  0  0  0  0  0  0  0
   -2.1376   -2.3723   -0.7621 N   0  0  0  0  0  0  0  0  0  0  0  0
   -4.4668    0.1182    0.2176 N   0  0  0  0  0  0  0  0  0  0  0  0
   -3.6256   -0.1051    1.2309 N   0  0  0  0  0  0  0  0  0  0  0  0
    0.3526   -4.4776    0.9655 N   0  0  0  0  0  0  0  0  0  0  0  0
    2.4653   -0.3386    0.0339 N   0  0  0  0  0  0  0  0  0  0  0  0
    3.4962    1.8093   -0.1175 N   0  0  0  0  0  0  0  0  0  0  0  0
    5.0100   -1.5119   -0.0864 N   0  0  0  0  0  0  0  0  0  0  0  0
   -3.7692   -0.9575   -1.9043 C   0  0  0  0  0  0  0  0  0  0  0  0
   -2.3188   -1.1228   -1.4608 C   0  0  0  0  0  0  0  0  0  0  0  0
   -4.7458   -0.9601   -0.7263 C   0  0  0  0  0  0  0  0  0  0  0  0
   -0.9254   -2.7922   -0.2375 C   0  0  0  0  0  0  0  0  0  0  0  0
    0.2337   -2.0152   -0.3522 C   0  0  0  0  0  0  0  0  0  0  0  0
    1.4361   -2.4624    0.1842 C   0  0  0  0  0  0  0  0  0  0  0  0
   -4.9901    1.3664    0.1722 C   0  0  0  0  0  0  0  0  0  0  0  0
   -0.7979   -4.0098    0.4316 C   0  0  0  0  0  0  0  0  0  0  0  0
    2.6403   -1.6730    0.0748 C   0  0  0  0  0  0  0  0  0  0  0  0
   -4.4485    2.0256    1.2487 C   0  0  0  0  0  0  0  0  0  0  0  0
    1.4425   -3.6897    0.8276 C   0  0  0  0  0  0  0  0  0  0  0  0
   -3.6164    1.0711    1.8636 C   0  0  0  0  0  0  0  0  0  0  0  0
    3.5878    0.4005   -0.0686 C   0  0  0  0  0  0  0  0  0  0  0  0
    3.8875   -2.2510    0.0161 C   0  0  0  0  0  0  0  0  0  0  0  0
    2.4027    2.6938   -0.0798 C   0  0  0  0  0  0  0  0  0  0  0  0
    4.8376   -0.1758   -0.1277 C   0  0  0  0  0  0  0  0  0  0  0  0
    1.1631    2.2993   -0.5882 C   0  0  0  0  0  0  0  0  0  0  0  0
    2.5530    3.9698    0.4675 C   0  0  0  0  0  0  0  0  0  0  0  0
    0.0793    3.1764   -0.5495 C   0  0  0  0  0  0  0  0  0  0  0  0
    1.4691    4.8471    0.5060 C   0  0  0  0  0  0  0  0  0  0  0  0
    0.2324    4.4503   -0.0025 C   0  0  0  0  0  0  0  0  0  0  0  0
   -4.0434   -1.7687   -2.5896 H   0  0  0  0  0  0  0  0  0  0  0  0
   -3.8635   -0.0184   -2.4630 H   0  0  0  0  0  0  0  0  0  0  0  0
   -1.6919   -1.1128   -2.3611 H   0  0  0  0  0  0  0  0  0  0  0  0
   -2.0044   -0.2777   -0.8421 H   0  0  0  0  0  0  0  0  0  0  0  0
   -5.7694   -0.8117   -1.0899 H   0  0  0  0  0  0  0  0  0  0  0  0
   -4.7347   -1.9023   -0.1681 H   0  0  0  0  0  0  0  0  0  0  0  0
   -2.9128   -3.0238   -0.7084 H   0  0  0  0  0  0  0  0  0  0  0  0
    0.2005   -1.0629   -0.8747 H   0  0  0  0  0  0  0  0  0  0  0  0
   -5.6824    1.6840   -0.5953 H   0  0  0  0  0  0  0  0  0  0  0  0
   -1.6530   -4.6674    0.5610 H   0  0  0  0  0  0  0  0  0  0  0  0
   -4.6288    3.0488    1.5430 H   0  0  0  0  0  0  0  0  0  0  0  0
    2.3316   -4.1041    1.2928 H   0  0  0  0  0  0  0  0  0  0  0  0
   -3.0026    1.1840    2.7457 H   0  0  0  0  0  0  0  0  0  0  0  0
    4.0582   -3.3209    0.0265 H   0  0  0  0  0  0  0  0  0  0  0  0
    4.3794    2.2666    0.0961 H   0  0  0  0  0  0  0  0  0  0  0  0
    5.7483    0.4063   -0.2114 H   0  0  0  0  0  0  0  0  0  0  0  0
    1.0278    1.3278   -1.0535 H   0  0  0  0  0  0  0  0  0  0  0  0
    3.5105    4.2925    0.8686 H   0  0  0  0  0  0  0  0  0  0  0  0
    1.5882    5.8388    0.9324 H   0  0  0  0  0  0  0  0  0  0  0  0
   -0.6034    5.1443    0.0346 H   0  0  0  0  0  0  0  0  0  0  0  0
  1 27  1  0  0  0  0
  2 10  1  0  0  0  0
  2 12  1  0  0  0  0
  2 36  1  0  0  0  0
  3  4  1  0  0  0  0
  3 11  1  0  0  0  0
  3 15  1  0  0  0  0
  4 20  2  0  0  0  0
  5 16  1  0  0  0  0
  5 19  2  0  0  0  0
  6 17  1  0  0  0  0
  6 21  2  0  0  0  0
  7 21  1  0  0  0  0
  7 23  1  0  0  0  0
  7 44  1  0  0  0  0
  8 22  1  0  0  0  0
  8 24  2  0  0  0  0
  9 10  1  0  0  0  0
  9 11  1  0  0  0  0
  9 30  1  0  0  0  0
  9 31  1  0  0  0  0
 10 32  1  0  0  0  0
 10 33  1  0  0  0  0
 11 34  1  0  0  0  0
 11 35  1  0  0  0  0
 12 13  1  0  0  0  0
 12 16  2  0  0  0  0
 13 14  2  0  0  0  0
 13 37  1  0  0  0  0
 14 17  1  0  0  0  0
 14 19  1  0  0  0  0
 15 18  2  0  0  0  0
 15 38  1  0  0  0  0
 16 39  1  0  0  0  0
 17 22  2  0  0  0  0
 18 20  1  0  0  0  0
 18 40  1  0  0  0  0
 19 41  1  0  0  0  0
 20 42  1  0  0  0  0
 21 24  1  0  0  0  0
 22 43  1  0  0  0  0
 23 25  2  0  0  0  0
 23 26  1  0  0  0  0
 24 45  1  0  0  0  0
 25 27  1  0  0  0  0
 25 46  1  0  0  0  0
 26 28  2  0  0  0  0
 26 47  1  0  0  0  0
 27 29  2  0  0  0  0
 28 29  1  0  0  0  0
 28 48  1  0  0  0  0
 29 49  1  0  0  0  0
M  END
> <PUBCHEM_COMPOUND_CID>
5330391

> <PUBCHEM_CONFORMER_RMSD>
1.2

> <PUBCHEM_CONFORMER_DIVERSEORDER>
1
16
222
188
98
225
24
15
244
283
81
264
61
298
132
195
21
117
295
169
293
122
196
149
273
51
292
141
269
53
83
25
210
279
45
233
142
184
29
68
248
55
263
71
256
28
281
105
106
190
239
299
59
96
47
26
164
257
181
87
251
147
245
125
95
243
63
176
291
17
171
85
5
126
13
86
308
165
75
300
62
44
261
14
214
192
288
111
255
167
76
3
82
193
250
178
232
314
185
148
172
34
20
252
229
241
304
72
153
4
249
93
287
39
42
182
259
108
139
175
297
220
151
194
198
238
186
101
258
115
216
226
130
12
67
307
219
161
2
211
296
212
159
40
207
313
305
208
22
274
170
88
58
90
145
154
301
157
18
223
138
64
150
276
228
265
124
200
309
144
187
224
311
266
31
43
242
146
275
191
284
174
177
315
110
131
180
260
262
271
277
303
94
201
54
173
56
114
294
268
162
166
32
137
206
112
6
240
152
286
280
113
254
227
35
215
127
136
10
217
234
160
128
109
123
102
60
133
231
11
189
140
8
289
77
270
183
37
306
33
312
158
104
135
48
143
92
310
73
7
199
155
247
230
38
246
121
218
27
168
57
267
30
236
78
91
205
49
202
19
107
79
272
46
9
285
99
221
89
119
282
80
118
116
179
203
134
302
290
235
197
84
253
163
120
74
50
70
278
213
97
66
23
36
129
100
65
204
209
41
52
69
156
237
103

> <PUBCHEM_MMFF94_PARTIAL_CHARGES>
41
1 -0.18
10 0.37
11 0.26
12 0.1
13 -0.15
15 -0.3
16 0.16
17 0.31
18 -0.15
19 0.16
2 -0.87
20 0.14
21 0.41
22 0.16
23 0.1
24 0.16
25 -0.15
26 -0.15
27 0.18
28 -0.15
29 -0.15
3 0.31
36 0.4
37 0.15
38 0.15
39 0.15
4 -0.71
40 0.15
41 0.15
42 0.15
43 0.15
44 0.4
45 0.15
46 0.15
47 0.15
48 0.15
49 0.15
5 -0.62
6 -0.62
7 -0.6
8 -0.62

> <PUBCHEM_EFFECTIVE_ROTOR_COUNT>
8

> <PUBCHEM_PHARMACOPHORE_FEATURES>
11
1 2 cation
1 2 donor
1 4 acceptor
1 5 acceptor
1 7 donor
1 8 acceptor
3 6 7 21 cation
5 3 4 15 18 20 rings
6 23 25 26 27 28 29 rings
6 5 12 13 14 16 19 rings
6 6 8 17 21 22 24 rings

> <PUBCHEM_HEAVY_ATOM_COUNT>
29

> <PUBCHEM_ATOM_DEF_STEREO_COUNT>
0

> <PUBCHEM_ATOM_UDEF_STEREO_COUNT>
0

> <PUBCHEM_BOND_DEF_STEREO_COUNT>
0

> <PUBCHEM_BOND_UDEF_STEREO_COUNT>
0

> <PUBCHEM_ISOTOPIC_ATOM_COUNT>
0

> <PUBCHEM_COMPONENT_COUNT>
1

> <PUBCHEM_CACTVS_TAUTO_COUNT>
2

> <PUBCHEM_CONFORMER_ID>
005155D700000001

> <PUBCHEM_MMFF94_ENERGY>
88.0407

> <PUBCHEM_FEATURE_SELFOVERLAP>
55.822

> <PUBCHEM_SHAPE_FINGERPRINT>
10006869 2 17762615093240482077
10439779 11 18124583430809350928
10708813 3 18342179981475336201
10794284 68 16750156091609039570
1100329 8 18410576219019878168
11059048 146 17832721431622054276
11513181 2 17843409737342976678
12539773 59 17846493777338440541
12788726 201 18336262328818008758
13122387 1 17402048894489327404
13590594 115 17834396713802351994
1361 2 18410012152301308809
14040222 75 17621891885667959261
14117953 113 18054511296915003413
14790565 3 18336555962287900468
15274700 232 16323160712418514590
15297060 5 16844453726489832075
15320467 1 18410575102080688761
15475509 84 17397544204077777859
16067690 210 16128383631731344401
16112460 7 18340482370056037424
20764821 26 18192978349145038908
21585483 110 18263638468869353381
21796203 349 18048071568964646680
21860390 5 18272375308353557782
25265897 201 17771942477790938959
3246872 21 18267867189977499025
3493558 16 17905321085034855071
437795 70 17914642504497534902
463206 1 18409736148759426944
474 4 18411135810256685259
5309563 4 18266463092291402417
9896288 288 17694222167485113736
9961470 85 18124304167466620801

> <PUBCHEM_SHAPE_MULTIPOLES>
563.81
9.49
7.14
1.23
4.42
2.71
0.02
0.17
-0.6
-3.75
-1.2
1.66
-0.02
-1.16

> <PUBCHEM_SHAPE_SELFOVERLAP>
1214.896

> <PUBCHEM_SHAPE_VOLUME>
308.5

> <PUBCHEM_COORDINATE_TYPE>
2
5
10

$$$$
