136027071
  -OEChem-10062121533D

 25 27  0     0  0  0  0  0  0999 V2000
   -2.7281    3.4656   -0.4619 I   0  0  0  0  0  0  0  0  0  0  0  0
    4.9012    1.9722    0.7899 Cl  0  0  0  0  0  0  0  0  0  0  0  0
   -3.0102   -2.6171    0.4316 O   0  0  0  0  0  0  0  0  0  0  0  0
   -1.8012   -0.7235    0.1062 N   0  0  0  0  0  0  0  0  0  0  0  0
   -0.3696    0.9623   -0.2008 N   0  0  0  0  0  0  0  0  0  0  0  0
   -4.0901   -0.5511    0.1803 N   0  0  0  0  0  0  0  0  0  0  0  0
   -1.6454    0.6411   -0.0986 C   0  0  0  0  0  0  0  0  0  0  0  0
    0.3183   -0.2124   -0.0600 C   0  0  0  0  0  0  0  0  0  0  0  0
   -0.5391   -1.2673    0.1304 C   0  0  0  0  0  0  0  0  0  0  0  0
    1.7434   -0.3154   -0.1049 C   0  0  0  0  0  0  0  0  0  0  0  0
   -3.0106   -1.4085    0.2581 C   0  0  0  0  0  0  0  0  0  0  0  0
   -2.8252    1.4310   -0.1620 C   0  0  0  0  0  0  0  0  0  0  0  0
   -4.0039    0.8057   -0.0203 C   0  0  0  0  0  0  0  0  0  0  0  0
    2.5340    0.7539    0.3161 C   0  0  0  0  0  0  0  0  0  0  0  0
    2.3434   -1.4858   -0.5699 C   0  0  0  0  0  0  0  0  0  0  0  0
    3.9245    0.6530    0.2723 C   0  0  0  0  0  0  0  0  0  0  0  0
    3.7339   -1.5866   -0.6139 C   0  0  0  0  0  0  0  0  0  0  0  0
    4.5246   -0.5173   -0.1927 C   0  0  0  0  0  0  0  0  0  0  0  0
   -0.3806   -2.3266    0.2848 H   0  0  0  0  0  0  0  0  0  0  0  0
   -5.0225   -0.9432    0.2772 H   0  0  0  0  0  0  0  0  0  0  0  0
   -4.9583    1.3186   -0.0535 H   0  0  0  0  0  0  0  0  0  0  0  0
    2.0741    1.6693    0.6837 H   0  0  0  0  0  0  0  0  0  0  0  0
    1.7580   -2.3333   -0.9173 H   0  0  0  0  0  0  0  0  0  0  0  0
    4.2014   -2.4966   -0.9787 H   0  0  0  0  0  0  0  0  0  0  0  0
    5.6069   -0.6100   -0.2334 H   0  0  0  0  0  0  0  0  0  0  0  0
  1 12  1  0  0  0  0
  2 16  1  0  0  0  0
  3 11  2  0  0  0  0
  4  7  1  0  0  0  0
  4  9  1  0  0  0  0
  4 11  1  0  0  0  0
  5  7  2  0  0  0  0
  5  8  1  0  0  0  0
  6 11  1  0  0  0  0
  6 13  1  0  0  0  0
  6 20  1  0  0  0  0
  7 12  1  0  0  0  0
  8  9  2  0  0  0  0
  8 10  1  0  0  0  0
  9 19  1  0  0  0  0
 10 14  2  0  0  0  0
 10 15  1  0  0  0  0
 12 13  2  0  0  0  0
 13 21  1  0  0  0  0
 14 16  1  0  0  0  0
 14 22  1  0  0  0  0
 15 17  2  0  0  0  0
 15 23  1  0  0  0  0
 16 18  2  0  0  0  0
 17 18  1  0  0  0  0
 17 24  1  0  0  0  0
 18 25  1  0  0  0  0
M  END
> <PUBCHEM_COMPOUND_CID>
136027071

> <PUBCHEM_CONFORMER_RMSD>
0.6

> <PUBCHEM_CONFORMER_DIVERSEORDER>
1
5
4
2
3
6

> <PUBCHEM_MMFF94_PARTIAL_CHARGES>
25
1 -0.09
10 0.05
11 0.64
12 0.14
13 -0.04
14 -0.15
15 -0.15
16 0.18
17 -0.15
18 -0.15
19 0.15
2 -0.18
20 0.37
21 0.15
22 0.15
23 0.15
24 0.15
25 0.15
3 -0.57
4 0.29
5 -0.57
6 -0.54
7 0.14
8 0.17
9 -0.3

> <PUBCHEM_EFFECTIVE_ROTOR_COUNT>
1

> <PUBCHEM_PHARMACOPHORE_FEATURES>
6
1 1 hydrophobe
1 3 acceptor
1 6 donor
5 4 5 7 8 9 rings
6 10 14 15 16 17 18 rings
6 4 6 7 11 12 13 rings

> <PUBCHEM_HEAVY_ATOM_COUNT>
18

> <PUBCHEM_ATOM_DEF_STEREO_COUNT>
0

> <PUBCHEM_ATOM_UDEF_STEREO_COUNT>
0

> <PUBCHEM_BOND_DEF_STEREO_COUNT>
0

> <PUBCHEM_BOND_UDEF_STEREO_COUNT>
0

> <PUBCHEM_ISOTOPIC_ATOM_COUNT>
0

> <PUBCHEM_COMPONENT_COUNT>
1

> <PUBCHEM_CACTVS_TAUTO_COUNT>
-1

> <PUBCHEM_CONFORMER_ID>
081B9BBF00000001

> <PUBCHEM_MMFF94_ENERGY>
38.8757

> <PUBCHEM_FEATURE_SELFOVERLAP>
30.572

> <PUBCHEM_SHAPE_FINGERPRINT>
10319926 262 18337655444335773898
10608611 8 18412542089822922420
10646746 165 18337108969418054332
10670039 82 18262811778139015068
11132069 177 18261111880772740021
11405975 8 18338234865103750466
11595378 159 17749376053776705544
11615757 297 17203612605284510042
12107183 9 17684638840947561554
12173636 292 18335980853313264661
12390115 104 18126018061487266649
12403259 415 18339644442894452948
12500047 106 18263925427848718581
12507560 40 18413387631618429892
13081056 2 18341332214849592924
13214271 11 18340763844436181351
14178342 30 18186518791567831922
14289901 80 18260554432888572826
14866123 147 16254769998258735326
15042514 8 18334586767533648963
15196674 1 18412263938855239922
15219456 202 18342739615624093918
15375358 24 18412544310157575126
15536298 74 18413390930089964190
15961568 22 18115590482330633396
18186145 218 18128542574158620112
200 152 17561360664832752207
20510252 161 18340769248017061065
20645477 56 18336832970487930653
20645477 70 17489308530141369782
21065198 57 18410855417642816462
21065199 12 18411700989239545778
21065201 7 18334295336347797506
21267235 1 18410023121268091046
221490 88 18341621412647104198
22182937 141 18198065776873560649
22943178 12 18342457015423928582
23402539 116 18262509402911807950
23557571 272 18340776957230117436
23559900 14 18198622130110337614
245318 6 16665444725364012676
335352 9 17977666403252886902
3545911 37 18411984654639053772
4214541 1 18338800009484850788
474 4 16734125607470350236
495365 180 17702365300549309538
5104073 3 18411419505736269794
5281201 14 18201163152836788196
6438718 38 15553337894963477857
69090 78 18343299254026088759
77779 3 18412546500759434766
9709674 26 18270403789130760358

> <PUBCHEM_SHAPE_MULTIPOLES>
363.42
9.74
2.96
0.75
5.74
1.6
-0.02
2.33
0.54
-2.41
-0.04
0.24
0.11
1.56

> <PUBCHEM_SHAPE_SELFOVERLAP>
777.663

> <PUBCHEM_SHAPE_VOLUME>
207.7

> <PUBCHEM_COORDINATE_TYPE>
2
5
10

$$$$
