21907506
  -OEChem-10062121553D

 52 55  0     0  0  0  0  0  0999 V2000
    7.8153   -1.4586   -1.3033 O   0  0  0  0  0  0  0  0  0  0  0  0
   -2.5804   -0.9339    0.5514 O   0  0  0  0  0  0  0  0  0  0  0  0
    5.6191   -1.2763   -2.1283 N   0  0  0  0  0  0  0  0  0  0  0  0
   -1.6235    1.0720   -0.1905 N   0  0  0  0  0  0  0  0  0  0  0  0
   -3.9138    0.7907   -0.2952 N   0  0  0  0  0  0  0  0  0  0  0  0
    4.6863   -0.3295   -0.2662 C   0  0  0  0  0  0  0  0  0  0  0  0
    3.8732    0.2366    0.6971 C   0  0  0  0  0  0  0  0  0  0  0  0
    4.3424   -0.7900   -1.6404 C   0  0  0  0  0  0  0  0  0  0  0  0
    6.0417   -0.5405   -0.0081 C   0  0  0  0  0  0  0  0  0  0  0  0
    2.4662    0.4690    0.4607 C   0  0  0  0  0  0  0  0  0  0  0  0
    6.6438   -1.1472   -1.1990 C   0  0  0  0  0  0  0  0  0  0  0  0
    2.0167    1.6722   -0.0835 C   0  0  0  0  0  0  0  0  0  0  0  0
    4.4489    0.5857    1.9235 C   0  0  0  0  0  0  0  0  0  0  0  0
    6.6351   -0.2052    1.1930 C   0  0  0  0  0  0  0  0  0  0  0  0
    5.8173    0.3667    2.1688 C   0  0  0  0  0  0  0  0  0  0  0  0
    1.5526   -0.5332    0.7871 C   0  0  0  0  0  0  0  0  0  0  0  0
    0.6538    1.8731   -0.3012 C   0  0  0  0  0  0  0  0  0  0  0  0
   -0.2599    0.8709    0.0253 C   0  0  0  0  0  0  0  0  0  0  0  0
    0.1896   -0.3322    0.5693 C   0  0  0  0  0  0  0  0  0  0  0  0
    2.9665    2.7690   -0.4451 C   0  0  0  0  0  0  0  0  0  0  0  0
   -5.2180    0.2509   -0.1969 C   0  0  0  0  0  0  0  0  0  0  0  0
   -2.6995    0.1894    0.0725 C   0  0  0  0  0  0  0  0  0  0  0  0
   -7.6025    0.4688   -0.5185 C   0  0  0  0  0  0  0  0  0  0  0  0
   -6.6908   -1.5626    0.4189 C   0  0  0  0  0  0  0  0  0  0  0  0
   -5.4050   -1.0308    0.3208 C   0  0  0  0  0  0  0  0  0  0  0  0
   -6.3168    1.0007   -0.6164 C   0  0  0  0  0  0  0  0  0  0  0  0
   -7.7896   -0.8128   -0.0007 C   0  0  0  0  0  0  0  0  0  0  0  0
   -8.7776    1.2701   -0.9678 C   0  0  0  0  0  0  0  0  0  0  0  0
   -6.8911   -2.9329    0.9730 C   0  0  0  0  0  0  0  0  0  0  0  0
    4.0097    0.0242   -2.2889 H   0  0  0  0  0  0  0  0  0  0  0  0
    3.6308   -1.6195   -1.6412 H   0  0  0  0  0  0  0  0  0  0  0  0
    5.7515   -1.6708   -3.0542 H   0  0  0  0  0  0  0  0  0  0  0  0
    3.8456    1.0347    2.7102 H   0  0  0  0  0  0  0  0  0  0  0  0
    7.6891   -0.3750    1.3789 H   0  0  0  0  0  0  0  0  0  0  0  0
    6.2402    0.6472    3.1298 H   0  0  0  0  0  0  0  0  0  0  0  0
    1.8861   -1.4775    1.2118 H   0  0  0  0  0  0  0  0  0  0  0  0
    0.2991    2.8100   -0.7251 H   0  0  0  0  0  0  0  0  0  0  0  0
   -0.4522   -1.1556    0.8480 H   0  0  0  0  0  0  0  0  0  0  0  0
    2.4429    3.6401   -0.8547 H   0  0  0  0  0  0  0  0  0  0  0  0
    3.6750    2.4348   -1.2097 H   0  0  0  0  0  0  0  0  0  0  0  0
    3.5156    3.1135    0.4371 H   0  0  0  0  0  0  0  0  0  0  0  0
   -1.8747    1.9732   -0.5893 H   0  0  0  0  0  0  0  0  0  0  0  0
   -3.8594    1.7297   -0.6815 H   0  0  0  0  0  0  0  0  0  0  0  0
   -4.5993   -1.6651    0.6621 H   0  0  0  0  0  0  0  0  0  0  0  0
   -6.1721    2.0010   -1.0184 H   0  0  0  0  0  0  0  0  0  0  0  0
   -8.7929   -1.2256    0.0751 H   0  0  0  0  0  0  0  0  0  0  0  0
   -9.1715    1.8591   -0.1336 H   0  0  0  0  0  0  0  0  0  0  0  0
   -8.5043    1.9519   -1.7803 H   0  0  0  0  0  0  0  0  0  0  0  0
   -9.5750    0.6227   -1.3483 H   0  0  0  0  0  0  0  0  0  0  0  0
   -6.6165   -3.6843    0.2259 H   0  0  0  0  0  0  0  0  0  0  0  0
   -6.2786   -3.0815    1.8689 H   0  0  0  0  0  0  0  0  0  0  0  0
   -7.9333   -3.1028    1.2639 H   0  0  0  0  0  0  0  0  0  0  0  0
  1 11  2  0  0  0  0
  2 22  2  0  0  0  0
  3  8  1  0  0  0  0
  3 11  1  0  0  0  0
  3 32  1  0  0  0  0
  4 18  1  0  0  0  0
  4 22  1  0  0  0  0
  4 42  1  0  0  0  0
  5 21  1  0  0  0  0
  5 22  1  0  0  0  0
  5 43  1  0  0  0  0
  6  7  2  0  0  0  0
  6  8  1  0  0  0  0
  6  9  1  0  0  0  0
  7 10  1  0  0  0  0
  7 13  1  0  0  0  0
  8 30  1  0  0  0  0
  8 31  1  0  0  0  0
  9 11  1  0  0  0  0
  9 14  2  0  0  0  0
 10 12  2  0  0  0  0
 10 16  1  0  0  0  0
 12 17  1  0  0  0  0
 12 20  1  0  0  0  0
 13 15  2  0  0  0  0
 13 33  1  0  0  0  0
 14 15  1  0  0  0  0
 14 34  1  0  0  0  0
 15 35  1  0  0  0  0
 16 19  2  0  0  0  0
 16 36  1  0  0  0  0
 17 18  2  0  0  0  0
 17 37  1  0  0  0  0
 18 19  1  0  0  0  0
 19 38  1  0  0  0  0
 20 39  1  0  0  0  0
 20 40  1  0  0  0  0
 20 41  1  0  0  0  0
 21 25  2  0  0  0  0
 21 26  1  0  0  0  0
 23 26  2  0  0  0  0
 23 27  1  0  0  0  0
 23 28  1  0  0  0  0
 24 25  1  0  0  0  0
 24 27  2  0  0  0  0
 24 29  1  0  0  0  0
 25 44  1  0  0  0  0
 26 45  1  0  0  0  0
 27 46  1  0  0  0  0
 28 47  1  0  0  0  0
 28 48  1  0  0  0  0
 28 49  1  0  0  0  0
 29 50  1  0  0  0  0
 29 51  1  0  0  0  0
 29 52  1  0  0  0  0
M  END
> <PUBCHEM_COMPOUND_CID>
21907506

> <PUBCHEM_CONFORMER_RMSD>
0.8

> <PUBCHEM_CONFORMER_DIVERSEORDER>
2
18
33
14
11
27
20
10
19
23
5
13
7
26
17
30
4
16
29
6
15
3
8
22
31
25
9
1
28
21
12
32
24

> <PUBCHEM_MMFF94_PARTIAL_CHARGES>
39
1 -0.57
11 0.54
12 -0.14
13 -0.15
14 -0.15
15 -0.15
16 -0.15
17 -0.15
18 0.12
19 -0.15
2 -0.57
20 0.14
21 0.12
22 0.69
23 -0.14
24 -0.14
25 -0.15
26 -0.15
27 -0.15
28 0.14
29 0.14
3 -0.73
32 0.37
33 0.15
34 0.15
35 0.15
36 0.15
37 0.15
38 0.15
4 -0.55
42 0.37
43 0.37
44 0.15
45 0.15
46 0.15
5 -0.55
6 -0.14
8 0.44
9 0.09

> <PUBCHEM_EFFECTIVE_ROTOR_COUNT>
5.4

> <PUBCHEM_PHARMACOPHORE_FEATURES>
9
1 1 acceptor
1 2 acceptor
1 3 donor
1 4 donor
1 5 donor
5 3 6 8 9 11 rings
6 10 12 16 17 18 19 rings
6 21 23 24 25 26 27 rings
6 6 7 9 13 14 15 rings

> <PUBCHEM_HEAVY_ATOM_COUNT>
29

> <PUBCHEM_ATOM_DEF_STEREO_COUNT>
0

> <PUBCHEM_ATOM_UDEF_STEREO_COUNT>
0

> <PUBCHEM_BOND_DEF_STEREO_COUNT>
0

> <PUBCHEM_BOND_UDEF_STEREO_COUNT>
0

> <PUBCHEM_ISOTOPIC_ATOM_COUNT>
0

> <PUBCHEM_COMPONENT_COUNT>
1

> <PUBCHEM_CACTVS_TAUTO_COUNT>
6

> <PUBCHEM_CONFORMER_ID>
014E483200000002

> <PUBCHEM_MMFF94_ENERGY>
97.4888

> <PUBCHEM_FEATURE_SELFOVERLAP>
45.809

> <PUBCHEM_SHAPE_FINGERPRINT>
10050765 1 17898574434631461577
10299344 5 16877940529950099947
10666366 153 18341892957263788061
10951579 204 18195820565481991045
11181472 205 13841362046120287911
11331351 85 18060415820190447577
11524674 6 18131630119517922359
11719270 70 18413386540391229783
11963148 33 18187638107058617682
12741549 16 18059845144540168000
13533116 47 16774080661590560718
13668630 136 18410857659161979855
13685833 64 18060140929344892806
13782708 43 18266742562103753643
14068700 675 17821446855066097981
14170010 4 17917709111036023728
14294032 229 17751078003546114485
14344974 204 18125159583757049327
15183329 4 18187085035982643809
15276724 80 15357693085066058631
15301273 46 18201717340835327345
15419008 47 18273205387898482697
15419008 91 18340185458824940265
15510794 2 18202279217316183815
1577012 14 16732701653717517699
15849732 13 18201998832796722253
19315958 150 17775562083544997618
20105231 36 18408329882563505323
2026 5 18343866624192630039
20771845 171 17168429251631039274
21150785 3 16370727036605911870
21267235 1 18408608067515548177
21315759 40 17240478091828674833
22224240 67 10519980461205838573
22956985 138 17463675504089953874
23081809 10 16660359268972347801
23522609 53 17023762099626971797
23569943 247 17980488867135575106
23576562 1 17387147548453021311
249057 3 18334290981804749837
3004659 81 18114181955704176021
3383291 50 18412545453078390355
3411729 13 18117555344343740200
3633792 109 17632578206797315947
397830 11 18057030527172430073
4340502 62 16415759743430637980
57527293 21 18125127633915983376
5758199 1 9295288352734705309
58083652 198 16559028298931452411
58902169 19 16370730352294914463
59755656 215 18411419483971606943
9831232 110 18411423907703649663

> <PUBCHEM_SHAPE_MULTIPOLES>
570.12
27.07
2
1.45
31.58
0.02
0.03
-8.74
4.04
1.91
0.13
-3.58
-0.37
2.85

> <PUBCHEM_SHAPE_SELFOVERLAP>
1258.329

> <PUBCHEM_SHAPE_VOLUME>
308.7

> <PUBCHEM_COORDINATE_TYPE>
2
5
10

$$$$
