11645322
  -OEChem-10052120443D

 41 43  0     0  0  0  0  0  0999 V2000
    1.5842    2.4604   -0.8144 S   0  0  0  0  0  0  0  0  0  0  0  0
    3.2267    1.6496    2.0861 O   0  0  0  0  0  0  0  0  0  0  0  0
    3.7929    0.0502    0.4795 N   0  0  0  0  0  0  0  0  0  0  0  0
   -2.0840    1.8202   -1.4232 N   0  0  0  0  0  0  0  0  0  0  0  0
   -0.9450    2.5231   -1.7332 N   0  0  0  0  0  0  0  0  0  0  0  0
    3.4927   -0.7480   -0.6768 C   0  0  0  0  0  0  0  0  0  0  0  0
    2.8348   -2.0749   -0.3130 C   0  0  0  0  0  0  0  0  0  0  0  0
   -0.5958    0.9914   -0.0989 C   0  0  0  0  0  0  0  0  0  0  0  0
    2.5384   -2.9401   -1.5399 C   0  0  0  0  0  0  0  0  0  0  0  0
    1.6287    1.2114    0.4365 C   0  0  0  0  0  0  0  0  0  0  0  0
   -1.9045    0.8681   -0.4200 C   0  0  0  0  0  0  0  0  0  0  0  0
    2.9265    1.0084    1.0769 C   0  0  0  0  0  0  0  0  0  0  0  0
   -0.0891    1.9870   -0.9126 C   0  0  0  0  0  0  0  0  0  0  0  0
    0.4547    0.5230    0.7203 C   0  0  0  0  0  0  0  0  0  0  0  0
   -2.9586    0.0169    0.0610 C   0  0  0  0  0  0  0  0  0  0  0  0
    5.1022   -0.1749    1.1048 C   0  0  0  0  0  0  0  0  0  0  0  0
    1.9388   -4.2800   -1.1426 C   0  0  0  0  0  0  0  0  0  0  0  0
   -2.6632   -1.2604    0.5451 C   0  0  0  0  0  0  0  0  0  0  0  0
   -4.2833    0.4613    0.0464 C   0  0  0  0  0  0  0  0  0  0  0  0
   -3.6854   -2.0873    1.0110 C   0  0  0  0  0  0  0  0  0  0  0  0
   -5.3054   -0.3657    0.5125 C   0  0  0  0  0  0  0  0  0  0  0  0
   -5.0064   -1.6399    0.9947 C   0  0  0  0  0  0  0  0  0  0  0  0
    2.8353   -0.1984   -1.3558 H   0  0  0  0  0  0  0  0  0  0  0  0
    4.4226   -0.9247   -1.2308 H   0  0  0  0  0  0  0  0  0  0  0  0
    1.9058   -1.9003    0.2404 H   0  0  0  0  0  0  0  0  0  0  0  0
    3.4922   -2.6319    0.3664 H   0  0  0  0  0  0  0  0  0  0  0  0
    3.4617   -3.1131   -2.1048 H   0  0  0  0  0  0  0  0  0  0  0  0
    1.8433   -2.4141   -2.2045 H   0  0  0  0  0  0  0  0  0  0  0  0
    0.3758   -0.2539    1.4696 H   0  0  0  0  0  0  0  0  0  0  0  0
    5.1743   -1.2229    1.4084 H   0  0  0  0  0  0  0  0  0  0  0  0
    5.2525    0.4575    1.9828 H   0  0  0  0  0  0  0  0  0  0  0  0
    5.8825    0.0497    0.3717 H   0  0  0  0  0  0  0  0  0  0  0  0
   -2.9305    2.0357   -1.9353 H   0  0  0  0  0  0  0  0  0  0  0  0
    0.9981   -4.1427   -0.5997 H   0  0  0  0  0  0  0  0  0  0  0  0
    1.7323   -4.8815   -2.0333 H   0  0  0  0  0  0  0  0  0  0  0  0
    2.6259   -4.8438   -0.5036 H   0  0  0  0  0  0  0  0  0  0  0  0
   -1.6451   -1.6408    0.5595 H   0  0  0  0  0  0  0  0  0  0  0  0
   -4.5474    1.4526   -0.3138 H   0  0  0  0  0  0  0  0  0  0  0  0
   -3.4533   -3.0805    1.3842 H   0  0  0  0  0  0  0  0  0  0  0  0
   -6.3339   -0.0169    0.5020 H   0  0  0  0  0  0  0  0  0  0  0  0
   -5.8023   -2.2838    1.3575 H   0  0  0  0  0  0  0  0  0  0  0  0
  1 10  1  0  0  0  0
  1 13  1  0  0  0  0
  2 12  2  0  0  0  0
  3  6  1  0  0  0  0
  3 12  1  0  0  0  0
  3 16  1  0  0  0  0
  4  5  1  0  0  0  0
  4 11  1  0  0  0  0
  4 33  1  0  0  0  0
  5 13  2  0  0  0  0
  6  7  1  0  0  0  0
  6 23  1  0  0  0  0
  6 24  1  0  0  0  0
  7  9  1  0  0  0  0
  7 25  1  0  0  0  0
  7 26  1  0  0  0  0
  8 11  2  0  0  0  0
  8 13  1  0  0  0  0
  8 14  1  0  0  0  0
  9 17  1  0  0  0  0
  9 27  1  0  0  0  0
  9 28  1  0  0  0  0
 10 12  1  0  0  0  0
 10 14  2  0  0  0  0
 11 15  1  0  0  0  0
 14 29  1  0  0  0  0
 15 18  2  0  0  0  0
 15 19  1  0  0  0  0
 16 30  1  0  0  0  0
 16 31  1  0  0  0  0
 16 32  1  0  0  0  0
 17 34  1  0  0  0  0
 17 35  1  0  0  0  0
 17 36  1  0  0  0  0
 18 20  1  0  0  0  0
 18 37  1  0  0  0  0
 19 21  2  0  0  0  0
 19 38  1  0  0  0  0
 20 22  2  0  0  0  0
 20 39  1  0  0  0  0
 21 22  1  0  0  0  0
 21 40  1  0  0  0  0
 22 41  1  0  0  0  0
M  END
> <PUBCHEM_COMPOUND_CID>
11645322

> <PUBCHEM_CONFORMER_RMSD>
0.8

> <PUBCHEM_CONFORMER_DIVERSEORDER>
1
2
21
47
26
23
70
14
59
65
49
11
34
66
30
28
44
15
18
9
58
22
25
4
38
57
39
3
62
61
40
27
68
29
19
60
41
10
33
53
24
56
8
69
54
5
20
31
6
50
45
64
46
17
16
67
13
37
48
36
63
55
35
12
7
43
52
51
32
42

> <PUBCHEM_MMFF94_PARTIAL_CHARGES>
26
1 -0.11
10 -0.05
11 -0.2
12 0.71
13 0.39
14 -0.15
15 0.05
16 0.3
18 -0.15
19 -0.15
2 -0.57
20 -0.15
21 -0.15
22 -0.15
29 0.15
3 -0.66
33 0.27
37 0.15
38 0.15
39 0.15
4 0.3
40 0.15
41 0.15
5 -0.73
6 0.3
8 -0.01

> <PUBCHEM_EFFECTIVE_ROTOR_COUNT>
6

> <PUBCHEM_PHARMACOPHORE_FEATURES>
7
1 17 hydrophobe
1 2 acceptor
1 4 donor
1 5 acceptor
5 1 8 10 13 14 rings
5 4 5 8 11 13 rings
6 15 18 19 20 21 22 rings

> <PUBCHEM_HEAVY_ATOM_COUNT>
22

> <PUBCHEM_ATOM_DEF_STEREO_COUNT>
0

> <PUBCHEM_ATOM_UDEF_STEREO_COUNT>
0

> <PUBCHEM_BOND_DEF_STEREO_COUNT>
0

> <PUBCHEM_BOND_UDEF_STEREO_COUNT>
0

> <PUBCHEM_ISOTOPIC_ATOM_COUNT>
0

> <PUBCHEM_COMPONENT_COUNT>
1

> <PUBCHEM_CACTVS_TAUTO_COUNT>
3

> <PUBCHEM_CONFORMER_ID>
00B1B18A00000001

> <PUBCHEM_MMFF94_ENERGY>
77.6541

> <PUBCHEM_FEATURE_SELFOVERLAP>
35.795

> <PUBCHEM_SHAPE_FINGERPRINT>
10064457 181 17843680208545090634
10616163 171 17685507837317463315
114674 6 18340774753944114386
117890 22 18411426102579429167
12128747 34 17987801779032389849
12363563 72 17748827453240058681
12403259 327 17130997619239317731
12553582 1 17676754466318858417
12596602 18 16200429212719480891
12892183 10 17988647406489814185
13402501 40 18410296895679923282
13533116 47 18060144215438096547
13583140 156 17489300880557014001
13911882 115 18412831278793115714
14386348 63 18408885126711886690
14866123 147 17333099624539816641
15342816 4 17458058304655467873
15420108 30 17473821105294485296
15422964 175 18339642244039820788
15635459 17 18339928121279102642
15664445 248 18040727964945827124
15848702 151 18409453587709605627
17093844 170 18408325492631785386
17492 89 17681560560762333931
17974551 9 16985186730482091392
1813 80 17458070378230497869
19141452 34 18409728500044983155
1979834 28 18341621463701421795
20403669 9 18259703415157540683
20645477 70 18042969963855028653
20693207 138 18123479275994919446
20775530 9 18122355579211601342
21267235 1 17822575005883183353
21285901 2 18260551095693962703
212916 134 12103561957350682485
22182313 1 18263072241612609869
23557571 272 18260543377389961076
23559900 14 18408891706665087957
314173 41 17895480327222339473
3737641 26 18129393600770250870
465052 167 18041281070580862010
474 4 13613974343676051801
621550 34 18341604928240816816
6433294 58 18339083666173832534
7399639 24 18339066173283362264

> <PUBCHEM_SHAPE_MULTIPOLES>
435.79
9.97
3.71
1.49
5.94
3.36
0
4.4
3.87
-2.45
-2
-0.9
-0.24
2.64

> <PUBCHEM_SHAPE_SELFOVERLAP>
922.839

> <PUBCHEM_SHAPE_VOLUME>
248

> <PUBCHEM_COORDINATE_TYPE>
2
5
10

$$$$
