6711154
  -OEChem-10062122043D

 40 43  0     0  0  0  0  0  0999 V2000
    6.6723   -2.3555    0.4321 F   0  0  0  0  0  0  0  0  0  0  0  0
   -6.6722   -2.3559   -0.4307 F   0  0  0  0  0  0  0  0  0  0  0  0
    2.1776    4.1834   -0.7662 O   0  0  0  0  0  0  0  0  0  0  0  0
   -2.1789    4.1817    0.7672 O   0  0  0  0  0  0  0  0  0  0  0  0
    1.3407   -1.1533   -0.4711 N   0  0  0  0  0  0  0  0  0  0  0  0
   -1.3400   -1.1538    0.4700 N   0  0  0  0  0  0  0  0  0  0  0  0
   -0.0006    4.5878    0.0007 N   0  0  0  0  0  0  0  0  0  0  0  0
    0.6547    2.4371   -0.2304 C   0  0  0  0  0  0  0  0  0  0  0  0
   -0.6553    2.4367    0.2296 C   0  0  0  0  0  0  0  0  0  0  0  0
    0.6656    0.0683   -0.2343 C   0  0  0  0  0  0  0  0  0  0  0  0
   -0.6650    0.0679    0.2328 C   0  0  0  0  0  0  0  0  0  0  0  0
    1.3439    1.2670   -0.4724 C   0  0  0  0  0  0  0  0  0  0  0  0
   -1.3441    1.2663    0.4713 C   0  0  0  0  0  0  0  0  0  0  0  0
    1.0807    3.8283   -0.3794 C   0  0  0  0  0  0  0  0  0  0  0  0
   -1.0817    3.8276    0.3800 C   0  0  0  0  0  0  0  0  0  0  0  0
    2.6725   -1.4533   -0.2459 C   0  0  0  0  0  0  0  0  0  0  0  0
   -2.6719   -1.4538    0.2455 C   0  0  0  0  0  0  0  0  0  0  0  0
    3.3076   -2.4982   -0.9445 C   0  0  0  0  0  0  0  0  0  0  0  0
   -3.3068   -2.4986    0.9444 C   0  0  0  0  0  0  0  0  0  0  0  0
    3.4313   -0.7227    0.6891 C   0  0  0  0  0  0  0  0  0  0  0  0
   -3.4311   -0.7232   -0.6893 C   0  0  0  0  0  0  0  0  0  0  0  0
    4.6499   -2.8011   -0.7170 C   0  0  0  0  0  0  0  0  0  0  0  0
   -4.6493   -2.8015    0.7174 C   0  0  0  0  0  0  0  0  0  0  0  0
    4.7737   -1.0254    0.9168 C   0  0  0  0  0  0  0  0  0  0  0  0
   -4.7737   -1.0259   -0.9164 C   0  0  0  0  0  0  0  0  0  0  0  0
    5.3832   -2.0647    0.2136 C   0  0  0  0  0  0  0  0  0  0  0  0
   -5.3830   -2.0650   -0.2129 C   0  0  0  0  0  0  0  0  0  0  0  0
    2.3552    1.3028   -0.8618 H   0  0  0  0  0  0  0  0  0  0  0  0
   -2.3551    1.3016    0.8611 H   0  0  0  0  0  0  0  0  0  0  0  0
    0.7557   -1.9132   -0.8002 H   0  0  0  0  0  0  0  0  0  0  0  0
   -0.7548   -1.9136    0.7990 H   0  0  0  0  0  0  0  0  0  0  0  0
   -0.0008    5.6018    0.0012 H   0  0  0  0  0  0  0  0  0  0  0  0
    2.7505   -3.0821   -1.6741 H   0  0  0  0  0  0  0  0  0  0  0  0
   -2.7495   -3.0824    1.6738 H   0  0  0  0  0  0  0  0  0  0  0  0
    2.9882    0.0692    1.2874 H   0  0  0  0  0  0  0  0  0  0  0  0
   -2.9883    0.0686   -1.2879 H   0  0  0  0  0  0  0  0  0  0  0  0
    5.1248   -3.6101   -1.2643 H   0  0  0  0  0  0  0  0  0  0  0  0
   -5.1241   -3.6103    1.2649 H   0  0  0  0  0  0  0  0  0  0  0  0
    5.3429   -0.4580    1.6472 H   0  0  0  0  0  0  0  0  0  0  0  0
   -5.3431   -0.4586   -1.6466 H   0  0  0  0  0  0  0  0  0  0  0  0
  1 26  1  0  0  0  0
  2 27  1  0  0  0  0
  3 14  2  0  0  0  0
  4 15  2  0  0  0  0
  5 10  1  0  0  0  0
  5 16  1  0  0  0  0
  5 30  1  0  0  0  0
  6 11  1  0  0  0  0
  6 17  1  0  0  0  0
  6 31  1  0  0  0  0
  7 14  1  0  0  0  0
  7 15  1  0  0  0  0
  7 32  1  0  0  0  0
  8  9  1  0  0  0  0
  8 12  2  0  0  0  0
  8 14  1  0  0  0  0
  9 13  2  0  0  0  0
  9 15  1  0  0  0  0
 10 11  2  0  0  0  0
 10 12  1  0  0  0  0
 11 13  1  0  0  0  0
 12 28  1  0  0  0  0
 13 29  1  0  0  0  0
 16 18  2  0  0  0  0
 16 20  1  0  0  0  0
 17 19  2  0  0  0  0
 17 21  1  0  0  0  0
 18 22  1  0  0  0  0
 18 33  1  0  0  0  0
 19 23  1  0  0  0  0
 19 34  1  0  0  0  0
 20 24  2  0  0  0  0
 20 35  1  0  0  0  0
 21 25  2  0  0  0  0
 21 36  1  0  0  0  0
 22 26  2  0  0  0  0
 22 37  1  0  0  0  0
 23 27  2  0  0  0  0
 23 38  1  0  0  0  0
 24 26  1  0  0  0  0
 24 39  1  0  0  0  0
 25 27  1  0  0  0  0
 25 40  1  0  0  0  0
M  END
> <PUBCHEM_COMPOUND_CID>
6711154

> <PUBCHEM_CONFORMER_RMSD>
0.8

> <PUBCHEM_CONFORMER_DIVERSEORDER>
1
15
10
16
12
14
2
7
9
3
8
6
11
5
13
4

> <PUBCHEM_MMFF94_PARTIAL_CHARGES>
40
1 -0.19
10 0.1
11 0.1
12 -0.15
13 -0.15
14 0.54
15 0.54
16 0.1
17 0.1
18 -0.15
19 -0.15
2 -0.19
20 -0.15
21 -0.15
22 -0.15
23 -0.15
24 -0.15
25 -0.15
26 0.19
27 0.19
28 0.15
29 0.15
3 -0.57
30 0.4
31 0.4
32 0.37
33 0.15
34 0.15
35 0.15
36 0.15
37 0.15
38 0.15
39 0.15
4 -0.57
40 0.15
5 -0.6
6 -0.6
7 -0.49
8 0.09
9 0.09

> <PUBCHEM_EFFECTIVE_ROTOR_COUNT>
4.2

> <PUBCHEM_PHARMACOPHORE_FEATURES>
11
1 3 acceptor
1 4 acceptor
1 5 cation
1 5 donor
1 6 cation
1 6 donor
1 7 donor
5 7 8 9 14 15 rings
6 16 18 20 22 24 26 rings
6 17 19 21 23 25 27 rings
6 8 9 10 11 12 13 rings

> <PUBCHEM_HEAVY_ATOM_COUNT>
27

> <PUBCHEM_ATOM_DEF_STEREO_COUNT>
0

> <PUBCHEM_ATOM_UDEF_STEREO_COUNT>
0

> <PUBCHEM_BOND_DEF_STEREO_COUNT>
0

> <PUBCHEM_BOND_UDEF_STEREO_COUNT>
0

> <PUBCHEM_ISOTOPIC_ATOM_COUNT>
0

> <PUBCHEM_COMPONENT_COUNT>
1

> <PUBCHEM_CACTVS_TAUTO_COUNT>
17

> <PUBCHEM_CONFORMER_ID>
0066677200000001

> <PUBCHEM_MMFF94_ENERGY>
106.5962

> <PUBCHEM_FEATURE_SELFOVERLAP>
55.92

> <PUBCHEM_SHAPE_FINGERPRINT>
10319926 262 17979619154002208018
10411042 1 18410575084668801895
1100329 8 18337957779837375833
11101153 10 18409454687701482796
11265709 11 18410294704956036195
11488393 25 18118411875809999833
12107183 9 18342189843411039627
12342043 65 17533797154651668291
12516196 113 18410289228978709442
12553582 1 18266765560820290446
12623949 98 17560813091311359054
12730499 353 17758968408556228939
12788726 201 18334870393977920250
13004483 165 18340758291244304258
13140716 1 18412831261133341841
13757389 114 17835542435251947036
13782708 43 17895758542931608131
138480 1 14879190696871400645
13955234 65 17979924035874668867
140371 6 18410582772686791471
14068700 686 18271241596218201374
14508225 48 18410567358085725885
14840074 17 17917990620267199174
14866123 147 18050851018331925091
15042514 8 18194690271574852529
15927050 60 17547857812320354382
16087824 20 18122343476980347349
16992727 255 17898843553220059645
16992752 21 18410867547105428934
1813 80 18130239210678878967
18365409 1 18123747548812504613
1979834 28 18126553747008808040
20642791 13 18339923693225569902
21049683 271 18116162253507739180
21120745 212 18268729246165424308
21304303 172 18340770342959096385
2132832 1 18187094923134328060
21478907 32 18411139117212210849
21703447 108 18339630150024189578
23536364 44 18263066739965290743
23559900 14 18265046015467059267
255183 313 17838072411465054033
283562 15 18263362499571211098
3004659 81 17967812756244457814
3103668 31 18117555138016252221
3298306 158 17759247683744760484
3421961 26 18339642372777842323
4015057 19 18194112135429942975
437815 12 18408878543223705375
5309563 4 18411699889380453398
5385378 56 18050574242102300721
57527452 28 16199279063975782525
5969126 39 18342166727185220550
59755656 520 17760648062543112276
6004065 56 18338791350915892691
613672 6 18410851062087886863
6669772 16 17765167450660810604
7399639 24 18200574953192886850
77188 2 18410855490225120636
9658208 31 17694795016905226332
9981440 41 17110727765746533840

> <PUBCHEM_SHAPE_MULTIPOLES>
514.42
11.84
6.14
0.91
0
8.87
0
-18.43
0
0
0
0
-0.23
-0.22

> <PUBCHEM_SHAPE_SELFOVERLAP>
1152.964

> <PUBCHEM_SHAPE_VOLUME>
272.2

> <PUBCHEM_COORDINATE_TYPE>
2
5
10

$$$$
