49830765
  -OEChem-10052120443D

 46 48  0     0  0  0  0  0  0999 V2000
   -5.7189    0.2390   -0.4005 S   0  0  0  0  0  0  0  0  0  0  0  0
   -1.2824   -4.6272    0.2299 F   0  0  0  0  0  0  0  0  0  0  0  0
   -3.2016   -4.0614    1.0953 F   0  0  0  0  0  0  0  0  0  0  0  0
   -2.9600   -4.1436   -1.0755 F   0  0  0  0  0  0  0  0  0  0  0  0
    4.9859   -0.6053    1.6998 O   0  0  0  0  0  0  0  0  0  0  0  0
   -3.0443   -1.5059   -0.0683 N   0  0  0  0  0  0  0  0  0  0  0  0
   -0.4136    2.4042    0.1504 N   0  0  0  0  0  0  0  0  0  0  0  0
    5.7048    0.5302   -0.1898 N   0  0  0  0  0  0  0  0  0  0  0  0
   -1.7366    0.4798    0.0403 N   0  0  0  0  0  0  0  0  0  0  0  0
   -2.7178    2.6870   -0.1103 N   0  0  0  0  0  0  0  0  0  0  0  0
   -4.0745    0.6972   -0.2251 C   0  0  0  0  0  0  0  0  0  0  0  0
   -2.9460   -0.1019   -0.0841 C   0  0  0  0  0  0  0  0  0  0  0  0
   -3.9300    2.0839   -0.2348 C   0  0  0  0  0  0  0  0  0  0  0  0
    0.8697    1.8493    0.3034 C   0  0  0  0  0  0  0  0  0  0  0  0
    7.0593    0.0260   -0.1834 C   0  0  0  0  0  0  0  0  0  0  0  0
   -1.6959    1.8247    0.0199 C   0  0  0  0  0  0  0  0  0  0  0  0
    3.4160    0.7510    0.6069 C   0  0  0  0  0  0  0  0  0  0  0  0
    7.2031   -1.2618   -0.9853 C   0  0  0  0  0  0  0  0  0  0  0  0
   -1.9082   -2.3655    0.0748 C   0  0  0  0  0  0  0  0  0  0  0  0
    1.0283    0.6253    0.9534 C   0  0  0  0  0  0  0  0  0  0  0  0
    1.9843    2.5242   -0.1948 C   0  0  0  0  0  0  0  0  0  0  0  0
    4.7431    0.1777    0.7643 C   0  0  0  0  0  0  0  0  0  0  0  0
    2.3014    0.0762    1.1051 C   0  0  0  0  0  0  0  0  0  0  0  0
    3.2574    1.9750   -0.0429 C   0  0  0  0  0  0  0  0  0  0  0  0
   -5.1831    2.7491   -0.3875 C   0  0  0  0  0  0  0  0  0  0  0  0
   -6.2339    1.8661   -0.4884 C   0  0  0  0  0  0  0  0  0  0  0  0
    6.8418   -1.0843   -2.4531 C   0  0  0  0  0  0  0  0  0  0  0  0
   -2.3481   -3.8092    0.0804 C   0  0  0  0  0  0  0  0  0  0  0  0
    7.6997    0.8109   -0.5994 H   0  0  0  0  0  0  0  0  0  0  0  0
    7.3694   -0.1481    0.8526 H   0  0  0  0  0  0  0  0  0  0  0  0
    8.2390   -1.6123   -0.9131 H   0  0  0  0  0  0  0  0  0  0  0  0
    6.5667   -2.0440   -0.5548 H   0  0  0  0  0  0  0  0  0  0  0  0
   -3.9707   -1.9069   -0.1666 H   0  0  0  0  0  0  0  0  0  0  0  0
   -0.4234    3.4073   -0.0083 H   0  0  0  0  0  0  0  0  0  0  0  0
   -1.2040   -2.2062   -0.7496 H   0  0  0  0  0  0  0  0  0  0  0  0
   -1.3836   -2.1489    1.0122 H   0  0  0  0  0  0  0  0  0  0  0  0
    5.4507    1.1211   -0.9741 H   0  0  0  0  0  0  0  0  0  0  0  0
    0.1971    0.0877    1.3970 H   0  0  0  0  0  0  0  0  0  0  0  0
    1.8742    3.4816   -0.6978 H   0  0  0  0  0  0  0  0  0  0  0  0
   -5.3084    3.8240   -0.4217 H   0  0  0  0  0  0  0  0  0  0  0  0
    2.4044   -0.8760    1.6192 H   0  0  0  0  0  0  0  0  0  0  0  0
    4.0997    2.5487   -0.4180 H   0  0  0  0  0  0  0  0  0  0  0  0
   -7.2819    2.1012   -0.6100 H   0  0  0  0  0  0  0  0  0  0  0  0
    7.0180   -2.0168   -2.9987 H   0  0  0  0  0  0  0  0  0  0  0  0
    7.4514   -0.3013   -2.9152 H   0  0  0  0  0  0  0  0  0  0  0  0
    5.7871   -0.8197   -2.5777 H   0  0  0  0  0  0  0  0  0  0  0  0
  1 11  1  0  0  0  0
  1 26  1  0  0  0  0
  2 28  1  0  0  0  0
  3 28  1  0  0  0  0
  4 28  1  0  0  0  0
  5 22  2  0  0  0  0
  6 12  1  0  0  0  0
  6 19  1  0  0  0  0
  6 33  1  0  0  0  0
  7 14  1  0  0  0  0
  7 16  1  0  0  0  0
  7 34  1  0  0  0  0
  8 15  1  0  0  0  0
  8 22  1  0  0  0  0
  8 37  1  0  0  0  0
  9 12  2  0  0  0  0
  9 16  1  0  0  0  0
 10 13  1  0  0  0  0
 10 16  2  0  0  0  0
 11 12  1  0  0  0  0
 11 13  2  0  0  0  0
 13 25  1  0  0  0  0
 14 20  2  0  0  0  0
 14 21  1  0  0  0  0
 15 18  1  0  0  0  0
 15 29  1  0  0  0  0
 15 30  1  0  0  0  0
 17 22  1  0  0  0  0
 17 23  2  0  0  0  0
 17 24  1  0  0  0  0
 18 27  1  0  0  0  0
 18 31  1  0  0  0  0
 18 32  1  0  0  0  0
 19 28  1  0  0  0  0
 19 35  1  0  0  0  0
 19 36  1  0  0  0  0
 20 23  1  0  0  0  0
 20 38  1  0  0  0  0
 21 24  2  0  0  0  0
 21 39  1  0  0  0  0
 23 41  1  0  0  0  0
 24 42  1  0  0  0  0
 25 26  2  0  0  0  0
 25 40  1  0  0  0  0
 26 43  1  0  0  0  0
 27 44  1  0  0  0  0
 27 45  1  0  0  0  0
 27 46  1  0  0  0  0
M  END
> <PUBCHEM_COMPOUND_CID>
49830765

> <PUBCHEM_CONFORMER_RMSD>
1

> <PUBCHEM_CONFORMER_DIVERSEORDER>
1
10
27
24
48
41
5
34
15
12
18
26
17
20
44
38
30
47
51
23
39
42
16
13
19
14
4
11
49
46
22
45
35
8
3
36
33
52
7
28
9
25
2
6
29
43
50
40
37
21
31
32

> <PUBCHEM_MMFF94_PARTIAL_CHARGES>
35
1 -0.08
10 -0.57
11 0.04
12 0.41
13 0.26
14 0.1
15 0.3
16 0.72
17 0.09
19 0.37
2 -0.34
20 -0.15
21 -0.15
22 0.54
23 -0.15
24 -0.15
25 -0.15
26 -0.11
28 1.02
3 -0.34
33 0.4
34 0.4
37 0.37
38 0.15
39 0.15
4 -0.34
40 0.15
41 0.15
42 0.15
43 0.15
5 -0.57
6 -0.87
7 -0.6
8 -0.73
9 -0.62

> <PUBCHEM_EFFECTIVE_ROTOR_COUNT>
9

> <PUBCHEM_PHARMACOPHORE_FEATURES>
9
1 27 hydrophobe
1 5 acceptor
1 6 donor
1 7 donor
1 8 donor
4 7 9 10 16 cation
5 1 11 13 25 26 rings
6 14 17 20 21 23 24 rings
6 9 10 11 12 13 16 rings

> <PUBCHEM_HEAVY_ATOM_COUNT>
28

> <PUBCHEM_ATOM_DEF_STEREO_COUNT>
0

> <PUBCHEM_ATOM_UDEF_STEREO_COUNT>
0

> <PUBCHEM_BOND_DEF_STEREO_COUNT>
0

> <PUBCHEM_BOND_UDEF_STEREO_COUNT>
0

> <PUBCHEM_ISOTOPIC_ATOM_COUNT>
0

> <PUBCHEM_COMPONENT_COUNT>
1

> <PUBCHEM_CACTVS_TAUTO_COUNT>
21

> <PUBCHEM_CONFORMER_ID>
02F85B6D00000001

> <PUBCHEM_MMFF94_ENERGY>
68.0138

> <PUBCHEM_FEATURE_SELFOVERLAP>
45.749

> <PUBCHEM_SHAPE_FINGERPRINT>
10 15 10015566308625762668
10050765 1 18265329702367900928
10369192 42 14201402664046556136
10391435 84 18271803545723037976
10940486 97 18261111906500839980
11524674 6 17774995782736253693
11796584 16 18412543219905567736
12643181 29 18410291398527491950
13785724 45 17687474872510884419
138480 1 17474098805606125483
14251757 5 18410572898609264512
14444916 359 18340781338402571195
14856354 85 16443358558771377985
14866123 147 18339072800755438635
15042514 8 18192148412110020683
15183329 4 18335980870277362352
15230672 131 18263361404755580970
15439362 3 17111553507675072509
15510800 12 17488760982299401014
15537594 2 17821723914773710240
15927050 60 18340198614494241319
16120349 21 18340217396623285707
16719943 64 18409721846924578339
19319366 153 17458900418946092426
19958102 18 18337100173024456116
20286276 3 18193275427775261769
21133410 171 17114599554252745074
21267235 1 18408325488790790985
21307412 95 18200891578039497366
21781051 124 18115326548052086849
21781055 127 18126026896298538285
23379529 103 18196659703654864810
23559900 14 18342729758769901120
23576562 1 18041287676341316668
249057 3 18334856112657909628
3004659 81 18335137575303638624
335352 9 18409725149791709517
3383291 50 18412821409037521003
3610482 184 17749119893801239906
4017518 198 18342454803252618863
4073 2 18340762745800500384
44062 13 18411701032046891298
44880168 125 17916594265964311079
508706 21 18341893030136086598
5265222 85 18409169930489030156
5385378 56 18124314905655364401
57527585 21 14418946580374016279
58902169 19 17676499337441681622
59755656 215 18342176614384116966
59755656 520 18335693928001982279

> <PUBCHEM_SHAPE_MULTIPOLES>
527.48
17.47
4.64
1.16
22.72
7.29
0.32
-1.02
6.32
-6.94
0
2.2
0.47
1.54

> <PUBCHEM_SHAPE_SELFOVERLAP>
1116.595

> <PUBCHEM_SHAPE_VOLUME>
299

> <PUBCHEM_COORDINATE_TYPE>
2
5
10

$$$$
