49830372
  -OEChem-10062121523D

 62 66  0     0  0  0  0  0  0999 V2000
    2.9289    0.2946   -1.9066 S   0  0  0  0  0  0  0  0  0  0  0  0
  -11.9894    0.2524    0.1120 F   0  0  0  0  0  0  0  0  0  0  0  0
    8.6522   -3.1834    0.7397 O   0  0  0  0  0  0  0  0  0  0  0  0
   -5.5726   -1.3080    0.0644 O   0  0  0  0  0  0  0  0  0  0  0  0
    7.3951   -0.0257   -0.0443 N   0  0  0  0  0  0  0  0  0  0  0  0
    7.3256    0.9433   -0.9729 N   0  0  0  0  0  0  0  0  0  0  0  0
    2.4676    1.3608    2.4192 N   0  0  0  0  0  0  0  0  0  0  0  0
    8.0274   -2.6197   -1.3887 N   0  0  0  0  0  0  0  0  0  0  0  0
    0.1223    1.3610    2.1239 N   0  0  0  0  0  0  0  0  0  0  0  0
   -4.9721    0.8841   -0.5043 N   0  0  0  0  0  0  0  0  0  0  0  0
   -7.2011    0.3450   -0.2273 N   0  0  0  0  0  0  0  0  0  0  0  0
    8.7011   -0.8134    0.1399 C   0  0  0  0  0  0  0  0  0  0  0  0
    5.3510    0.7183    0.1531 C   0  0  0  0  0  0  0  0  0  0  0  0
    9.1855   -0.6108    1.5940 C   0  0  0  0  0  0  0  0  0  0  0  0
    9.8563   -0.3680   -0.7856 C   0  0  0  0  0  0  0  0  0  0  0  0
    6.2387   -0.2004    0.6577 C   0  0  0  0  0  0  0  0  0  0  0  0
    4.0067    0.8738    0.6149 C   0  0  0  0  0  0  0  0  0  0  0  0
    2.9053    0.7024   -0.2321 C   0  0  0  0  0  0  0  0  0  0  0  0
    1.5978    0.8576    0.2369 C   0  0  0  0  0  0  0  0  0  0  0  0
    8.4643   -2.3189   -0.1153 C   0  0  0  0  0  0  0  0  0  0  0  0
    0.6414    0.6335   -0.8091 C   0  0  0  0  0  0  0  0  0  0  0  0
    6.0746    1.3941   -0.8476 C   0  0  0  0  0  0  0  0  0  0  0  0
    1.4148    1.1918    1.5882 C   0  0  0  0  0  0  0  0  0  0  0  0
    3.7114    1.2020    1.9264 C   0  0  0  0  0  0  0  0  0  0  0  0
   -0.7976    0.6974   -0.7316 C   0  0  0  0  0  0  0  0  0  0  0  0
    1.2278    0.3224   -2.0128 C   0  0  0  0  0  0  0  0  0  0  0  0
   -1.5302   -0.4449   -0.4088 C   0  0  0  0  0  0  0  0  0  0  0  0
   -1.4565    1.9018   -0.9788 C   0  0  0  0  0  0  0  0  0  0  0  0
   -3.5804    0.8215   -0.5807 C   0  0  0  0  0  0  0  0  0  0  0  0
   -2.9216   -0.3829   -0.3334 C   0  0  0  0  0  0  0  0  0  0  0  0
   -2.8479    1.9638   -0.9033 C   0  0  0  0  0  0  0  0  0  0  0  0
   -5.8878   -0.1509   -0.1941 C   0  0  0  0  0  0  0  0  0  0  0  0
   -8.4038   -0.3575    0.0214 C   0  0  0  0  0  0  0  0  0  0  0  0
   -9.6277    0.3068   -0.0575 C   0  0  0  0  0  0  0  0  0  0  0  0
   -8.3657   -1.7135    0.3468 C   0  0  0  0  0  0  0  0  0  0  0  0
  -10.8137   -0.3848    0.1887 C   0  0  0  0  0  0  0  0  0  0  0  0
   -9.5518   -2.4049    0.5932 C   0  0  0  0  0  0  0  0  0  0  0  0
  -10.7757   -1.7406    0.5143 C   0  0  0  0  0  0  0  0  0  0  0  0
    9.3366    0.4525    1.8137 H   0  0  0  0  0  0  0  0  0  0  0  0
   10.1331   -1.1316    1.7752 H   0  0  0  0  0  0  0  0  0  0  0  0
    8.4626   -0.9976    2.3213 H   0  0  0  0  0  0  0  0  0  0  0  0
   10.7414   -1.0003   -0.6491 H   0  0  0  0  0  0  0  0  0  0  0  0
    9.5776   -0.4222   -1.8439 H   0  0  0  0  0  0  0  0  0  0  0  0
   10.1468    0.6690   -0.5811 H   0  0  0  0  0  0  0  0  0  0  0  0
    6.1466   -0.9488    1.4336 H   0  0  0  0  0  0  0  0  0  0  0  0
    5.7493    2.1998   -1.4909 H   0  0  0  0  0  0  0  0  0  0  0  0
    4.4995    1.3587    2.6585 H   0  0  0  0  0  0  0  0  0  0  0  0
    0.7461    0.1078   -2.9577 H   0  0  0  0  0  0  0  0  0  0  0  0
    7.8448   -3.5795   -1.6624 H   0  0  0  0  0  0  0  0  0  0  0  0
    7.8547   -1.9071   -2.0901 H   0  0  0  0  0  0  0  0  0  0  0  0
   -1.0306   -1.3908   -0.2121 H   0  0  0  0  0  0  0  0  0  0  0  0
   -0.9003    2.8018   -1.2302 H   0  0  0  0  0  0  0  0  0  0  0  0
    0.0459    1.6011    3.1040 H   0  0  0  0  0  0  0  0  0  0  0  0
   -0.7188    1.2552    1.5833 H   0  0  0  0  0  0  0  0  0  0  0  0
   -3.4156   -1.3093   -0.0777 H   0  0  0  0  0  0  0  0  0  0  0  0
   -3.3482    2.9091   -1.0978 H   0  0  0  0  0  0  0  0  0  0  0  0
   -5.3796    1.7957   -0.6972 H   0  0  0  0  0  0  0  0  0  0  0  0
   -7.3116    1.3292   -0.4576 H   0  0  0  0  0  0  0  0  0  0  0  0
   -9.6718    1.3630   -0.3100 H   0  0  0  0  0  0  0  0  0  0  0  0
   -7.4604   -2.2978    0.4278 H   0  0  0  0  0  0  0  0  0  0  0  0
   -9.5239   -3.4608    0.8467 H   0  0  0  0  0  0  0  0  0  0  0  0
  -11.6993   -2.2788    0.7059 H   0  0  0  0  0  0  0  0  0  0  0  0
  1 18  1  0  0  0  0
  1 26  1  0  0  0  0
  2 36  1  0  0  0  0
  3 20  2  0  0  0  0
  4 32  2  0  0  0  0
  5  6  1  0  0  0  0
  5 12  1  0  0  0  0
  5 16  1  0  0  0  0
  6 22  2  0  0  0  0
  7 23  2  0  0  0  0
  7 24  1  0  0  0  0
  8 20  1  0  0  0  0
  8 49  1  0  0  0  0
  8 50  1  0  0  0  0
  9 23  1  0  0  0  0
  9 53  1  0  0  0  0
  9 54  1  0  0  0  0
 10 29  1  0  0  0  0
 10 32  1  0  0  0  0
 10 57  1  0  0  0  0
 11 32  1  0  0  0  0
 11 33  1  0  0  0  0
 11 58  1  0  0  0  0
 12 14  1  0  0  0  0
 12 15  1  0  0  0  0
 12 20  1  0  0  0  0
 13 16  2  0  0  0  0
 13 17  1  0  0  0  0
 13 22  1  0  0  0  0
 14 39  1  0  0  0  0
 14 40  1  0  0  0  0
 14 41  1  0  0  0  0
 15 42  1  0  0  0  0
 15 43  1  0  0  0  0
 15 44  1  0  0  0  0
 16 45  1  0  0  0  0
 17 18  1  0  0  0  0
 17 24  2  0  0  0  0
 18 19  2  0  0  0  0
 19 21  1  0  0  0  0
 19 23  1  0  0  0  0
 21 25  1  0  0  0  0
 21 26  2  0  0  0  0
 22 46  1  0  0  0  0
 24 47  1  0  0  0  0
 25 27  2  0  0  0  0
 25 28  1  0  0  0  0
 26 48  1  0  0  0  0
 27 30  1  0  0  0  0
 27 51  1  0  0  0  0
 28 31  2  0  0  0  0
 28 52  1  0  0  0  0
 29 30  2  0  0  0  0
 29 31  1  0  0  0  0
 30 55  1  0  0  0  0
 31 56  1  0  0  0  0
 33 34  2  0  0  0  0
 33 35  1  0  0  0  0
 34 36  1  0  0  0  0
 34 59  1  0  0  0  0
 35 37  2  0  0  0  0
 35 60  1  0  0  0  0
 36 38  2  0  0  0  0
 37 38  1  0  0  0  0
 37 61  1  0  0  0  0
 38 62  1  0  0  0  0
M  END
> <PUBCHEM_COMPOUND_CID>
49830372

> <PUBCHEM_CONFORMER_RMSD>
1

> <PUBCHEM_CONFORMER_DIVERSEORDER>
1
48
59
55
29
13
37
35
47
19
38
41
50
18
27
39
4
54
43
49
17
53
15
61
26
51
52
6
8
45
24
57
34
10
60
28
46
22
32
33
20
23
9
56
40
44
21
58
30
7
25
36
3
2
11
14
42
16
12
31
5

> <PUBCHEM_MMFF94_PARTIAL_CHARGES>
53
1 -0.08
10 -0.55
11 -0.55
12 0.32
13 -0.05
16 -0.3
17 0.05
18 0.04
2 -0.19
20 0.57
21 -0.05
22 0.14
23 0.41
24 0.16
25 0.05
26 -0.11
27 -0.15
28 -0.15
29 0.12
3 -0.57
30 -0.15
31 -0.15
32 0.69
33 0.12
34 -0.15
35 -0.15
36 0.19
37 -0.15
38 -0.15
4 -0.57
45 0.15
46 0.15
47 0.15
48 0.15
49 0.37
5 0.31
50 0.37
51 0.15
52 0.15
53 0.4
54 0.4
55 0.15
56 0.15
57 0.37
58 0.37
59 0.15
6 -0.71
60 0.15
61 0.15
62 0.15
7 -0.62
8 -0.8
9 -0.9

> <PUBCHEM_EFFECTIVE_ROTOR_COUNT>
8

> <PUBCHEM_PHARMACOPHORE_FEATURES>
14
1 10 donor
1 11 donor
1 3 acceptor
1 4 acceptor
1 6 acceptor
1 8 donor
1 9 donor
3 12 14 15 hydrophobe
3 7 9 23 cation
5 1 18 19 21 26 rings
5 5 6 13 16 22 rings
6 25 27 28 29 30 31 rings
6 33 34 35 36 37 38 rings
6 7 17 18 19 23 24 rings

> <PUBCHEM_HEAVY_ATOM_COUNT>
38

> <PUBCHEM_ATOM_DEF_STEREO_COUNT>
0

> <PUBCHEM_ATOM_UDEF_STEREO_COUNT>
0

> <PUBCHEM_BOND_DEF_STEREO_COUNT>
0

> <PUBCHEM_BOND_UDEF_STEREO_COUNT>
0

> <PUBCHEM_ISOTOPIC_ATOM_COUNT>
0

> <PUBCHEM_COMPONENT_COUNT>
1

> <PUBCHEM_CACTVS_TAUTO_COUNT>
12

> <PUBCHEM_CONFORMER_ID>
02F859E400000001

> <PUBCHEM_MMFF94_ENERGY>
119.8733

> <PUBCHEM_FEATURE_SELFOVERLAP>
71.161

> <PUBCHEM_SHAPE_FINGERPRINT>
10162869 55 15626220235404074157
10533779 47 17775573026246578663
11409948 35 18339641140349763750
11456790 92 17203611497430783555
11534866 41 18202849842318680718
11607047 74 17897172531822165724
12013929 2 18408601458251982529
12089408 11 18259707813494306285
12522641 33 11097849683588916289
12539745 222 18343586205751266569
12559415 141 18261685826228678691
12664476 115 16200432464637140625
12741549 16 17988924474640890097
13947947 74 14056715755900061941
14117953 113 14996285829139590199
14118638 360 14129325274963621733
14202775 3 18187370956694332435
14251764 46 10879995757328788573
14344974 52 9079107861560456221
15065858 18 18335135428251948709
15247644 1 18411138038923095419
15289351 153 17131835344653490689
15419008 145 16702311131278215121
15510794 2 18410014330155598311
15840311 113 17677053550656682476
16067689 302 18339361869055474390
16728433 110 18343579677311195152
16991971 28 17240488013224351125
1818759 1 17894631466002479843
20105231 36 18259700095000218803
2026 5 18338794499670291694
21057603 238 17983303625771438116
21095086 128 18259702298212745064
21362267 20 18337391647540782227
21792934 111 15626221325750553376
21792938 703 17531257170905421971
21895431 317 17676478399144310922
232437 2 18186239541768997063
23378982 100 17775007830167791289
23576562 1 13118587167820747902
24771293 8 8502386559156006999
24893992 56 17632576089436727743
249057 3 14490475322588597845
3178227 256 17203607103927327860
335352 9 15357698595466614804
439807 62 18413108368766284322
44426699 60 18408610284003373694
45377200 153 18041000700081309643
5381727 24 16343981438979906815
54039377 194 17749389287277163733
5937810 71 11026058164072629663
6081469 158 18272090504634851633
9663363 56 17132116853947890368
9937071 3 18344144782921214154

> <PUBCHEM_SHAPE_MULTIPOLES>
731.99
42.13
2.1
1.56
62.53
1.45
0.47
28.66
2.87
-1.64
-0.03
-2.73
-0.47
1.23

> <PUBCHEM_SHAPE_SELFOVERLAP>
1606.695

> <PUBCHEM_SHAPE_VOLUME>
401.7

> <PUBCHEM_COORDINATE_TYPE>
2
5
10

$$$$
