49830755
  -OEChem-10052120443D

 31 33  0     0  0  0  0  0  0999 V2000
   -0.7850    0.0955    0.0084 N   0  0  0  0  0  0  0  0  0  0  0  0
    0.3568    2.2190    0.0255 N   0  0  0  0  0  0  0  0  0  0  0  0
    2.7811    1.9940    0.0132 N   0  0  0  0  0  0  0  0  0  0  0  0
    3.8806   -0.1193   -0.0137 N   0  0  0  0  0  0  0  0  0  0  0  0
   -2.2097    0.6029    0.0229 C   0  0  0  0  0  0  0  0  0  0  0  0
   -3.0395    0.1457    1.2404 C   0  0  0  0  0  0  0  0  0  0  0  0
   -3.0072    0.1567   -1.2155 C   0  0  0  0  0  0  0  0  0  0  0  0
   -4.1906   -0.6767    0.6723 C   0  0  0  0  0  0  0  0  0  0  0  0
   -4.4204   -0.0739   -0.7022 C   0  0  0  0  0  0  0  0  0  0  0  0
    0.3410    0.8748    0.0120 C   0  0  0  0  0  0  0  0  0  0  0  0
   -0.4258   -1.2278   -0.0064 C   0  0  0  0  0  0  0  0  0  0  0  0
    1.4455    0.0319   -0.0013 C   0  0  0  0  0  0  0  0  0  0  0  0
    0.9511   -1.2974   -0.0125 C   0  0  0  0  0  0  0  0  0  0  0  0
    2.6983    0.6435   -0.0003 C   0  0  0  0  0  0  0  0  0  0  0  0
    1.6211    2.6886    0.0250 C   0  0  0  0  0  0  0  0  0  0  0  0
    1.6901   -2.5154   -0.0275 C   0  0  0  0  0  0  0  0  0  0  0  0
    2.3126   -3.5422   -0.0403 C   0  0  0  0  0  0  0  0  0  0  0  0
   -2.1314    1.6966    0.0372 H   0  0  0  0  0  0  0  0  0  0  0  0
   -3.4433    1.0294    1.7499 H   0  0  0  0  0  0  0  0  0  0  0  0
   -2.4631   -0.4209    1.9784 H   0  0  0  0  0  0  0  0  0  0  0  0
   -2.6146   -0.7718   -1.6456 H   0  0  0  0  0  0  0  0  0  0  0  0
   -2.9826    0.9150   -2.0050 H   0  0  0  0  0  0  0  0  0  0  0  0
   -5.0830   -0.6314    1.3030 H   0  0  0  0  0  0  0  0  0  0  0  0
   -3.8910   -1.7272    0.5792 H   0  0  0  0  0  0  0  0  0  0  0  0
   -4.9972   -0.7339   -1.3562 H   0  0  0  0  0  0  0  0  0  0  0  0
   -4.9545    0.8797   -0.6166 H   0  0  0  0  0  0  0  0  0  0  0  0
   -1.1757   -2.0082   -0.0072 H   0  0  0  0  0  0  0  0  0  0  0  0
    1.7218    3.7685    0.0355 H   0  0  0  0  0  0  0  0  0  0  0  0
    3.8590   -1.1278   -0.0242 H   0  0  0  0  0  0  0  0  0  0  0  0
    4.7690    0.3639   -0.0127 H   0  0  0  0  0  0  0  0  0  0  0  0
    2.8654   -4.4524   -0.0516 H   0  0  0  0  0  0  0  0  0  0  0  0
  1  5  1  0  0  0  0
  1 10  1  0  0  0  0
  1 11  1  0  0  0  0
  2 10  2  0  0  0  0
  2 15  1  0  0  0  0
  3 14  1  0  0  0  0
  3 15  2  0  0  0  0
  4 14  1  0  0  0  0
  4 29  1  0  0  0  0
  4 30  1  0  0  0  0
  5  6  1  0  0  0  0
  5  7  1  0  0  0  0
  5 18  1  0  0  0  0
  6  8  1  0  0  0  0
  6 19  1  0  0  0  0
  6 20  1  0  0  0  0
  7  9  1  0  0  0  0
  7 21  1  0  0  0  0
  7 22  1  0  0  0  0
  8  9  1  0  0  0  0
  8 23  1  0  0  0  0
  8 24  1  0  0  0  0
  9 25  1  0  0  0  0
  9 26  1  0  0  0  0
 10 12  1  0  0  0  0
 11 13  2  0  0  0  0
 11 27  1  0  0  0  0
 12 13  1  0  0  0  0
 12 14  2  0  0  0  0
 13 16  1  0  0  0  0
 15 28  1  0  0  0  0
 16 17  3  0  0  0  0
 17 31  1  0  0  0  0
M  END
> <PUBCHEM_COMPOUND_CID>
49830755

> <PUBCHEM_CONFORMER_RMSD>
0.6

> <PUBCHEM_CONFORMER_DIVERSEORDER>
1
2
5
4
3

> <PUBCHEM_MMFF94_PARTIAL_CHARGES>
17
1 0.05
10 0.11
11 -0.3
13 0.02
14 0.41
15 0.47
16 -0.02
17 -0.18
2 -0.57
27 0.15
28 0.15
29 0.4
3 -0.62
30 0.4
31 0.18
4 -0.9
5 0.26

> <PUBCHEM_EFFECTIVE_ROTOR_COUNT>
2

> <PUBCHEM_PHARMACOPHORE_FEATURES>
8
1 17 hydrophobe
1 4 cation
1 4 donor
3 1 2 10 cation
3 2 3 15 cation
5 1 10 11 12 13 rings
5 5 6 7 8 9 rings
6 2 3 10 12 14 15 rings

> <PUBCHEM_HEAVY_ATOM_COUNT>
17

> <PUBCHEM_ATOM_DEF_STEREO_COUNT>
0

> <PUBCHEM_ATOM_UDEF_STEREO_COUNT>
0

> <PUBCHEM_BOND_DEF_STEREO_COUNT>
0

> <PUBCHEM_BOND_UDEF_STEREO_COUNT>
0

> <PUBCHEM_ISOTOPIC_ATOM_COUNT>
0

> <PUBCHEM_COMPONENT_COUNT>
1

> <PUBCHEM_CACTVS_TAUTO_COUNT>
4

> <PUBCHEM_CONFORMER_ID>
02F85B6300000001

> <PUBCHEM_MMFF94_ENERGY>
30.5675

> <PUBCHEM_FEATURE_SELFOVERLAP>
40.875

> <PUBCHEM_SHAPE_FINGERPRINT>
1 1 18338797922035624188
10411042 1 18050567344063400902
10693767 8 18130785621014268606
10967382 1 18410856564262005862
10980938 120 18410291423558564120
10989021 7 18196651783218167370
11471102 20 18410571816288191645
116883 192 17836359346162131445
12236239 1 17704072902437267181
12553582 1 17978518524701720035
13009979 54 17630894802539384915
13140716 1 18267864072004990800
13380535 76 18335700602043816299
13862211 1 18410852132262178638
14251717 144 18411979173954770583
14790565 3 18338813289899049428
15219456 202 18187081784808347729
15309172 13 18266463294149285201
15375462 189 17988926678221843107
15442244 35 18124881153404703441
16945 1 18411138039017092488
1813 80 17842571642699428942
18186145 218 18270687591810875204
19049666 15 18041556923930652425
193761 8 17906453230108644456
19591789 44 18194687204994856222
200 152 18201152239567475413
204376 136 18193839464275962792
20645477 70 18336536132676992007
21041028 32 18124323696561304089
21501502 16 18051698745949287704
21524375 3 18128819835645877924
21639500 275 18339350967979220093
221490 88 18408047299237130403
2255824 54 18339926012507851324
22854114 111 18412263977784466549
2334 1 17978510063673422028
23526113 38 18041563537811212171
23557571 272 17192348933714347598
23598291 2 17916026763635069615
25 1 18336262435258007964
2748010 2 17978781321081145740
3060560 45 18411133675546487596
3071541 250 18267591195547908566
3071541 37 18335706048241442382
3091708 16 9328360558533207290
33824 294 18409448124247727299
350125 39 17905334278931164833
458136 41 18264227952560379981
474 4 18269273628695461697
58807428 26 18196913656575660266
6049 1 17895482423472107797
633830 44 18057905690878083061
7364860 26 18411700967480080430
77492 1 17704071789892966505
81228 2 17259617050125519267
81539 233 18261111915100875374
8272917 22 18341335513837864783
9709674 26 18334014991232588675

> <PUBCHEM_SHAPE_MULTIPOLES>
329.93
6.8
2.97
0.84
5.84
1.18
0
0.77
-0.11
-3.96
0
0.83
0.02
0.14

> <PUBCHEM_SHAPE_SELFOVERLAP>
716.843

> <PUBCHEM_SHAPE_VOLUME>
178.1

> <PUBCHEM_COORDINATE_TYPE>
2
5
10

$$$$
