49831052
  -OEChem-10052115193D

 27 29  0     0  0  0  0  0  0999 V2000
   -6.0847   -1.4668    0.0016 Br  0  0  0  0  0  0  0  0  0  0  0  0
    1.5936   -0.9525   -0.0009 N   0  0  0  0  0  0  0  0  0  0  0  0
    0.3436    1.0732   -0.0004 N   0  0  0  0  0  0  0  0  0  0  0  0
    3.1479    0.8369   -0.0001 N   0  0  0  0  0  0  0  0  0  0  0  0
    5.5110    0.3645    0.0012 N   0  0  0  0  0  0  0  0  0  0  0  0
   -2.0424   -0.4218   -0.0003 C   0  0  0  0  0  0  0  0  0  0  0  0
   -2.0870    0.9877   -0.0001 C   0  0  0  0  0  0  0  0  0  0  0  0
   -0.7967   -1.0601   -0.0008 C   0  0  0  0  0  0  0  0  0  0  0  0
    0.3475   -0.2769   -0.0008 C   0  0  0  0  0  0  0  0  0  0  0  0
   -3.2471   -1.1437   -0.0003 C   0  0  0  0  0  0  0  0  0  0  0  0
   -3.3272    1.6474    0.0001 C   0  0  0  0  0  0  0  0  0  0  0  0
   -0.8693    1.6710   -0.0003 C   0  0  0  0  0  0  0  0  0  0  0  0
   -4.4740   -0.4777    0.0001 C   0  0  0  0  0  0  0  0  0  0  0  0
   -4.5139    0.9146    0.0003 C   0  0  0  0  0  0  0  0  0  0  0  0
    2.9198   -0.4929   -0.0004 C   0  0  0  0  0  0  0  0  0  0  0  0
    3.9211   -1.4426   -0.0001 C   0  0  0  0  0  0  0  0  0  0  0  0
    5.2104   -0.9508    0.0007 C   0  0  0  0  0  0  0  0  0  0  0  0
    4.4474    1.1904    0.0005 C   0  0  0  0  0  0  0  0  0  0  0  0
   -0.7333   -2.1452   -0.0007 H   0  0  0  0  0  0  0  0  0  0  0  0
   -3.2224   -2.2322   -0.0004 H   0  0  0  0  0  0  0  0  0  0  0  0
   -3.3762    2.7339    0.0002 H   0  0  0  0  0  0  0  0  0  0  0  0
   -0.8324    2.7570   -0.0002 H   0  0  0  0  0  0  0  0  0  0  0  0
    1.5068   -1.9627   -0.0713 H   0  0  0  0  0  0  0  0  0  0  0  0
   -5.4620    1.4464    0.0007 H   0  0  0  0  0  0  0  0  0  0  0  0
    3.7278   -2.5081    0.0000 H   0  0  0  0  0  0  0  0  0  0  0  0
    6.0634   -1.6211    0.0012 H   0  0  0  0  0  0  0  0  0  0  0  0
    4.6595    2.2525    0.0006 H   0  0  0  0  0  0  0  0  0  0  0  0
  1 13  1  0  0  0  0
  2  9  1  0  0  0  0
  2 15  1  0  0  0  0
  2 23  1  0  0  0  0
  3  9  2  0  0  0  0
  3 12  1  0  0  0  0
  4 15  2  0  0  0  0
  4 18  1  0  0  0  0
  5 17  1  0  0  0  0
  5 18  2  0  0  0  0
  6  7  1  0  0  0  0
  6  8  2  0  0  0  0
  6 10  1  0  0  0  0
  7 11  1  0  0  0  0
  7 12  2  0  0  0  0
  8  9  1  0  0  0  0
  8 19  1  0  0  0  0
 10 13  2  0  0  0  0
 10 20  1  0  0  0  0
 11 14  2  0  0  0  0
 11 21  1  0  0  0  0
 12 22  1  0  0  0  0
 13 14  1  0  0  0  0
 14 24  1  0  0  0  0
 15 16  1  0  0  0  0
 16 17  2  0  0  0  0
 16 25  1  0  0  0  0
 17 26  1  0  0  0  0
 18 27  1  0  0  0  0
M  END
> <PUBCHEM_COMPOUND_CID>
49831052

> <PUBCHEM_CONFORMER_RMSD>
0.6

> <PUBCHEM_CONFORMER_DIVERSEORDER>
1
14
13
2
6
9
5
8
3
4
12
10
20
17
11
7
18
19
15
16

> <PUBCHEM_MMFF94_PARTIAL_CHARGES>
25
1 -0.11
10 -0.15
11 -0.15
12 0.16
13 0.11
14 -0.15
15 0.41
16 -0.15
17 0.16
18 0.47
19 0.15
2 -0.6
20 0.15
21 0.15
22 0.15
23 0.4
24 0.15
25 0.15
26 0.15
27 0.15
3 -0.62
4 -0.62
5 -0.62
8 -0.15
9 0.41

> <PUBCHEM_EFFECTIVE_ROTOR_COUNT>
2

> <PUBCHEM_PHARMACOPHORE_FEATURES>
8
1 1 hydrophobe
1 2 donor
3 2 3 9 cation
3 2 4 15 cation
3 4 5 18 cation
6 3 6 7 8 9 12 rings
6 4 5 15 16 17 18 rings
6 6 7 10 11 13 14 rings

> <PUBCHEM_HEAVY_ATOM_COUNT>
18

> <PUBCHEM_ATOM_DEF_STEREO_COUNT>
0

> <PUBCHEM_ATOM_UDEF_STEREO_COUNT>
0

> <PUBCHEM_BOND_DEF_STEREO_COUNT>
0

> <PUBCHEM_BOND_UDEF_STEREO_COUNT>
0

> <PUBCHEM_ISOTOPIC_ATOM_COUNT>
0

> <PUBCHEM_COMPONENT_COUNT>
1

> <PUBCHEM_CACTVS_TAUTO_COUNT>
5

> <PUBCHEM_CONFORMER_ID>
02F85C8C00000001

> <PUBCHEM_MMFF94_ENERGY>
60.518

> <PUBCHEM_FEATURE_SELFOVERLAP>
41.161

> <PUBCHEM_SHAPE_FINGERPRINT>
10968037 39 18408323311178496687
12107183 9 17616812132876982298
12236239 1 18040434377923808582
13167823 11 18409445856383786050
13288520 33 18412263943894031783
13862211 1 18411697712375041463
1420 363 18334862731539700579
14528608 73 18409452509641263372
15196674 1 18410855442953671300
17492 89 18267866073555579358
17834072 33 18413106181942070078
17844677 252 18412551998159577992
19489759 90 16660360368562889029
200 152 18202281398695015291
20645477 70 18270965644395119766
21236236 1 18412826863898849953
21267235 1 18410863165341961703
2297311 6 18201447951817498940
23402539 116 18411695478854456023
23557571 272 18272940409531445892
23559900 14 18054506907295058806
3004659 81 18334859386255815146
34797466 226 17560809878596121404
351380 180 18409729547763678754
3545911 37 18411982464495688270
4214541 1 18410856525296174273
42788 4 18410856559756009510
4325135 7 18409450318701462390
4463277 17 18410856564646906913
474 4 17531253919657428316
474229 33 18412825798246216503
5104073 3 18412261705641110440
5374978 207 18410288117045650234
542803 24 17313108540288772260
7495541 125 17917987312836075066
77779 3 18411138009194830098
9709674 26 18411145701455565662

> <PUBCHEM_SHAPE_MULTIPOLES>
356.45
13.43
1.75
0.61
3.83
0.25
0
-3.35
0.01
-0.75
0
-0.1
-0.02
0

> <PUBCHEM_SHAPE_SELFOVERLAP>
772.203

> <PUBCHEM_SHAPE_VOLUME>
198.4

> <PUBCHEM_COORDINATE_TYPE>
2
5
10

$$$$
