448042
  -OEChem-10062122033D

 39 40  0     1  0  0  0  0  0999 V2000
   -0.8301   -1.5602   -0.7421 O   0  0  0  0  0  0  0  0  0  0  0  0
    5.5467    1.3610   -0.7825 N   0  0  0  0  0  0  0  0  0  0  0  0
   -1.6323    0.3329    0.4021 N   0  0  0  0  0  0  0  0  0  0  0  0
   -5.7767    0.1218   -0.1787 N   0  0  0  0  0  0  0  0  0  0  0  0
    3.6172   -0.0004   -0.1715 C   0  0  0  0  0  0  0  0  0  0  0  0
    3.0330   -0.9553    0.8782 C   0  0  0  0  0  0  0  0  0  0  0  0
    2.7174    1.2297   -0.3519 C   0  0  0  0  0  0  0  0  0  0  0  0
    0.7048   -0.1235    0.3578 C   0  0  0  0  0  0  0  0  0  0  0  0
    1.5968   -1.3511    0.5425 C   0  0  0  0  0  0  0  0  0  0  0  0
    1.2807    0.8339   -0.6859 C   0  0  0  0  0  0  0  0  0  0  0  0
    5.0349    0.4201    0.2118 C   0  0  1  0  0  0  0  0  0  0  0  0
   -0.6671   -0.5496   -0.0660 C   0  0  0  0  0  0  0  0  0  0  0  0
    5.9542   -0.7925    0.3177 C   0  0  0  0  0  0  0  0  0  0  0  0
   -3.0319    0.2619    0.2055 C   0  0  0  0  0  0  0  0  0  0  0  0
   -3.8430    1.2377    0.7492 C   0  0  0  0  0  0  0  0  0  0  0  0
   -3.5614   -0.7822   -0.5259 C   0  0  0  0  0  0  0  0  0  0  0  0
   -5.2061    1.1226    0.5289 C   0  0  0  0  0  0  0  0  0  0  0  0
   -4.9372   -0.8068   -0.6891 C   0  0  0  0  0  0  0  0  0  0  0  0
    3.6489   -0.5348   -1.1325 H   0  0  0  0  0  0  0  0  0  0  0  0
    3.0576   -0.4865    1.8701 H   0  0  0  0  0  0  0  0  0  0  0  0
    3.6185   -1.8781    0.9432 H   0  0  0  0  0  0  0  0  0  0  0  0
    3.0712    1.8698   -1.1673 H   0  0  0  0  0  0  0  0  0  0  0  0
    2.7216    1.8374    0.5621 H   0  0  0  0  0  0  0  0  0  0  0  0
    0.6460    0.3954    1.3242 H   0  0  0  0  0  0  0  0  0  0  0  0
    1.6085   -1.9634   -0.3689 H   0  0  0  0  0  0  0  0  0  0  0  0
    1.1965   -1.9899    1.3396 H   0  0  0  0  0  0  0  0  0  0  0  0
    0.6624    1.7376   -0.7531 H   0  0  0  0  0  0  0  0  0  0  0  0
    1.2533    0.3687   -1.6802 H   0  0  0  0  0  0  0  0  0  0  0  0
    5.0294    0.9284    1.1842 H   0  0  0  0  0  0  0  0  0  0  0  0
    5.7121   -1.4131    1.1856 H   0  0  0  0  0  0  0  0  0  0  0  0
    5.9089   -1.4171   -0.5814 H   0  0  0  0  0  0  0  0  0  0  0  0
    6.9968   -0.4792    0.4500 H   0  0  0  0  0  0  0  0  0  0  0  0
    6.5366    1.5364   -0.6120 H   0  0  0  0  0  0  0  0  0  0  0  0
    5.0897    2.2655   -0.6759 H   0  0  0  0  0  0  0  0  0  0  0  0
   -1.3179    1.1334    0.9464 H   0  0  0  0  0  0  0  0  0  0  0  0
   -3.4463    2.0652    1.3266 H   0  0  0  0  0  0  0  0  0  0  0  0
   -3.0014   -1.5827   -0.9827 H   0  0  0  0  0  0  0  0  0  0  0  0
   -5.8974    1.8569    0.9295 H   0  0  0  0  0  0  0  0  0  0  0  0
   -5.4163   -1.6005   -1.2531 H   0  0  0  0  0  0  0  0  0  0  0  0
  1 12  2  0  0  0  0
  2 11  1  0  0  0  0
  2 33  1  0  0  0  0
  2 34  1  0  0  0  0
  3 12  1  0  0  0  0
  3 14  1  0  0  0  0
  3 35  1  0  0  0  0
  4 17  2  0  0  0  0
  4 18  1  0  0  0  0
  5  6  1  0  0  0  0
  5  7  1  0  0  0  0
  5 11  1  0  0  0  0
  5 19  1  0  0  0  0
  6  9  1  0  0  0  0
  6 20  1  0  0  0  0
  6 21  1  0  0  0  0
  7 10  1  0  0  0  0
  7 22  1  0  0  0  0
  7 23  1  0  0  0  0
  8  9  1  0  0  0  0
  8 10  1  0  0  0  0
  8 12  1  0  0  0  0
  8 24  1  0  0  0  0
  9 25  1  0  0  0  0
  9 26  1  0  0  0  0
 10 27  1  0  0  0  0
 10 28  1  0  0  0  0
 11 13  1  0  0  0  0
 11 29  1  0  0  0  0
 13 30  1  0  0  0  0
 13 31  1  0  0  0  0
 13 32  1  0  0  0  0
 14 15  2  0  0  0  0
 14 16  1  0  0  0  0
 15 17  1  0  0  0  0
 15 36  1  0  0  0  0
 16 18  2  0  0  0  0
 16 37  1  0  0  0  0
 17 38  1  0  0  0  0
 18 39  1  0  0  0  0
M  END
> <PUBCHEM_COMPOUND_CID>
448042

> <PUBCHEM_CONFORMER_RMSD>
0.6

> <PUBCHEM_CONFORMER_DIVERSEORDER>
1
58
54
61
2
55
43
42
59
53
34
47
50
19
37
44
49
30
57
20
39
18
35
56
25
38
28
21
41
31
13
33
12
24
36
6
26
17
5
46
60
4
15
40
48
14
52
45
32
51
29
3
27
16
22
10
9
23
7
11
8

> <PUBCHEM_MMFF94_PARTIAL_CHARGES>
19
1 -0.57
11 0.27
12 0.57
14 0.12
15 -0.15
16 -0.15
17 0.16
18 0.16
2 -0.99
3 -0.55
33 0.36
34 0.36
35 0.37
36 0.15
37 0.15
38 0.15
39 0.15
4 -0.62
8 0.06

> <PUBCHEM_EFFECTIVE_ROTOR_COUNT>
5.2

> <PUBCHEM_PHARMACOPHORE_FEATURES>
7
1 1 acceptor
1 2 cation
1 2 donor
1 3 donor
1 4 acceptor
6 4 14 15 16 17 18 rings
6 5 6 7 8 9 10 rings

> <PUBCHEM_HEAVY_ATOM_COUNT>
18

> <PUBCHEM_ATOM_DEF_STEREO_COUNT>
1

> <PUBCHEM_ATOM_UDEF_STEREO_COUNT>
0

> <PUBCHEM_BOND_DEF_STEREO_COUNT>
0

> <PUBCHEM_BOND_UDEF_STEREO_COUNT>
0

> <PUBCHEM_ISOTOPIC_ATOM_COUNT>
0

> <PUBCHEM_COMPONENT_COUNT>
1

> <PUBCHEM_CACTVS_TAUTO_COUNT>
3

> <PUBCHEM_CONFORMER_ID>
0006D62A00000001

> <PUBCHEM_MMFF94_ENERGY>
39.3796

> <PUBCHEM_FEATURE_SELFOVERLAP>
35.521

> <PUBCHEM_SHAPE_FINGERPRINT>
10354089 29 18187086148051957016
10688039 33 16805318868982931148
10912923 1 18409725141000840795
11089746 13 18342172289225689616
11287383 113 15697994167187181866
12107183 9 17618221706878639273
12236239 1 18411136939399846247
12507557 5 17967537895764835093
12916748 109 18202009819412709753
13533116 47 16515955974817090840
14123238 8 18410854364916789064
1420 363 15719112439835277010
14251718 22 17989204867031594347
14386348 63 15791732988158503889
14528608 73 18412262865340386164
14573314 32 16917075434089861300
15048467 5 18412825807173507792
17834072 33 18342455962972227204
17834076 25 18412261731231552378
18785283 64 15720537510269024756
19489759 90 17847061077872121361
200 152 18410571795208721185
20279233 1 15864073152664142187
20281389 69 18410290306904503776
20645477 70 17676759869272068482
21033648 29 16660910162826014725
21054139 6 18340759438116928967
21267235 1 18411425024669043467
21641784 216 17023478434533022940
2297311 6 16917072170373645865
23402539 116 17918269857286197845
23402655 69 18411698789889210071
23536379 177 18059857246908044266
23557571 272 16773803567137809009
23559900 14 17489581311545051961
26918003 58 17022626373019064825
2916195 48 17560792256081341288
29717793 49 18272655632479232750
300161 21 18410005520860928977
3004659 81 18130229264399771470
34797466 226 16916792941554392248
3545911 37 18334576850079284635
4214541 1 18342174466789776881
42630746 31 18335421236550266482
42788 4 18413107260057917624
474 4 18041001794764705964
4990 188 17418098714933370662
5104073 3 18040996310555537536
542803 24 18342739619602491601
54446538 1 18413106165015687769
7495541 125 16558743576553283338

> <PUBCHEM_SHAPE_MULTIPOLES>
349.62
14.42
1.39
0.87
0.01
0.01
-0.01
2.15
0.13
-0.24
0.05
0.05
0
-1.36

> <PUBCHEM_SHAPE_SELFOVERLAP>
723.304

> <PUBCHEM_SHAPE_VOLUME>
197.2

> <PUBCHEM_COORDINATE_TYPE>
2
5
10

$$$$
