18451135
  -OEChem-10052120433D

 64 67  0     0  0  0  0  0  0999 V2000
    3.6730   -1.6990   -0.1657 S   0  0  0  0  0  0  0  0  0  0  0  0
   -4.9666   -0.0105   -1.2592 O   0  0  0  0  0  0  0  0  0  0  0  0
    9.3408   -0.3362    0.7906 N   0  0  0  0  0  0  0  0  0  0  0  0
    3.1793    2.6697    0.6899 N   0  0  0  0  0  0  0  0  0  0  0  0
    0.8483    2.3248    0.8773 N   0  0  0  0  0  0  0  0  0  0  0  0
   -4.1993   -0.4372    0.9130 N   0  0  0  0  0  0  0  0  0  0  0  0
   -6.4671   -0.2414    0.5197 N   0  0  0  0  0  0  0  0  0  0  0  0
    8.5725   -0.4215   -0.4557 C   0  0  0  0  0  0  0  0  0  0  0  0
    8.5493   -1.8995   -0.9340 C   0  0  0  0  0  0  0  0  0  0  0  0
    9.2389    0.4366   -1.5663 C   0  0  0  0  0  0  0  0  0  0  0  0
    7.9196   -2.8941    0.0407 C   0  0  0  0  0  0  0  0  0  0  0  0
    9.3447    1.9328   -1.2767 C   0  0  0  0  0  0  0  0  0  0  0  0
    7.1886    0.0461   -0.2196 C   0  0  0  0  0  0  0  0  0  0  0  0
    2.3315    0.4443    0.3728 C   0  0  0  0  0  0  0  0  0  0  0  0
    1.3883   -0.6328    0.2768 C   0  0  0  0  0  0  0  0  0  0  0  0
    3.6361   -0.0049    0.1494 C   0  0  0  0  0  0  0  0  0  0  0  0
    4.7251    0.8738    0.1931 C   0  0  0  0  0  0  0  0  0  0  0  0
   -0.0438   -0.5825    0.4410 C   0  0  0  0  0  0  0  0  0  0  0  0
    6.0640    0.4246   -0.0307 C   0  0  0  0  0  0  0  0  0  0  0  0
    2.1386    1.8081    0.6443 C   0  0  0  0  0  0  0  0  0  0  0  0
    1.9814   -1.8396   -0.0089 C   0  0  0  0  0  0  0  0  0  0  0  0
    4.4207    2.1953    0.4687 C   0  0  0  0  0  0  0  0  0  0  0  0
   -0.8629   -0.3419   -0.6621 C   0  0  0  0  0  0  0  0  0  0  0  0
   -0.6098   -0.7751    1.7013 C   0  0  0  0  0  0  0  0  0  0  0  0
   -2.8140   -0.4864    0.7554 C   0  0  0  0  0  0  0  0  0  0  0  0
   -2.2480   -0.2939   -0.5049 C   0  0  0  0  0  0  0  0  0  0  0  0
   -1.9948   -0.7270    1.8585 C   0  0  0  0  0  0  0  0  0  0  0  0
   -5.1931   -0.2082   -0.0697 C   0  0  0  0  0  0  0  0  0  0  0  0
   -7.7222   -0.0605   -0.1080 C   0  0  0  0  0  0  0  0  0  0  0  0
   -8.8950   -0.1280    0.6439 C   0  0  0  0  0  0  0  0  0  0  0  0
  -10.1319    0.0493    0.0242 C   0  0  0  0  0  0  0  0  0  0  0  0
   -7.7862    0.1843   -1.4797 C   0  0  0  0  0  0  0  0  0  0  0  0
  -10.1961    0.2940   -1.3476 C   0  0  0  0  0  0  0  0  0  0  0  0
   -9.0233    0.3616   -2.0995 C   0  0  0  0  0  0  0  0  0  0  0  0
  -11.3863   -0.0249    0.8276 C   0  0  0  0  0  0  0  0  0  0  0  0
    9.5725   -2.2346   -1.1508 H   0  0  0  0  0  0  0  0  0  0  0  0
    7.9965   -1.9665   -1.8812 H   0  0  0  0  0  0  0  0  0  0  0  0
   10.2501    0.0568   -1.7650 H   0  0  0  0  0  0  0  0  0  0  0  0
    8.6773    0.3180   -2.5031 H   0  0  0  0  0  0  0  0  0  0  0  0
    8.4920   -2.9684    0.9699 H   0  0  0  0  0  0  0  0  0  0  0  0
    6.8878   -2.6307    0.2869 H   0  0  0  0  0  0  0  0  0  0  0  0
    7.9050   -3.8916   -0.4117 H   0  0  0  0  0  0  0  0  0  0  0  0
    9.8037    2.4422   -2.1307 H   0  0  0  0  0  0  0  0  0  0  0  0
    8.3625    2.3854   -1.1123 H   0  0  0  0  0  0  0  0  0  0  0  0
    9.9710    2.1312   -0.4021 H   0  0  0  0  0  0  0  0  0  0  0  0
    9.3729    0.6263    1.1232 H   0  0  0  0  0  0  0  0  0  0  0  0
    8.8885   -0.8740    1.5284 H   0  0  0  0  0  0  0  0  0  0  0  0
    1.5097   -2.8052   -0.1353 H   0  0  0  0  0  0  0  0  0  0  0  0
    5.2021    2.9489    0.5232 H   0  0  0  0  0  0  0  0  0  0  0  0
   -0.4364   -0.1885   -1.6508 H   0  0  0  0  0  0  0  0  0  0  0  0
    0.0148   -0.9626    2.5716 H   0  0  0  0  0  0  0  0  0  0  0  0
   -2.8122   -0.1023   -1.4064 H   0  0  0  0  0  0  0  0  0  0  0  0
   -2.4223   -0.8782    2.8465 H   0  0  0  0  0  0  0  0  0  0  0  0
    0.0157    1.7614    0.8624 H   0  0  0  0  0  0  0  0  0  0  0  0
    0.7643    3.3152    1.0674 H   0  0  0  0  0  0  0  0  0  0  0  0
   -4.5367   -0.5862    1.8608 H   0  0  0  0  0  0  0  0  0  0  0  0
   -6.5023   -0.4160    1.5208 H   0  0  0  0  0  0  0  0  0  0  0  0
   -8.8464   -0.3211    1.7133 H   0  0  0  0  0  0  0  0  0  0  0  0
   -6.9262    0.2510   -2.1303 H   0  0  0  0  0  0  0  0  0  0  0  0
  -11.1538    0.4316   -1.8426 H   0  0  0  0  0  0  0  0  0  0  0  0
   -9.0746    0.5516   -3.1678 H   0  0  0  0  0  0  0  0  0  0  0  0
  -12.1777    0.5896    0.3850 H   0  0  0  0  0  0  0  0  0  0  0  0
  -11.2246    0.3461    1.8454 H   0  0  0  0  0  0  0  0  0  0  0  0
  -11.7367   -1.0604    0.8822 H   0  0  0  0  0  0  0  0  0  0  0  0
  1 16  1  0  0  0  0
  1 21  1  0  0  0  0
  2 28  2  0  0  0  0
  3  8  1  0  0  0  0
  3 46  1  0  0  0  0
  3 47  1  0  0  0  0
  4 20  2  0  0  0  0
  4 22  1  0  0  0  0
  5 20  1  0  0  0  0
  5 54  1  0  0  0  0
  5 55  1  0  0  0  0
  6 25  1  0  0  0  0
  6 28  1  0  0  0  0
  6 56  1  0  0  0  0
  7 28  1  0  0  0  0
  7 29  1  0  0  0  0
  7 57  1  0  0  0  0
  8  9  1  0  0  0  0
  8 10  1  0  0  0  0
  8 13  1  0  0  0  0
  9 11  1  0  0  0  0
  9 36  1  0  0  0  0
  9 37  1  0  0  0  0
 10 12  1  0  0  0  0
 10 38  1  0  0  0  0
 10 39  1  0  0  0  0
 11 40  1  0  0  0  0
 11 41  1  0  0  0  0
 11 42  1  0  0  0  0
 12 43  1  0  0  0  0
 12 44  1  0  0  0  0
 12 45  1  0  0  0  0
 13 19  3  0  0  0  0
 14 15  1  0  0  0  0
 14 16  2  0  0  0  0
 14 20  1  0  0  0  0
 15 18  1  0  0  0  0
 15 21  2  0  0  0  0
 16 17  1  0  0  0  0
 17 19  1  0  0  0  0
 17 22  2  0  0  0  0
 18 23  2  0  0  0  0
 18 24  1  0  0  0  0
 21 48  1  0  0  0  0
 22 49  1  0  0  0  0
 23 26  1  0  0  0  0
 23 50  1  0  0  0  0
 24 27  2  0  0  0  0
 24 51  1  0  0  0  0
 25 26  2  0  0  0  0
 25 27  1  0  0  0  0
 26 52  1  0  0  0  0
 27 53  1  0  0  0  0
 29 30  1  0  0  0  0
 29 32  2  0  0  0  0
 30 31  2  0  0  0  0
 30 58  1  0  0  0  0
 31 33  1  0  0  0  0
 31 35  1  0  0  0  0
 32 34  1  0  0  0  0
 32 59  1  0  0  0  0
 33 34  2  0  0  0  0
 33 60  1  0  0  0  0
 34 61  1  0  0  0  0
 35 62  1  0  0  0  0
 35 63  1  0  0  0  0
 35 64  1  0  0  0  0
M  END
> <PUBCHEM_COMPOUND_CID>
18451135

> <PUBCHEM_CONFORMER_RMSD>
1

> <PUBCHEM_CONFORMER_DIVERSEORDER>
1
18
10
2
19
7
22
6
20
16
3
15
11
8
4
21
17
5
12
9
13
14
23

> <PUBCHEM_MMFF94_PARTIAL_CHARGES>
46
1 -0.08
13 -0.2
15 -0.05
16 0.04
17 0.07
18 0.05
19 -0.07
2 -0.57
20 0.41
21 -0.11
22 0.16
23 -0.15
24 -0.15
25 0.12
26 -0.15
27 -0.15
28 0.69
29 0.12
3 -0.99
30 -0.15
31 -0.14
32 -0.15
33 -0.15
34 -0.15
35 0.14
4 -0.62
46 0.36
47 0.36
48 0.15
49 0.15
5 -0.9
50 0.15
51 0.15
52 0.15
53 0.15
54 0.4
55 0.4
56 0.37
57 0.37
58 0.15
59 0.15
6 -0.55
60 0.15
61 0.15
7 -0.55
8 0.47

> <PUBCHEM_EFFECTIVE_ROTOR_COUNT>
7

> <PUBCHEM_PHARMACOPHORE_FEATURES>
13
1 11 hydrophobe
1 12 hydrophobe
1 2 acceptor
1 3 cation
1 3 donor
1 5 donor
1 6 donor
1 7 donor
3 4 5 20 cation
5 1 14 15 16 21 rings
6 18 23 24 25 26 27 rings
6 29 30 31 32 33 34 rings
6 4 14 16 17 20 22 rings

> <PUBCHEM_HEAVY_ATOM_COUNT>
35

> <PUBCHEM_ATOM_DEF_STEREO_COUNT>
0

> <PUBCHEM_ATOM_UDEF_STEREO_COUNT>
0

> <PUBCHEM_BOND_DEF_STEREO_COUNT>
0

> <PUBCHEM_BOND_UDEF_STEREO_COUNT>
0

> <PUBCHEM_ISOTOPIC_ATOM_COUNT>
0

> <PUBCHEM_COMPONENT_COUNT>
1

> <PUBCHEM_CACTVS_TAUTO_COUNT>
6

> <PUBCHEM_CONFORMER_ID>
01198ABF00000001

> <PUBCHEM_MMFF94_ENERGY>
93.2562

> <PUBCHEM_FEATURE_SELFOVERLAP>
66.085

> <PUBCHEM_SHAPE_FINGERPRINT>
10 15 15213296427125577385
10165383 225 17603303765231365394
10299344 5 17490148617871710039
106641 1 13840263698017126961
11061554 47 16877657967888007852
11211813 74 18335705009915210236
11409948 35 17822566102411490354
11409948 41 17917429766390148566
12089408 11 16845570942083175177
12522641 33 18040714753864470699
12664476 115 18186799184450342989
13165054 160 12252170893555051376
14117953 113 18131355219718663292
14251764 46 16081369652989198499
14294032 229 16127832773112843385
15183329 4 16415480476779020569
15247644 1 13398634956679183997
15392192 104 14706926242236491553
15461852 350 16200157577348899713
15510794 2 18186525406276813171
15773216 30 17313658231705526282
15840311 113 16773790433676372848
21792934 111 18409442614907415432
21792938 131 18041835101227724986
21895431 317 15912779280851143318
232437 2 14908181954253827487
24893992 56 18114181969132228507
249057 3 18272367603124173271
3092352 35 17775283886124498503
335352 9 18343868831641327956
4625314 4 18187086203997606791
58083652 198 18200885062653464832
58902169 19 17774714377160151221
59521099 67 17275383235673689880
59682541 35 10952048961408908508
6081469 158 18260266339320052780
9663363 56 18412260645902526104

> <PUBCHEM_SHAPE_MULTIPOLES>
693.36
40.87
1.93
1.4
51.17
0.25
0.23
0.19
14.58
-5.95
-0.19
1.55
0.12
0.83

> <PUBCHEM_SHAPE_SELFOVERLAP>
1487.635

> <PUBCHEM_SHAPE_VOLUME>
385.7

> <PUBCHEM_COORDINATE_TYPE>
2
5
10

$$$$
