10871128
  -OEChem-10062121583D

 38 42  0     0  0  0  0  0  0999 V2000
   -2.2558   -2.6794    0.3770 O   0  0  0  0  0  0  0  0  0  0  0  0
    2.2325   -2.6914   -0.3792 O   0  0  0  0  0  0  0  0  0  0  0  0
   -1.5403    0.2219    0.3791 N   0  0  0  0  0  0  0  0  0  0  0  0
    1.5335    0.2138   -0.3763 N   0  0  0  0  0  0  0  0  0  0  0  0
   -0.0127   -3.0534   -0.0011 N   0  0  0  0  0  0  0  0  0  0  0  0
   -0.6744   -0.8589    0.1170 C   0  0  0  0  0  0  0  0  0  0  0  0
    0.6615   -0.8625   -0.1158 C   0  0  0  0  0  0  0  0  0  0  0  0
   -2.8751    0.2824    0.0472 C   0  0  0  0  0  0  0  0  0  0  0  0
    2.8811    0.2818   -0.0481 C   0  0  0  0  0  0  0  0  0  0  0  0
   -3.3518    1.5198    0.4853 C   0  0  0  0  0  0  0  0  0  0  0  0
    3.3650    1.5172   -0.4843 C   0  0  0  0  0  0  0  0  0  0  0  0
   -1.1199   -2.2864    0.1689 C   0  0  0  0  0  0  0  0  0  0  0  0
    1.0988   -2.2923   -0.1701 C   0  0  0  0  0  0  0  0  0  0  0  0
   -1.1579    1.3752    1.0101 C   0  0  0  0  0  0  0  0  0  0  0  0
    1.1702    1.3858   -1.0093 C   0  0  0  0  0  0  0  0  0  0  0  0
   -2.2573    2.1984    1.0908 C   0  0  0  0  0  0  0  0  0  0  0  0
    2.2743    2.2029   -1.0887 C   0  0  0  0  0  0  0  0  0  0  0  0
   -3.6884   -0.6540   -0.6006 C   0  0  0  0  0  0  0  0  0  0  0  0
    3.6893   -0.6602    0.5983 C   0  0  0  0  0  0  0  0  0  0  0  0
   -4.7063    1.8405    0.2672 C   0  0  0  0  0  0  0  0  0  0  0  0
    4.7213    1.8298   -0.2657 C   0  0  0  0  0  0  0  0  0  0  0  0
   -5.0286   -0.3139   -0.8059 C   0  0  0  0  0  0  0  0  0  0  0  0
    5.0314   -0.3280    0.8040 C   0  0  0  0  0  0  0  0  0  0  0  0
   -5.5319    0.9135   -0.3793 C   0  0  0  0  0  0  0  0  0  0  0  0
    5.5415    0.8972    0.3794 C   0  0  0  0  0  0  0  0  0  0  0  0
   -0.1611    1.5213    1.4038 H   0  0  0  0  0  0  0  0  0  0  0  0
    0.1736    1.5373   -1.4011 H   0  0  0  0  0  0  0  0  0  0  0  0
   -2.2743    3.1779    1.5487 H   0  0  0  0  0  0  0  0  0  0  0  0
    2.2968    3.1832   -1.5448 H   0  0  0  0  0  0  0  0  0  0  0  0
   -0.0155   -4.0670   -0.0020 H   0  0  0  0  0  0  0  0  0  0  0  0
   -3.3225   -1.5467   -1.0875 H   0  0  0  0  0  0  0  0  0  0  0  0
    3.3179   -1.5542    1.0784 H   0  0  0  0  0  0  0  0  0  0  0  0
   -5.1113    2.7944    0.5927 H   0  0  0  0  0  0  0  0  0  0  0  0
    5.1316    2.7819   -0.5897 H   0  0  0  0  0  0  0  0  0  0  0  0
   -5.6797   -1.0033   -1.3377 H   0  0  0  0  0  0  0  0  0  0  0  0
    5.6788   -1.0225    1.3336 H   0  0  0  0  0  0  0  0  0  0  0  0
   -6.5754    1.1588   -0.5576 H   0  0  0  0  0  0  0  0  0  0  0  0
    6.5866    1.1363    0.5579 H   0  0  0  0  0  0  0  0  0  0  0  0
  1 12  2  0  0  0  0
  2 13  2  0  0  0  0
  3  6  1  0  0  0  0
  3  8  1  0  0  0  0
  3 14  1  0  0  0  0
  4  7  1  0  0  0  0
  4  9  1  0  0  0  0
  4 15  1  0  0  0  0
  5 12  1  0  0  0  0
  5 13  1  0  0  0  0
  5 30  1  0  0  0  0
  6  7  2  0  0  0  0
  6 12  1  0  0  0  0
  7 13  1  0  0  0  0
  8 10  1  0  0  0  0
  8 18  2  0  0  0  0
  9 11  1  0  0  0  0
  9 19  2  0  0  0  0
 10 16  1  0  0  0  0
 10 20  2  0  0  0  0
 11 17  1  0  0  0  0
 11 21  2  0  0  0  0
 14 16  2  0  0  0  0
 14 26  1  0  0  0  0
 15 17  2  0  0  0  0
 15 27  1  0  0  0  0
 16 28  1  0  0  0  0
 17 29  1  0  0  0  0
 18 22  1  0  0  0  0
 18 31  1  0  0  0  0
 19 23  1  0  0  0  0
 19 32  1  0  0  0  0
 20 24  1  0  0  0  0
 20 33  1  0  0  0  0
 21 25  1  0  0  0  0
 21 34  1  0  0  0  0
 22 24  2  0  0  0  0
 22 35  1  0  0  0  0
 23 25  2  0  0  0  0
 23 36  1  0  0  0  0
 24 37  1  0  0  0  0
 25 38  1  0  0  0  0
M  END
> <PUBCHEM_COMPOUND_CID>
10871128

> <PUBCHEM_CONFORMER_RMSD>
0.6

> <PUBCHEM_CONFORMER_DIVERSEORDER>
1
6
10
12
11
13
2
5
9
4
3
8
7

> <PUBCHEM_MMFF94_PARTIAL_CHARGES>
36
1 -0.57
12 0.62
13 0.62
14 -0.3
15 -0.3
16 -0.15
17 -0.15
18 -0.15
19 -0.15
2 -0.57
20 -0.15
21 -0.15
22 -0.15
23 -0.15
24 -0.15
25 -0.15
26 0.15
27 0.15
28 0.15
29 0.15
3 0.33
30 0.37
31 0.15
32 0.15
33 0.15
34 0.15
35 0.15
36 0.15
37 0.15
38 0.15
4 0.33
5 -0.49
6 -0.02
7 -0.02
8 -0.15
9 -0.15

> <PUBCHEM_EFFECTIVE_ROTOR_COUNT>
2.2

> <PUBCHEM_PHARMACOPHORE_FEATURES>
10
1 1 acceptor
1 2 acceptor
1 3 cation
1 4 cation
1 5 donor
5 3 8 10 14 16 rings
5 4 9 11 15 17 rings
5 5 6 7 12 13 rings
6 8 10 18 20 22 24 rings
6 9 11 19 21 23 25 rings

> <PUBCHEM_HEAVY_ATOM_COUNT>
25

> <PUBCHEM_ATOM_DEF_STEREO_COUNT>
0

> <PUBCHEM_ATOM_UDEF_STEREO_COUNT>
0

> <PUBCHEM_BOND_DEF_STEREO_COUNT>
0

> <PUBCHEM_BOND_UDEF_STEREO_COUNT>
0

> <PUBCHEM_ISOTOPIC_ATOM_COUNT>
0

> <PUBCHEM_COMPONENT_COUNT>
1

> <PUBCHEM_CACTVS_TAUTO_COUNT>
2

> <PUBCHEM_CONFORMER_ID>
00A5E15800000001

> <PUBCHEM_MMFF94_ENERGY>
83.389

> <PUBCHEM_FEATURE_SELFOVERLAP>
50.93

> <PUBCHEM_SHAPE_FINGERPRINT>
10090160 65 18409163282174762659
11370993 70 18410855464423174560
12107183 9 18334566911836257018
12236239 1 18410851062087172288
12403260 363 18410571786144611005
12788726 201 17904775727330768558
13140716 1 18334859480254628240
13583140 156 16343415211523579902
14117953 113 18334857177767504253
14767858 380 18270948138271529719
14787075 74 18060132158848010481
15196674 1 18410575088958078694
15420108 30 16974779745603931816
15840311 113 18052270501551796529
16752209 62 18196654218712537558
17349148 13 18410849966865029184
17492 89 18270121193616329071
18681886 176 18341044207507200224
192875 21 18410574002384665496
19377110 9 18272379642212838657
20197701 30 18410568491888338022
20511986 3 18338780278204892708
20567600 75 15719664368871046234
20642791 105 18264766751928708707
20691752 17 17971490519438164974
20715895 44 18335415721601248973
20775438 99 16114824785240724111
21033648 144 18115015441442373924
21033648 29 17916853755688339832
21033650 10 17487648301716884344
21298829 104 18338796698472001197
22149856 69 18197805275086644795
22182313 1 18196117557932565111
23184049 59 18114183025530704452
23402539 116 18272081725494754477
23559900 14 18200876171696549750
23569917 315 18410575080401026862
335352 9 18409167689265103710
350125 39 18264494064301877387
352729 6 18267038308423111351
4017518 198 18060703875937972910
404807 14 16049031675876520950
4340502 62 18410862040640493013
474 4 18335984177396528771
484989 97 18048594013392787023
5104073 3 18115017645472551976
513202 73 16879614991891507386
57724786 102 16805617978815959757
59755656 215 18341336600369762318
6328613 192 18261964050405081052
67856867 119 18340761525148820146
7064713 232 18412256225674524216
9709674 26 18343591724029464878
9981440 41 18410012156396121491

> <PUBCHEM_SHAPE_MULTIPOLES>
487.81
11.14
3
0.93
0.1
1.74
0
-5.11
0
-0.01
0
0
-0.33
-0.92

> <PUBCHEM_SHAPE_SELFOVERLAP>
1124.913

> <PUBCHEM_SHAPE_VOLUME>
252.3

> <PUBCHEM_COORDINATE_TYPE>
2
5
10

$$$$
