13984334
  -OEChem-10052115193D

 51 53  0     0  0  0  0  0  0999 V2000
    1.6940   -2.1927   -0.8044 O   0  0  0  0  0  0  0  0  0  0  0  0
    2.1791    2.4393   -0.5115 O   0  0  0  0  0  0  0  0  0  0  0  0
    8.8774   -0.6252    1.3693 O   0  0  0  0  0  0  0  0  0  0  0  0
    1.9803    0.1228   -0.7396 N   0  0  0  0  0  0  0  0  0  0  0  0
   -4.2572   -0.5960    0.7582 N   0  0  0  0  0  0  0  0  0  0  0  0
    5.6833   -0.2714   -0.4243 N   0  0  0  0  0  0  0  0  0  0  0  0
   -0.7187    0.3623   -0.0243 C   0  0  0  0  0  0  0  0  0  0  0  0
   -0.1906   -0.9136   -0.2658 C   0  0  0  0  0  0  0  0  0  0  0  0
   -2.0877    0.4849    0.3223 C   0  0  0  0  0  0  0  0  0  0  0  0
    0.0666    1.5203   -0.1122 C   0  0  0  0  0  0  0  0  0  0  0  0
   -2.8844   -0.6661    0.4156 C   0  0  0  0  0  0  0  0  0  0  0  0
    1.2356   -1.0658   -0.6285 C   0  0  0  0  0  0  0  0  0  0  0  0
    3.3700    0.0029   -1.1677 C   0  0  0  0  0  0  0  0  0  0  0  0
    1.4982    1.4170   -0.4726 C   0  0  0  0  0  0  0  0  0  0  0  0
   -0.9989   -2.0533   -0.1679 C   0  0  0  0  0  0  0  0  0  0  0  0
   -2.3426   -1.9262    0.1719 C   0  0  0  0  0  0  0  0  0  0  0  0
   -2.6287    1.7556    0.5688 C   0  0  0  0  0  0  0  0  0  0  0  0
    4.3052   -0.1242    0.0257 C   0  0  0  0  0  0  0  0  0  0  0  0
   -0.4884    2.7819    0.1377 C   0  0  0  0  0  0  0  0  0  0  0  0
   -5.1786   -1.6459    0.4671 C   0  0  0  0  0  0  0  0  0  0  0  0
   -1.8334    2.8957    0.4770 C   0  0  0  0  0  0  0  0  0  0  0  0
   -6.6169   -1.1415    0.5472 C   0  0  0  0  0  0  0  0  0  0  0  0
   -6.9130   -0.0384   -0.4721 C   0  0  0  0  0  0  0  0  0  0  0  0
    6.5892   -0.4049    0.7083 C   0  0  0  0  0  0  0  0  0  0  0  0
   -8.3692    0.3965   -0.4122 C   0  0  0  0  0  0  0  0  0  0  0  0
    8.0294   -0.5143    0.2337 C   0  0  0  0  0  0  0  0  0  0  0  0
    3.6375    0.8843   -1.7638 H   0  0  0  0  0  0  0  0  0  0  0  0
    3.4738   -0.8701   -1.8237 H   0  0  0  0  0  0  0  0  0  0  0  0
   -0.5995   -3.0474   -0.3503 H   0  0  0  0  0  0  0  0  0  0  0  0
   -2.9268   -2.8383    0.2500 H   0  0  0  0  0  0  0  0  0  0  0  0
   -3.6720    1.9107    0.8269 H   0  0  0  0  0  0  0  0  0  0  0  0
    4.2065    0.7598    0.6680 H   0  0  0  0  0  0  0  0  0  0  0  0
    4.0121   -0.9952    0.6250 H   0  0  0  0  0  0  0  0  0  0  0  0
    0.1095    3.6869    0.0716 H   0  0  0  0  0  0  0  0  0  0  0  0
   -4.5921    0.2244    1.2463 H   0  0  0  0  0  0  0  0  0  0  0  0
   -5.0171   -2.0487   -0.5408 H   0  0  0  0  0  0  0  0  0  0  0  0
   -5.0548   -2.4664    1.1835 H   0  0  0  0  0  0  0  0  0  0  0  0
   -2.2636    3.8747    0.6677 H   0  0  0  0  0  0  0  0  0  0  0  0
   -6.8214   -0.7668    1.5582 H   0  0  0  0  0  0  0  0  0  0  0  0
   -7.2952   -1.9865    0.3769 H   0  0  0  0  0  0  0  0  0  0  0  0
   -6.6879   -0.3972   -1.4831 H   0  0  0  0  0  0  0  0  0  0  0  0
   -6.2783    0.8358   -0.2894 H   0  0  0  0  0  0  0  0  0  0  0  0
    5.9498    0.5367   -0.9862 H   0  0  0  0  0  0  0  0  0  0  0  0
    6.5008    0.4552    1.3842 H   0  0  0  0  0  0  0  0  0  0  0  0
    6.3369   -1.2945    1.2989 H   0  0  0  0  0  0  0  0  0  0  0  0
   -8.6205    0.7896    0.5780 H   0  0  0  0  0  0  0  0  0  0  0  0
   -8.5603    1.1834   -1.1487 H   0  0  0  0  0  0  0  0  0  0  0  0
   -9.0386   -0.4419   -0.6298 H   0  0  0  0  0  0  0  0  0  0  0  0
    8.1820   -1.3924   -0.4027 H   0  0  0  0  0  0  0  0  0  0  0  0
    8.3321    0.3759   -0.3271 H   0  0  0  0  0  0  0  0  0  0  0  0
    8.6278   -1.4362    1.8444 H   0  0  0  0  0  0  0  0  0  0  0  0
  1 12  2  0  0  0  0
  2 14  2  0  0  0  0
  3 26  1  0  0  0  0
  3 51  1  0  0  0  0
  4 12  1  0  0  0  0
  4 13  1  0  0  0  0
  4 14  1  0  0  0  0
  5 11  1  0  0  0  0
  5 20  1  0  0  0  0
  5 35  1  0  0  0  0
  6 18  1  0  0  0  0
  6 24  1  0  0  0  0
  6 43  1  0  0  0  0
  7  8  2  0  0  0  0
  7  9  1  0  0  0  0
  7 10  1  0  0  0  0
  8 12  1  0  0  0  0
  8 15  1  0  0  0  0
  9 11  2  0  0  0  0
  9 17  1  0  0  0  0
 10 14  1  0  0  0  0
 10 19  2  0  0  0  0
 11 16  1  0  0  0  0
 13 18  1  0  0  0  0
 13 27  1  0  0  0  0
 13 28  1  0  0  0  0
 15 16  2  0  0  0  0
 15 29  1  0  0  0  0
 16 30  1  0  0  0  0
 17 21  2  0  0  0  0
 17 31  1  0  0  0  0
 18 32  1  0  0  0  0
 18 33  1  0  0  0  0
 19 21  1  0  0  0  0
 19 34  1  0  0  0  0
 20 22  1  0  0  0  0
 20 36  1  0  0  0  0
 20 37  1  0  0  0  0
 21 38  1  0  0  0  0
 22 23  1  0  0  0  0
 22 39  1  0  0  0  0
 22 40  1  0  0  0  0
 23 25  1  0  0  0  0
 23 41  1  0  0  0  0
 23 42  1  0  0  0  0
 24 26  1  0  0  0  0
 24 44  1  0  0  0  0
 24 45  1  0  0  0  0
 25 46  1  0  0  0  0
 25 47  1  0  0  0  0
 25 48  1  0  0  0  0
 26 49  1  0  0  0  0
 26 50  1  0  0  0  0
M  END
> <PUBCHEM_COMPOUND_CID>
13984334

> <PUBCHEM_CONFORMER_RMSD>
1

> <PUBCHEM_CONFORMER_DIVERSEORDER>
1
30
12
32
6
21
26
27
29
7
22
24
14
17
3
11
19
28
5
9
31
25
23
20
15
4
10
13
8
18
16
2

> <PUBCHEM_MMFF94_PARTIAL_CHARGES>
29
1 -0.57
10 0.09
11 0.1
12 0.54
13 0.3
14 0.54
15 -0.15
16 -0.15
17 -0.15
18 0.27
19 -0.15
2 -0.57
20 0.37
21 -0.15
24 0.27
26 0.28
29 0.15
3 -0.68
30 0.15
31 0.15
34 0.15
35 0.4
38 0.15
4 -0.42
43 0.36
5 -0.87
51 0.4
6 -0.9
8 0.09

> <PUBCHEM_EFFECTIVE_ROTOR_COUNT>
9.2

> <PUBCHEM_PHARMACOPHORE_FEATURES>
12
1 1 acceptor
1 2 acceptor
1 25 hydrophobe
1 3 acceptor
1 3 donor
1 5 cation
1 5 donor
1 6 cation
1 6 donor
6 4 7 8 10 12 14 rings
6 7 8 9 11 15 16 rings
6 7 9 10 17 19 21 rings

> <PUBCHEM_HEAVY_ATOM_COUNT>
26

> <PUBCHEM_ATOM_DEF_STEREO_COUNT>
0

> <PUBCHEM_ATOM_UDEF_STEREO_COUNT>
0

> <PUBCHEM_BOND_DEF_STEREO_COUNT>
0

> <PUBCHEM_BOND_UDEF_STEREO_COUNT>
0

> <PUBCHEM_ISOTOPIC_ATOM_COUNT>
0

> <PUBCHEM_COMPONENT_COUNT>
1

> <PUBCHEM_CACTVS_TAUTO_COUNT>
3

> <PUBCHEM_CONFORMER_ID>
00D5624E00000001

> <PUBCHEM_MMFF94_ENERGY>
61.3277

> <PUBCHEM_FEATURE_SELFOVERLAP>
60.97

> <PUBCHEM_SHAPE_FINGERPRINT>
10 15 18273209821163464010
10319926 262 18270389492260473690
106641 1 14692568836480354671
10674148 151 13912598360194886206
10967382 1 18196948870764768541
1100329 8 18266464384976273139
11796584 16 17022908981656340523
12236239 1 17822014199376957292
12838862 33 18341319042195380759
13140716 1 18196658612305741322
13540713 4 17914062997376368526
13862211 1 18340210786304340343
13914758 101 16877941607433003455
14117953 113 18342742918506699271
14790565 3 17185885428677398445
15131766 46 16736384064272251036
16087824 20 18339644431191439765
1813 80 17168434753821385486
20642791 13 18199479783376093961
21267235 1 18338248131835799326
21792934 111 18411974780562416776
22224240 67 16988843886872085702
23402539 116 18272089426787873647
23559900 14 18267304412324085361
24771293 8 18060146418413551513
249057 3 9439395835771302442
3004659 81 18186802517244536045
3009799 131 18409166611048587215
335352 9 18410295843575862271
3383291 50 18334862740135514714
350125 39 18411143557992415989
4325135 7 14261348068163234471
4340502 62 14261362348845208749
5104073 3 18127417757164051650
59755656 215 18410860940807579943
6138700 20 18408042922839126491

> <PUBCHEM_SHAPE_MULTIPOLES>
502.52
19.53
2.53
0.9
14.54
1.43
0.01
-6.73
4.03
-1.38
0.09
0.58
-0.07
-0.08

> <PUBCHEM_SHAPE_SELFOVERLAP>
1068.404

> <PUBCHEM_SHAPE_VOLUME>
280.3

> <PUBCHEM_COORDINATE_TYPE>
2
5
10

$$$$
