44340931
  -OEChem-10062121583D

 72 78  0     1  0  0  0  0  0999 V2000
   -3.9986   -0.8668    0.7748 O   0  0  0  0  0  0  0  0  0  0  0  0
   -2.9076    1.3603   -1.9511 O   0  0  0  0  0  0  0  0  0  0  0  0
   -4.9939    2.2707   -0.3790 O   0  0  0  0  0  0  0  0  0  0  0  0
   -7.2544    0.6666    0.0333 O   0  0  0  0  0  0  0  0  0  0  0  0
   -5.3473   -1.6176    3.0456 O   0  0  0  0  0  0  0  0  0  0  0  0
   -3.9937   -2.7462   -0.1966 O   0  0  0  0  0  0  0  0  0  0  0  0
    3.2202   -2.8449   -0.7691 O   0  0  0  0  0  0  0  0  0  0  0  0
    4.3250    1.6421   -0.3414 O   0  0  0  0  0  0  0  0  0  0  0  0
    2.3788    6.2334    0.3371 O   0  0  0  0  0  0  0  0  0  0  0  0
    7.8616    0.2774    0.0054 O   0  0  0  0  0  0  0  0  0  0  0  0
    6.3038   -2.8928    2.3231 O   0  0  0  0  0  0  0  0  0  0  0  0
   -1.8019   -0.7093   -0.1317 N   0  0  0  0  0  0  0  0  0  0  0  0
   -1.1405    1.9809    0.1237 N   0  0  0  0  0  0  0  0  0  0  0  0
    4.1475   -0.6900   -0.5948 N   0  0  0  0  0  0  0  0  0  0  0  0
    5.4770   -1.0037   -0.7347 N   0  0  0  0  0  0  0  0  0  0  0  0
   -3.1225    0.0117    0.0557 C   0  0  1  0  0  0  0  0  0  0  0  0
   -3.7489    0.4198   -1.2906 C   0  0  1  0  0  0  0  0  0  0  0  0
   -0.5122   -0.3065   -0.1867 C   0  0  0  0  0  0  0  0  0  0  0  0
   -5.1369    1.0308   -1.0782 C   0  0  1  0  0  0  0  0  0  0  0  0
   -5.9940    0.0717   -0.2494 C   0  0  1  0  0  0  0  0  0  0  0  0
    0.5782   -1.2201   -0.3765 C   0  0  0  0  0  0  0  0  0  0  0  0
   -5.2791   -0.2942    1.0580 C   0  0  1  0  0  0  0  0  0  0  0  0
   -1.6556   -2.0780   -0.3002 C   0  0  0  0  0  0  0  0  0  0  0  0
   -0.1794    1.0472   -0.0581 C   0  0  0  0  0  0  0  0  0  0  0  0
   -0.2690   -2.4198   -0.4476 C   0  0  0  0  0  0  0  0  0  0  0  0
    1.9260   -0.8777   -0.4425 C   0  0  0  0  0  0  0  0  0  0  0  0
    1.2160    1.3746   -0.1297 C   0  0  0  0  0  0  0  0  0  0  0  0
    2.2569    0.4688   -0.3147 C   0  0  0  0  0  0  0  0  0  0  0  0
    1.0193    2.8205    0.0508 C   0  0  0  0  0  0  0  0  0  0  0  0
   -6.0686   -1.3210    1.8639 C   0  0  0  0  0  0  0  0  0  0  0  0
   -2.6644   -3.0528   -0.3332 C   0  0  0  0  0  0  0  0  0  0  0  0
   -0.3740    3.1344    0.1955 C   0  0  0  0  0  0  0  0  0  0  0  0
    3.1531   -1.6403   -0.6255 C   0  0  0  0  0  0  0  0  0  0  0  0
    3.7036    0.6006   -0.4127 C   0  0  0  0  0  0  0  0  0  0  0  0
    0.0422   -3.7892   -0.6286 C   0  0  0  0  0  0  0  0  0  0  0  0
   -2.3034   -4.3884   -0.5145 C   0  0  0  0  0  0  0  0  0  0  0  0
   -0.9714   -4.7530   -0.6600 C   0  0  0  0  0  0  0  0  0  0  0  0
    1.9330    3.9008    0.1026 C   0  0  0  0  0  0  0  0  0  0  0  0
   -0.8191    4.4523    0.3806 C   0  0  0  0  0  0  0  0  0  0  0  0
    6.0767   -1.2453    0.5708 C   0  0  0  0  0  0  0  0  0  0  0  0
    1.4786    5.2110    0.2877 C   0  0  0  0  0  0  0  0  0  0  0  0
    0.1232    5.4805    0.4243 C   0  0  0  0  0  0  0  0  0  0  0  0
    7.5881   -1.0383    0.4714 C   0  0  0  0  0  0  0  0  0  0  0  0
    5.7277   -2.6604    1.0426 C   0  0  0  0  0  0  0  0  0  0  0  0
   -2.9519    0.7826    0.7983 H   0  0  0  0  0  0  0  0  0  0  0  0
   -3.8423   -0.4609   -1.9379 H   0  0  0  0  0  0  0  0  0  0  0  0
   -5.6168    1.2708   -2.0326 H   0  0  0  0  0  0  0  0  0  0  0  0
   -6.1727   -0.8383   -0.8359 H   0  0  0  0  0  0  0  0  0  0  0  0
   -5.1360    0.5823    1.7024 H   0  0  0  0  0  0  0  0  0  0  0  0
   -6.1961   -2.2532    1.3049 H   0  0  0  0  0  0  0  0  0  0  0  0
   -7.0535   -0.9354    2.1445 H   0  0  0  0  0  0  0  0  0  0  0  0
   -2.1319    1.9972    0.0038 H   0  0  0  0  0  0  0  0  0  0  0  0
    1.0713   -4.1132   -0.7459 H   0  0  0  0  0  0  0  0  0  0  0  0
   -3.3373    1.5989   -2.7899 H   0  0  0  0  0  0  0  0  0  0  0  0
   -4.5090    2.1318    0.4487 H   0  0  0  0  0  0  0  0  0  0  0  0
   -7.6710    0.8886   -0.8169 H   0  0  0  0  0  0  0  0  0  0  0  0
   -3.0651   -5.1642   -0.5443 H   0  0  0  0  0  0  0  0  0  0  0  0
   -0.7107   -5.7987   -0.8001 H   0  0  0  0  0  0  0  0  0  0  0  0
    2.9973    3.7152   -0.0013 H   0  0  0  0  0  0  0  0  0  0  0  0
   -1.8771    4.6727    0.4883 H   0  0  0  0  0  0  0  0  0  0  0  0
    5.9302   -0.2089   -1.1856 H   0  0  0  0  0  0  0  0  0  0  0  0
    5.7150   -0.5124    1.3063 H   0  0  0  0  0  0  0  0  0  0  0  0
   -5.8664   -2.2731    3.5420 H   0  0  0  0  0  0  0  0  0  0  0  0
   -0.2166    6.5034    0.5681 H   0  0  0  0  0  0  0  0  0  0  0  0
   -4.5156   -3.5649   -0.2516 H   0  0  0  0  0  0  0  0  0  0  0  0
    8.0434   -1.7525   -0.2242 H   0  0  0  0  0  0  0  0  0  0  0  0
    8.0652   -1.1557    1.4499 H   0  0  0  0  0  0  0  0  0  0  0  0
    4.6539   -2.7951    1.1767 H   0  0  0  0  0  0  0  0  0  0  0  0
    6.1026   -3.4211    0.3494 H   0  0  0  0  0  0  0  0  0  0  0  0
    3.2749    5.8719    0.2261 H   0  0  0  0  0  0  0  0  0  0  0  0
    8.8286    0.3677   -0.0424 H   0  0  0  0  0  0  0  0  0  0  0  0
    6.0684   -3.8000    2.5822 H   0  0  0  0  0  0  0  0  0  0  0  0
  1 16  1  0  0  0  0
  1 22  1  0  0  0  0
  2 17  1  0  0  0  0
  2 54  1  0  0  0  0
  3 19  1  0  0  0  0
  3 55  1  0  0  0  0
  4 20  1  0  0  0  0
  4 56  1  0  0  0  0
  5 30  1  0  0  0  0
  5 63  1  0  0  0  0
  6 31  1  0  0  0  0
  6 65  1  0  0  0  0
  7 33  2  0  0  0  0
  8 34  2  0  0  0  0
  9 41  1  0  0  0  0
  9 70  1  0  0  0  0
 10 43  1  0  0  0  0
 10 71  1  0  0  0  0
 11 44  1  0  0  0  0
 11 72  1  0  0  0  0
 12 16  1  0  0  0  0
 12 18  1  0  0  0  0
 12 23  1  0  0  0  0
 13 24  1  0  0  0  0
 13 32  1  0  0  0  0
 13 52  1  0  0  0  0
 14 15  1  0  0  0  0
 14 33  1  0  0  0  0
 14 34  1  0  0  0  0
 15 40  1  0  0  0  0
 15 61  1  0  0  0  0
 16 17  1  0  0  0  0
 16 45  1  0  0  0  0
 17 19  1  0  0  0  0
 17 46  1  0  0  0  0
 18 21  1  0  0  0  0
 18 24  2  0  0  0  0
 19 20  1  0  0  0  0
 19 47  1  0  0  0  0
 20 22  1  0  0  0  0
 20 48  1  0  0  0  0
 21 25  1  0  0  0  0
 21 26  2  0  0  0  0
 22 30  1  0  0  0  0
 22 49  1  0  0  0  0
 23 25  2  0  0  0  0
 23 31  1  0  0  0  0
 24 27  1  0  0  0  0
 25 35  1  0  0  0  0
 26 28  1  0  0  0  0
 26 33  1  0  0  0  0
 27 28  2  0  0  0  0
 27 29  1  0  0  0  0
 28 34  1  0  0  0  0
 29 32  2  0  0  0  0
 29 38  1  0  0  0  0
 30 50  1  0  0  0  0
 30 51  1  0  0  0  0
 31 36  2  0  0  0  0
 32 39  1  0  0  0  0
 35 37  2  0  0  0  0
 35 53  1  0  0  0  0
 36 37  1  0  0  0  0
 36 57  1  0  0  0  0
 37 58  1  0  0  0  0
 38 41  2  0  0  0  0
 38 59  1  0  0  0  0
 39 42  2  0  0  0  0
 39 60  1  0  0  0  0
 40 43  1  0  0  0  0
 40 44  1  0  0  0  0
 40 62  1  0  0  0  0
 41 42  1  0  0  0  0
 42 64  1  0  0  0  0
 43 66  1  0  0  0  0
 43 67  1  0  0  0  0
 44 68  1  0  0  0  0
 44 69  1  0  0  0  0
M  END
> <PUBCHEM_COMPOUND_CID>
44340931

> <PUBCHEM_CONFORMER_RMSD>
1

> <PUBCHEM_CONFORMER_DIVERSEORDER>
3
20
15
13
17
19
9
18
12
4
7
14
16
11
1
10
2
21
8
6
5

> <PUBCHEM_MMFF94_PARTIAL_CHARGES>
58
1 -0.56
10 -0.68
11 -0.68
12 -0.04
13 -0.05
14 -0.11
15 -0.64
16 0.54
17 0.28
18 -0.05
19 0.28
2 -0.68
20 0.28
21 -0.01
22 0.28
23 -0.15
24 -0.05
26 0.09
27 -0.01
28 0.09
3 -0.68
30 0.28
31 0.08
32 -0.15
33 0.54
34 0.54
35 -0.15
36 -0.15
37 -0.15
38 -0.15
39 -0.15
4 -0.68
40 0.27
41 0.08
42 -0.15
43 0.28
44 0.28
5 -0.68
52 0.27
53 0.15
54 0.4
55 0.4
56 0.4
57 0.15
58 0.15
59 0.15
6 -0.53
60 0.15
61 0.36
63 0.4
64 0.15
65 0.45
7 -0.57
70 0.45
71 0.4
72 0.4
8 -0.57
9 -0.53

> <PUBCHEM_EFFECTIVE_ROTOR_COUNT>
7.4

> <PUBCHEM_PHARMACOPHORE_FEATURES>
28
1 1 acceptor
1 10 acceptor
1 10 donor
1 11 acceptor
1 11 donor
1 12 cation
1 13 cation
1 13 donor
1 15 donor
1 2 acceptor
1 2 donor
1 3 acceptor
1 3 donor
1 4 acceptor
1 4 donor
1 5 acceptor
1 5 donor
1 6 donor
1 7 acceptor
1 8 acceptor
1 9 donor
5 12 18 21 23 25 rings
5 13 24 27 29 32 rings
5 14 26 28 33 34 rings
6 1 16 17 19 20 22 rings
6 18 21 24 26 27 28 rings
6 23 25 31 35 36 37 rings
6 29 32 38 39 41 42 rings

> <PUBCHEM_HEAVY_ATOM_COUNT>
44

> <PUBCHEM_ATOM_DEF_STEREO_COUNT>
0

> <PUBCHEM_ATOM_UDEF_STEREO_COUNT>
5

> <PUBCHEM_BOND_DEF_STEREO_COUNT>
0

> <PUBCHEM_BOND_UDEF_STEREO_COUNT>
0

> <PUBCHEM_ISOTOPIC_ATOM_COUNT>
0

> <PUBCHEM_COMPONENT_COUNT>
1

> <PUBCHEM_CACTVS_TAUTO_COUNT>
158

> <PUBCHEM_CONFORMER_ID>
02A496C300000003

> <PUBCHEM_MMFF94_ENERGY>
175.8221

> <PUBCHEM_FEATURE_SELFOVERLAP>
142.62

> <PUBCHEM_SHAPE_FINGERPRINT>
10050765 1 18124032600968814975
102385 1 17908418400457525391
10675989 125 16966035325893093733
10930396 42 18125970868644510410
1100329 8 18339924917080018951
11136131 41 17833253591535192272
11456790 92 18337119982331627449
12107183 9 18341905137896443611
12788726 201 18263648377363640658
13008946 113 18044376256708420060
13140716 1 18197218259244455382
13540713 5 17842280556065723575
13560911 43 18410859906285068235
13782708 43 17821449071052612955
14028597 1 17823409401917174866
140371 6 18343029882367464532
14068700 686 17983855575902078870
14117953 113 18341898454711053302
14394314 77 18411134740899187754
14790565 3 18340495465237256013
14937079 2 18412263960626229077
14955137 171 18409171012825667305
15320467 1 18412265021366808013
15324884 4 17896302783933245565
15439362 3 18268704086294957645
15927050 60 17908991250373867596
16087824 20 18339926996504248725
16112460 7 18271821162724214953
16728300 4 17608071097320941514
19841028 212 17241320250108715754
21796203 349 18120686679405082971
22223350 30 18129089203078600930
22311459 1 18412826871708062966
23559900 14 18269548493796572944
24771293 8 18131635560312447515
24771750 20 18048611596624894236
283562 15 18126281948008111820
3178227 256 18338248106735967323
335352 9 18411699902264777670
469060 322 18198357164302046369
6004065 56 18341885295289785495
6086070 43 18265031657375629527
653340 110 18052815841552994666
9896288 288 17832981655760006594

> <PUBCHEM_SHAPE_MULTIPOLES>
821.01
15.07
7.26
1.26
8.57
8.19
0.75
-7.88
4.98
2.56
0.39
-1.15
-0.75
-0.03

> <PUBCHEM_SHAPE_SELFOVERLAP>
1856.088

> <PUBCHEM_SHAPE_VOLUME>
427

> <PUBCHEM_COORDINATE_TYPE>
2
5
10

$$$$
