25164675
  -OEChem-10052115143D

 34 37  0     0  0  0  0  0  0999 V2000
    0.1430    1.7371    0.1169 O   0  0  0  0  0  0  0  0  0  0  0  0
    5.6546   -1.0812    0.1915 N   0  0  0  0  0  0  0  0  0  0  0  0
   -1.1896    2.0725   -0.0896 N   0  0  0  0  0  0  0  0  0  0  0  0
    6.2155   -0.0856    0.8981 N   0  0  0  0  0  0  0  0  0  0  0  0
    1.7519    0.0529   -0.3311 C   0  0  0  0  0  0  0  0  0  0  0  0
   -3.1123    1.0759   -1.1946 C   0  0  0  0  0  0  0  0  0  0  0  0
    0.3981    0.5365   -0.4631 C   0  0  0  0  0  0  0  0  0  0  0  0
    4.0050    0.3344    0.4807 C   0  0  0  0  0  0  0  0  0  0  0  0
   -1.6971    1.0556   -0.7922 C   0  0  0  0  0  0  0  0  0  0  0  0
    4.3293   -0.8905   -0.0920 C   0  0  0  0  0  0  0  0  0  0  0  0
    2.6931    0.8231    0.3635 C   0  0  0  0  0  0  0  0  0  0  0  0
   -0.7410    0.0595   -1.0559 C   0  0  0  0  0  0  0  0  0  0  0  0
   -4.0259    0.1998   -0.3467 C   0  0  0  0  0  0  0  0  0  0  0  0
    2.1044   -1.1739   -0.8965 C   0  0  0  0  0  0  0  0  0  0  0  0
    3.4062   -1.6738   -0.7883 C   0  0  0  0  0  0  0  0  0  0  0  0
    5.2090    0.7737    1.0720 C   0  0  0  0  0  0  0  0  0  0  0  0
   -4.0812   -1.1754   -0.5741 C   0  0  0  0  0  0  0  0  0  0  0  0
   -4.8065    0.7724    0.6577 C   0  0  0  0  0  0  0  0  0  0  0  0
   -4.9170   -1.9778    0.2025 C   0  0  0  0  0  0  0  0  0  0  0  0
   -5.6422   -0.0301    1.4344 C   0  0  0  0  0  0  0  0  0  0  0  0
   -5.6973   -1.4053    1.2068 C   0  0  0  0  0  0  0  0  0  0  0  0
   -3.2015    0.7523   -2.2407 H   0  0  0  0  0  0  0  0  0  0  0  0
   -3.4976    2.1047   -1.1891 H   0  0  0  0  0  0  0  0  0  0  0  0
    2.4470    1.7803    0.8131 H   0  0  0  0  0  0  0  0  0  0  0  0
   -0.8700   -0.8650   -1.5994 H   0  0  0  0  0  0  0  0  0  0  0  0
    1.3768   -1.7756   -1.4369 H   0  0  0  0  0  0  0  0  0  0  0  0
    3.6822   -2.6264   -1.2267 H   0  0  0  0  0  0  0  0  0  0  0  0
    5.3929    1.6854    1.6227 H   0  0  0  0  0  0  0  0  0  0  0  0
    6.2352   -1.8689   -0.0679 H   0  0  0  0  0  0  0  0  0  0  0  0
   -3.4814   -1.6340   -1.3557 H   0  0  0  0  0  0  0  0  0  0  0  0
   -4.7711    1.8420    0.8466 H   0  0  0  0  0  0  0  0  0  0  0  0
   -4.9607   -3.0484    0.0248 H   0  0  0  0  0  0  0  0  0  0  0  0
   -6.2495    0.4155    2.2168 H   0  0  0  0  0  0  0  0  0  0  0  0
   -6.3481   -2.0301    1.8115 H   0  0  0  0  0  0  0  0  0  0  0  0
  1  3  1  0  0  0  0
  1  7  1  0  0  0  0
  2  4  1  0  0  0  0
  2 10  1  0  0  0  0
  2 29  1  0  0  0  0
  3  9  2  0  0  0  0
  4 16  2  0  0  0  0
  5  7  1  0  0  0  0
  5 11  2  0  0  0  0
  5 14  1  0  0  0  0
  6  9  1  0  0  0  0
  6 13  1  0  0  0  0
  6 22  1  0  0  0  0
  6 23  1  0  0  0  0
  7 12  2  0  0  0  0
  8 10  2  0  0  0  0
  8 11  1  0  0  0  0
  8 16  1  0  0  0  0
  9 12  1  0  0  0  0
 10 15  1  0  0  0  0
 11 24  1  0  0  0  0
 12 25  1  0  0  0  0
 13 17  2  0  0  0  0
 13 18  1  0  0  0  0
 14 15  2  0  0  0  0
 14 26  1  0  0  0  0
 15 27  1  0  0  0  0
 16 28  1  0  0  0  0
 17 19  1  0  0  0  0
 17 30  1  0  0  0  0
 18 20  2  0  0  0  0
 18 31  1  0  0  0  0
 19 21  2  0  0  0  0
 19 32  1  0  0  0  0
 20 21  1  0  0  0  0
 20 33  1  0  0  0  0
 21 34  1  0  0  0  0
M  END
> <PUBCHEM_COMPOUND_CID>
25164675

> <PUBCHEM_CONFORMER_RMSD>
0.6

> <PUBCHEM_CONFORMER_DIVERSEORDER>
1
42
10
35
26
20
18
40
38
36
27
30
29
34
9
15
39
28
13
17
11
33
3
41
7
32
31
37
22
16
23
8
6
21
19
5
24
25
2
4
12
14

> <PUBCHEM_MMFF94_PARTIAL_CHARGES>
31
1 -0.02
10 -0.15
11 -0.15
12 -0.15
13 -0.14
14 -0.15
15 -0.15
16 0.14
17 -0.15
18 -0.15
19 -0.15
2 0.3
20 -0.15
21 -0.15
24 0.15
25 0.15
26 0.15
27 0.15
28 0.15
29 0.27
3 -0.41
30 0.15
31 0.15
32 0.15
33 0.15
34 0.15
4 -0.71
5 0.05
6 0.32
7 0.09
9 0.11

> <PUBCHEM_EFFECTIVE_ROTOR_COUNT>
3

> <PUBCHEM_PHARMACOPHORE_FEATURES>
7
1 2 donor
1 3 acceptor
1 4 acceptor
5 1 3 7 9 12 rings
5 2 4 8 10 16 rings
6 13 17 18 19 20 21 rings
6 5 8 10 11 14 15 rings

> <PUBCHEM_HEAVY_ATOM_COUNT>
21

> <PUBCHEM_ATOM_DEF_STEREO_COUNT>
0

> <PUBCHEM_ATOM_UDEF_STEREO_COUNT>
0

> <PUBCHEM_BOND_DEF_STEREO_COUNT>
0

> <PUBCHEM_BOND_UDEF_STEREO_COUNT>
0

> <PUBCHEM_ISOTOPIC_ATOM_COUNT>
0

> <PUBCHEM_COMPONENT_COUNT>
1

> <PUBCHEM_CACTVS_TAUTO_COUNT>
3

> <PUBCHEM_CONFORMER_ID>
017FFB8300000001

> <PUBCHEM_MMFF94_ENERGY>
43.0741

> <PUBCHEM_FEATURE_SELFOVERLAP>
35.614

> <PUBCHEM_SHAPE_FINGERPRINT>
10029044 110 14835021456624537379
10670039 82 10519715474925322211
11089746 13 9583517594919722036
11370993 144 17845382059424132479
11552529 35 17345743235334595383
11796584 16 17749383754979620907
12236239 1 15574713578023166526
12555020 224 12468639404454506112
12596602 18 16917353653629554803
12670543 26 8358265851598100608
12670546 177 12540697037568626041
13288520 33 17530964687980083525
13668630 136 14996285803385727866
13740256 8 18333733545898337493
1420 363 18408323272328534182
14211702 104 17676484987249629066
14251751 18 18040716974055678327
14251757 5 14057583326546291105
14251764 18 17632858642434067423
14341114 176 17988648471240555744
146900 427 17917425475759432792
14849402 71 17773026673898192536
15183329 4 8574440824103020292
15348495 7 18201717396574840179
15716309 27 18187364337278420443
15788980 27 17095521794779980717
1601671 61 13326855534871777138
16110190 28 18342742957182646335
16994733 274 13469819573778117794
17349148 13 16370730305076024008
17780758 139 18343023294409560257
17844677 252 18187366519133025717
1813 80 17894357682979751181
18222031 100 16732982024940244708
18785283 64 18266738176441477824
18927931 339 17894631444427306279
190975 80 18336829813544381131
193927 3 17822021921248126879
200 152 14707207695168509948
20281389 69 13326855526086864875
20645477 70 12685091441537324072
21054139 6 16588021316585818762
21150785 3 15719401629222370630
21267235 1 18272371933041817462
21315763 191 16371019503247815489
21403212 168 18337119965504913017
21521239 73 12757150212074434017
21623969 137 18272370867019788798
21637258 2 17167863106136949043
22122407 14 16056606490668448443
22289505 5 8502376637807381106
23402539 116 15140957318643954389
23522609 53 17898039921224965244
23590187 135 18040716974071528407
26918003 58 18413105044171557429
270888 7 12390976492460897363
2767999 5 12535348982703850419
2838139 119 10735882746569464123
29717793 49 14490470855326848218
312425 54 18341624689707132147
314173 85 18409169905104140573
32948 21 10015865396914895580
351380 3 17530966899656165059
4015057 19 13407090188148030004
4325135 7 17968099763259787340
465052 167 18334571318604635954
5104073 3 18128531570895442138
542803 24 15841547479320498236
5924683 9 17703505610546723583
6328613 192 11887661919046581690
633830 44 12175320501822306452
7471813 234 15719396126862752814
7495541 125 18259982695569668732

> <PUBCHEM_SHAPE_MULTIPOLES>
411.36
15.62
1.76
1.18
1.31
0.17
-0.1
5.18
-6.73
-0.89
0.11
-0.66
0.01
1.12

> <PUBCHEM_SHAPE_SELFOVERLAP>
923.349

> <PUBCHEM_SHAPE_VOLUME>
219

> <PUBCHEM_COORDINATE_TYPE>
2
5
10

$$$$
