49830806
  -OEChem-10052115183D

 65 68  0     0  0  0  0  0  0999 V2000
   -4.5156    1.2749    0.8087 O   0  0  0  0  0  0  0  0  0  0  0  0
    2.3821    2.7172   -0.4016 O   0  0  0  0  0  0  0  0  0  0  0  0
   -4.4485   -0.9746    0.1202 N   0  0  0  0  0  0  0  0  0  0  0  0
    1.0629   -1.3171    0.5693 N   0  0  0  0  0  0  0  0  0  0  0  0
    0.2451    0.6684   -0.0040 N   0  0  0  0  0  0  0  0  0  0  0  0
    2.6271    0.4540    0.2074 N   0  0  0  0  0  0  0  0  0  0  0  0
    8.4176   -0.8911   -0.5610 N   0  0  0  0  0  0  0  0  0  0  0  0
   -6.5337    0.3486    0.0597 C   0  0  0  0  0  0  0  0  0  0  0  0
   -6.7072    0.7355   -1.4100 C   0  0  0  0  0  0  0  0  0  0  0  0
   -7.2100    1.3575    0.9889 C   0  0  0  0  0  0  0  0  0  0  0  0
   -8.1779    0.9343   -1.7677 C   0  0  0  0  0  0  0  0  0  0  0  0
   -8.6806    1.5522    0.6285 C   0  0  0  0  0  0  0  0  0  0  0  0
   -8.8532    1.9386   -0.8378 C   0  0  0  0  0  0  0  0  0  0  0  0
   -5.0728    0.2619    0.3783 C   0  0  0  0  0  0  0  0  0  0  0  0
   -3.0155   -1.1397    0.2581 C   0  0  0  0  0  0  0  0  0  0  0  0
   -5.1978   -2.1312   -0.3944 C   0  0  0  0  0  0  0  0  0  0  0  0
   -0.2978   -1.4810    0.5240 C   0  0  0  0  0  0  0  0  0  0  0  0
   -2.1719   -0.0460    0.0263 C   0  0  0  0  0  0  0  0  0  0  0  0
   -0.7854   -0.2277    0.1639 C   0  0  0  0  0  0  0  0  0  0  0  0
   -2.4962   -2.3853    0.6183 C   0  0  0  0  0  0  0  0  0  0  0  0
    2.0268   -2.3436    0.8988 C   0  0  0  0  0  0  0  0  0  0  0  0
   -1.1189   -2.5840    0.7599 C   0  0  0  0  0  0  0  0  0  0  0  0
    1.3378   -0.0173    0.2467 C   0  0  0  0  0  0  0  0  0  0  0  0
    2.7246   -2.8866   -0.3502 C   0  0  0  0  0  0  0  0  0  0  0  0
    3.7092   -4.0004    0.0056 C   0  0  0  0  0  0  0  0  0  0  0  0
    4.3766   -4.5717   -1.2353 C   0  0  0  0  0  0  0  0  0  0  0  0
    3.0837    1.7564   -0.1040 C   0  0  0  0  0  0  0  0  0  0  0  0
    4.5534    1.9677   -0.0342 C   0  0  0  0  0  0  0  0  0  0  0  0
    5.4232    0.8967   -0.2406 C   0  0  0  0  0  0  0  0  0  0  0  0
    5.0630    3.2374    0.2383 C   0  0  0  0  0  0  0  0  0  0  0  0
    6.8023    1.0953   -0.1744 C   0  0  0  0  0  0  0  0  0  0  0  0
    6.4422    3.4360    0.3041 C   0  0  0  0  0  0  0  0  0  0  0  0
    7.3118    2.3650    0.0980 C   0  0  0  0  0  0  0  0  0  0  0  0
    7.6936   -0.0007   -0.3876 C   0  0  0  0  0  0  0  0  0  0  0  0
   -7.0295   -0.6074    0.2578 H   0  0  0  0  0  0  0  0  0  0  0  0
   -6.1648    1.6698   -1.6104 H   0  0  0  0  0  0  0  0  0  0  0  0
   -6.2684   -0.0079   -2.0833 H   0  0  0  0  0  0  0  0  0  0  0  0
   -7.1284    1.0254    2.0313 H   0  0  0  0  0  0  0  0  0  0  0  0
   -6.7125    2.3348    0.9344 H   0  0  0  0  0  0  0  0  0  0  0  0
   -8.2616    1.2797   -2.8044 H   0  0  0  0  0  0  0  0  0  0  0  0
   -8.7004   -0.0283   -1.7080 H   0  0  0  0  0  0  0  0  0  0  0  0
   -9.2316    0.6251    0.8291 H   0  0  0  0  0  0  0  0  0  0  0  0
   -9.1177    2.3274    1.2679 H   0  0  0  0  0  0  0  0  0  0  0  0
   -8.4256    2.9349   -1.0050 H   0  0  0  0  0  0  0  0  0  0  0  0
   -9.9202    2.0044   -1.0787 H   0  0  0  0  0  0  0  0  0  0  0  0
   -5.5924   -2.6904    0.4596 H   0  0  0  0  0  0  0  0  0  0  0  0
   -4.5510   -2.7786   -0.9958 H   0  0  0  0  0  0  0  0  0  0  0  0
   -6.0265   -1.8517   -1.0429 H   0  0  0  0  0  0  0  0  0  0  0  0
   -2.5286    0.9202   -0.3085 H   0  0  0  0  0  0  0  0  0  0  0  0
   -3.1476   -3.2320    0.8221 H   0  0  0  0  0  0  0  0  0  0  0  0
    1.5114   -3.1503    1.4303 H   0  0  0  0  0  0  0  0  0  0  0  0
    2.7473   -1.9197    1.6074 H   0  0  0  0  0  0  0  0  0  0  0  0
   -0.7239   -3.5532    1.0416 H   0  0  0  0  0  0  0  0  0  0  0  0
    1.9721   -3.2731   -1.0497 H   0  0  0  0  0  0  0  0  0  0  0  0
    3.2552   -2.0853   -0.8774 H   0  0  0  0  0  0  0  0  0  0  0  0
    3.1861   -4.8058    0.5340 H   0  0  0  0  0  0  0  0  0  0  0  0
    4.4786   -3.6127    0.6834 H   0  0  0  0  0  0  0  0  0  0  0  0
    3.3291   -0.2242    0.4817 H   0  0  0  0  0  0  0  0  0  0  0  0
    3.6351   -4.9965   -1.9194 H   0  0  0  0  0  0  0  0  0  0  0  0
    4.9355   -3.7977   -1.7711 H   0  0  0  0  0  0  0  0  0  0  0  0
    5.0769   -5.3656   -0.9575 H   0  0  0  0  0  0  0  0  0  0  0  0
    5.0570   -0.0955   -0.4912 H   0  0  0  0  0  0  0  0  0  0  0  0
    4.4032    4.0842    0.4075 H   0  0  0  0  0  0  0  0  0  0  0  0
    6.8390    4.4243    0.5173 H   0  0  0  0  0  0  0  0  0  0  0  0
    8.3843    2.5358    0.1527 H   0  0  0  0  0  0  0  0  0  0  0  0
  1 14  2  0  0  0  0
  2 27  2  0  0  0  0
  3 14  1  0  0  0  0
  3 15  1  0  0  0  0
  3 16  1  0  0  0  0
  4 17  1  0  0  0  0
  4 21  1  0  0  0  0
  4 23  1  0  0  0  0
  5 19  1  0  0  0  0
  5 23  2  0  0  0  0
  6 23  1  0  0  0  0
  6 27  1  0  0  0  0
  6 58  1  0  0  0  0
  7 34  3  0  0  0  0
  8  9  1  0  0  0  0
  8 10  1  0  0  0  0
  8 14  1  0  0  0  0
  8 35  1  0  0  0  0
  9 11  1  0  0  0  0
  9 36  1  0  0  0  0
  9 37  1  0  0  0  0
 10 12  1  0  0  0  0
 10 38  1  0  0  0  0
 10 39  1  0  0  0  0
 11 13  1  0  0  0  0
 11 40  1  0  0  0  0
 11 41  1  0  0  0  0
 12 13  1  0  0  0  0
 12 42  1  0  0  0  0
 12 43  1  0  0  0  0
 13 44  1  0  0  0  0
 13 45  1  0  0  0  0
 15 18  2  0  0  0  0
 15 20  1  0  0  0  0
 16 46  1  0  0  0  0
 16 47  1  0  0  0  0
 16 48  1  0  0  0  0
 17 19  2  0  0  0  0
 17 22  1  0  0  0  0
 18 19  1  0  0  0  0
 18 49  1  0  0  0  0
 20 22  2  0  0  0  0
 20 50  1  0  0  0  0
 21 24  1  0  0  0  0
 21 51  1  0  0  0  0
 21 52  1  0  0  0  0
 22 53  1  0  0  0  0
 24 25  1  0  0  0  0
 24 54  1  0  0  0  0
 24 55  1  0  0  0  0
 25 26  1  0  0  0  0
 25 56  1  0  0  0  0
 25 57  1  0  0  0  0
 26 59  1  0  0  0  0
 26 60  1  0  0  0  0
 26 61  1  0  0  0  0
 27 28  1  0  0  0  0
 28 29  1  0  0  0  0
 28 30  2  0  0  0  0
 29 31  2  0  0  0  0
 29 62  1  0  0  0  0
 30 32  1  0  0  0  0
 30 63  1  0  0  0  0
 31 33  1  0  0  0  0
 31 34  1  0  0  0  0
 32 33  2  0  0  0  0
 32 64  1  0  0  0  0
 33 65  1  0  0  0  0
M  END
> <PUBCHEM_COMPOUND_CID>
49830806

> <PUBCHEM_CONFORMER_RMSD>
1.2

> <PUBCHEM_CONFORMER_DIVERSEORDER>
1
57
69
54
61
98
7
81
80
99
88
103
95
15
72
91
66
6
51
92
52
50
100
60
36
39
101
78
49
40
59
55
16
70
42
82
93
68
29
62
24
34
3
47
58
64
37
83
56
19
27
65
20
73
48
35
75
53
22
67
44
84
43
102
33
38
25
94
13
76
97
87
11
89
26
14
32
85
77
8
21
74
12
2
41
96
46
90
79
23
30
31
86
63
10
71
5
45
17
4
28
9
18

> <PUBCHEM_MMFF94_PARTIAL_CHARGES>
34
1 -0.57
14 0.57
15 0.12
16 0.3
17 -0.15
18 -0.15
19 0.23
2 -0.57
20 -0.15
21 0.26
22 -0.15
23 0.25
27 0.54
28 0.09
29 -0.15
3 -0.48
30 -0.15
31 0.07
32 -0.15
33 -0.15
34 0.48
4 0.05
49 0.15
5 -0.57
50 0.15
53 0.15
58 0.37
6 -0.49
62 0.15
63 0.15
64 0.15
65 0.15
7 -0.56
8 0.06

> <PUBCHEM_EFFECTIVE_ROTOR_COUNT>
10.2

> <PUBCHEM_PHARMACOPHORE_FEATURES>
9
1 1 acceptor
1 2 acceptor
1 26 hydrophobe
1 6 donor
1 7 acceptor
5 4 5 17 19 23 rings
6 15 17 18 19 20 22 rings
6 28 29 30 31 32 33 rings
6 8 9 10 11 12 13 rings

> <PUBCHEM_HEAVY_ATOM_COUNT>
34

> <PUBCHEM_ATOM_DEF_STEREO_COUNT>
0

> <PUBCHEM_ATOM_UDEF_STEREO_COUNT>
0

> <PUBCHEM_BOND_DEF_STEREO_COUNT>
0

> <PUBCHEM_BOND_UDEF_STEREO_COUNT>
0

> <PUBCHEM_ISOTOPIC_ATOM_COUNT>
0

> <PUBCHEM_COMPONENT_COUNT>
1

> <PUBCHEM_CACTVS_TAUTO_COUNT>
3

> <PUBCHEM_CONFORMER_ID>
02F85B9600000001

> <PUBCHEM_MMFF94_ENERGY>
84.7746

> <PUBCHEM_FEATURE_SELFOVERLAP>
45.779

> <PUBCHEM_SHAPE_FINGERPRINT>
10 15 17603583024595755985
10050765 1 18267023843021121065
10411042 1 17906454325779752186
10669705 176 18410853304824972575
10816530 90 18335698317690972706
10835480 77 18410011039788792491
11135926 11 18412262839960979013
11297010 23 18342172267566185534
12098696 120 18334295366444359921
12539765 74 18268720562020932412
13540713 4 18261127291422224259
14117953 113 18259703406494286293
14394314 77 18412550886750369313
15064981 113 17059486319857472973
15183329 4 18411418423198964184
15276724 80 18339357462291869717
15289351 153 18411696565312838224
15347591 1 18410009936599980227
15350500 55 17458894965313611133
15439362 3 18410573976731016739
1577012 14 18260539056932111659
18335252 114 18342453759797137200
20554085 129 18058999696958627336
21033648 144 18260823792511887815
21033648 29 17095241381388328655
21585482 111 18188487953287198181
21987483 16 11600008730928576444
255183 451 17842283571576351702
335352 9 18409451397392563132
3411729 13 18334856130338601106
3633792 109 18341615875990849387
4073 2 18261396680497860523
4169191 19 18410291398669975329
4516262 110 18411412925567160637
504579 68 17917424333255628445
54039377 194 9871751308652017209
59755656 215 18410298004150094732
6086070 43 17775000249613147819
99344 41 18341048623208314426

> <PUBCHEM_SHAPE_MULTIPOLES>
663.06
27.3
4.55
1
22.42
3.25
-0.23
-20.78
-5.81
-8.68
-0.39
1.43
0.12
1.46

> <PUBCHEM_SHAPE_SELFOVERLAP>
1417.264

> <PUBCHEM_SHAPE_VOLUME>
363.6

> <PUBCHEM_COORDINATE_TYPE>
2
5
10

$$$$
