49831046
  -OEChem-10052115183D

 28 30  0     0  0  0  0  0  0999 V2000
    2.8384   -0.5060    0.0009 O   0  0  0  0  0  0  0  0  0  0  0  0
   -5.0612   -2.2840    0.0009 O   0  0  0  0  0  0  0  0  0  0  0  0
    6.3279   -0.7317   -0.0032 O   0  5  0  0  0  0  0  0  0  0  0  0
    4.7659   -2.2741   -0.0007 O   0  0  0  0  0  0  0  0  0  0  0  0
   -1.4829   -0.1683    0.0013 N   0  0  0  0  0  0  0  0  0  0  0  0
   -0.2191    1.6774    0.0006 N   0  0  0  0  0  0  0  0  0  0  0  0
    5.1029   -1.0531   -0.0014 N   0  3  0  0  0  0  0  0  0  0  0  0
   -6.2103   -0.2812   -0.0022 N   0  0  0  0  0  0  0  0  0  0  0  0
   -1.4561    1.2239   -0.0002 C   0  0  0  0  0  0  0  0  0  0  0  0
    0.5756    0.5592    0.0021 C   0  0  0  0  0  0  0  0  0  0  0  0
   -0.1781   -0.5909    0.0025 C   0  0  0  0  0  0  0  0  0  0  0  0
   -2.6570   -0.9186    0.0012 C   0  0  0  0  0  0  0  0  0  0  0  0
    2.0439    0.5963    0.0015 C   0  0  0  0  0  0  0  0  0  0  0  0
   -3.8352   -0.2720   -0.0003 C   0  0  0  0  0  0  0  0  0  0  0  0
   -2.7129    1.8972   -0.0019 C   0  0  0  0  0  0  0  0  0  0  0  0
   -3.8550    1.1825   -0.0020 C   0  0  0  0  0  0  0  0  0  0  0  0
    2.8062    1.7415    0.0011 C   0  0  0  0  0  0  0  0  0  0  0  0
    4.1558    1.3153    0.0000 C   0  0  0  0  0  0  0  0  0  0  0  0
    4.1221   -0.0598    0.0001 C   0  0  0  0  0  0  0  0  0  0  0  0
   -5.0709   -1.0534   -0.0004 C   0  0  0  0  0  0  0  0  0  0  0  0
    0.0855   -1.6404    0.0033 H   0  0  0  0  0  0  0  0  0  0  0  0
   -2.5481   -1.9969    0.0024 H   0  0  0  0  0  0  0  0  0  0  0  0
   -2.7334    2.9815   -0.0032 H   0  0  0  0  0  0  0  0  0  0  0  0
   -4.7696    1.7579   -0.0034 H   0  0  0  0  0  0  0  0  0  0  0  0
    2.4471    2.7614    0.0014 H   0  0  0  0  0  0  0  0  0  0  0  0
    5.0388    1.9388   -0.0009 H   0  0  0  0  0  0  0  0  0  0  0  0
   -6.2707    0.7273   -0.0033 H   0  0  0  0  0  0  0  0  0  0  0  0
   -7.1138   -0.7450   -0.0024 H   0  0  0  0  0  0  0  0  0  0  0  0
  1 13  1  0  0  0  0
  1 19  1  0  0  0  0
  2 20  2  0  0  0  0
  3  7  1  0  0  0  0
  4  7  2  0  0  0  0
  5  9  1  0  0  0  0
  5 11  1  0  0  0  0
  5 12  1  0  0  0  0
  6  9  2  0  0  0  0
  6 10  1  0  0  0  0
  7 19  1  0  0  0  0
  8 20  1  0  0  0  0
  8 27  1  0  0  0  0
  8 28  1  0  0  0  0
  9 15  1  0  0  0  0
 10 11  2  0  0  0  0
 10 13  1  0  0  0  0
 11 21  1  0  0  0  0
 12 14  2  0  0  0  0
 12 22  1  0  0  0  0
 13 17  2  0  0  0  0
 14 16  1  0  0  0  0
 14 20  1  0  0  0  0
 15 16  2  0  0  0  0
 15 23  1  0  0  0  0
 16 24  1  0  0  0  0
 17 18  1  0  0  0  0
 17 25  1  0  0  0  0
 18 19  2  0  0  0  0
 18 26  1  0  0  0  0
M  CHG  2   3  -1   7   1
M  END
> <PUBCHEM_COMPOUND_CID>
49831046

> <PUBCHEM_CONFORMER_RMSD>
0.6

> <PUBCHEM_CONFORMER_DIVERSEORDER>
1
7
8
2
3
5
6
4

> <PUBCHEM_MMFF94_PARTIAL_CHARGES>
28
1 -0.28
10 0.23
11 -0.3
12 -0.18
13 0.14
14 0.01
15 -0.11
16 -0.15
17 -0.15
18 -0.15
19 0.22
2 -0.57
20 0.62
21 0.15
22 0.15
23 0.15
24 0.15
25 0.15
26 0.15
27 0.37
28 0.37
3 -0.52
4 -0.52
5 0.33
6 -0.57
7 0.96
8 -0.8
9 0.14

> <PUBCHEM_EFFECTIVE_ROTOR_COUNT>
3

> <PUBCHEM_PHARMACOPHORE_FEATURES>
10
1 1 acceptor
1 2 acceptor
1 3 acceptor
1 3 anion
1 4 acceptor
1 8 donor
3 5 6 9 cation
5 1 13 17 18 19 rings
5 5 6 9 10 11 rings
6 5 9 12 14 15 16 rings

> <PUBCHEM_HEAVY_ATOM_COUNT>
20

> <PUBCHEM_ATOM_DEF_STEREO_COUNT>
0

> <PUBCHEM_ATOM_UDEF_STEREO_COUNT>
0

> <PUBCHEM_BOND_DEF_STEREO_COUNT>
0

> <PUBCHEM_BOND_UDEF_STEREO_COUNT>
0

> <PUBCHEM_ISOTOPIC_ATOM_COUNT>
0

> <PUBCHEM_COMPONENT_COUNT>
1

> <PUBCHEM_CACTVS_TAUTO_COUNT>
2

> <PUBCHEM_CONFORMER_ID>
02F85C8600000001

> <PUBCHEM_MMFF94_ENERGY>
40.803

> <PUBCHEM_FEATURE_SELFOVERLAP>
50.954

> <PUBCHEM_SHAPE_FINGERPRINT>
10366900 7 16732984210899685384
11315181 36 18412547608528973817
11524674 6 16630528449116936567
11578080 2 16735501972553084223
117890 112 8862947173267605694
12107183 9 17762056540843046304
12236239 1 18187085065636023245
12403259 226 18410849962592018388
12916754 54 18409731763608698473
13073987 5 18343302565467109568
13167823 11 18410853256952519662
13288520 33 18410856560172702021
13533116 47 18412825806830356672
13551218 46 18343022177127713143
13862211 1 18342737464167433575
14350574 20 18334013895677921732
15196674 1 18410856563940414885
17834072 33 18408044022282130468
17844677 252 18411425007204707960
17857418 61 18410009931497332618
1813 80 17458063746901213348
18222031 100 17603583045363827724
200 152 18273213088499692656
20645477 70 18410293601777104166
21150785 3 16153715344505823438
21236236 1 18341613686180351705
21267235 1 18410018736079750779
21682296 61 18129952160987787222
2297311 6 18272660021577385796
23035841 295 18407760344235064883
23402539 116 18341045298687044447
23522609 53 18122660276944833080
23559900 14 18336541728470771945
2871803 45 18114176445229129579
3004659 81 18259985968598102408
335352 9 18410573986127527541
4073 2 18113904913218026906
4214541 1 18410856533991701345
465052 167 18272093811865073886
5104073 3 18272369758796894888
542803 24 12324236165906729245
559249 180 18336541608179779115
57483677 66 18410572894245783603
59755656 215 18261671489558499479
7495541 125 17774719869589457097
77779 3 18410575084900826024
9709674 26 18335144227727386746

> <PUBCHEM_SHAPE_MULTIPOLES>
368.19
13.88
1.99
0.58
2.97
0.2
0
6.61
0.01
0.03
0
-0.03
-0.03
0

> <PUBCHEM_SHAPE_SELFOVERLAP>
820.78

> <PUBCHEM_SHAPE_VOLUME>
195.5

> <PUBCHEM_COORDINATE_TYPE>
2
5
10

$$$$
