3449643
  -OEChem-10062121543D

 44 47  0     1  0  0  0  0  0999 V2000
   -1.7896    0.4412   -0.4174 S   0  0  0  0  0  0  0  0  0  0  0  0
    4.3087    0.8613   -0.2226 O   0  0  0  0  0  0  0  0  0  0  0  0
    1.0746    2.5715   -0.1519 O   0  0  0  0  0  0  0  0  0  0  0  0
   -1.8124   -3.2330    0.6695 O   0  0  0  0  0  0  0  0  0  0  0  0
    0.8482    2.0766   -2.4019 O   0  0  0  0  0  0  0  0  0  0  0  0
   -4.5352    1.1343    0.4848 O   0  0  0  0  0  0  0  0  0  0  0  0
   -0.2441   -1.6131   -0.0502 N   0  0  0  0  0  0  0  0  0  0  0  0
    0.8623   -3.7471    0.1942 N   0  0  0  0  0  0  0  0  0  0  0  0
    4.2712   -3.2541   -0.5842 N   0  0  0  0  0  0  0  0  0  0  0  0
    2.2700   -0.3239   -0.6835 C   0  0  2  0  0  0  0  0  0  0  0  0
    0.9257    0.3657   -0.7635 C   0  0  0  0  0  0  0  0  0  0  0  0
   -0.2047   -0.2780   -0.4298 C   0  0  0  0  0  0  0  0  0  0  0  0
    2.1166   -1.8172   -0.4060 C   0  0  0  0  0  0  0  0  0  0  0  0
    0.9261   -2.3947   -0.0847 C   0  0  0  0  0  0  0  0  0  0  0  0
    3.1844    0.3337    0.2998 C   0  0  0  0  0  0  0  0  0  0  0  0
   -1.5084   -2.1074    0.2983 C   0  0  0  0  0  0  0  0  0  0  0  0
   -2.5006   -1.0163    0.1458 C   0  0  0  0  0  0  0  0  0  0  0  0
    0.9422    1.7657   -1.2314 C   0  0  0  0  0  0  0  0  0  0  0  0
    3.1076    0.5098    1.6441 C   0  0  0  0  0  0  0  0  0  0  0  0
    3.3082   -2.6120   -0.5044 C   0  0  0  0  0  0  0  0  0  0  0  0
   -3.7975   -1.1768    0.4179 C   0  0  0  0  0  0  0  0  0  0  0  0
    4.2863    1.2088    1.9979 C   0  0  0  0  0  0  0  0  0  0  0  0
    4.9834    1.3988    0.8276 C   0  0  0  0  0  0  0  0  0  0  0  0
   -4.8409   -0.1431    0.2912 C   0  0  0  0  0  0  0  0  0  0  0  0
    1.1065    3.9721   -0.4451 C   0  0  0  0  0  0  0  0  0  0  0  0
   -6.1245   -0.3740   -0.0155 C   0  0  0  0  0  0  0  0  0  0  0  0
    1.2570    4.7434    0.8488 C   0  0  0  0  0  0  0  0  0  0  0  0
   -6.7145    0.9124   -0.0189 C   0  0  0  0  0  0  0  0  0  0  0  0
   -5.7066    1.7956    0.2909 C   0  0  0  0  0  0  0  0  0  0  0  0
    2.7179   -0.2406   -1.6861 H   0  0  0  0  0  0  0  0  0  0  0  0
    2.3142    0.1852    2.3019 H   0  0  0  0  0  0  0  0  0  0  0  0
    1.6913   -4.3266    0.1751 H   0  0  0  0  0  0  0  0  0  0  0  0
   -0.0303   -4.1657    0.4197 H   0  0  0  0  0  0  0  0  0  0  0  0
   -4.1573   -2.1559    0.7282 H   0  0  0  0  0  0  0  0  0  0  0  0
    4.5894    1.5340    2.9826 H   0  0  0  0  0  0  0  0  0  0  0  0
    5.9237    1.8721    0.5859 H   0  0  0  0  0  0  0  0  0  0  0  0
    1.9543    4.1878   -1.1050 H   0  0  0  0  0  0  0  0  0  0  0  0
    0.1745    4.2625   -0.9430 H   0  0  0  0  0  0  0  0  0  0  0  0
   -6.6096   -1.3186   -0.2167 H   0  0  0  0  0  0  0  0  0  0  0  0
    1.2858    5.8203    0.6615 H   0  0  0  0  0  0  0  0  0  0  0  0
    0.4256    4.5240    1.5269 H   0  0  0  0  0  0  0  0  0  0  0  0
    2.1757    4.4494    1.3672 H   0  0  0  0  0  0  0  0  0  0  0  0
   -7.7453    1.1645   -0.2223 H   0  0  0  0  0  0  0  0  0  0  0  0
   -5.6620    2.8688    0.4063 H   0  0  0  0  0  0  0  0  0  0  0  0
  1 12  1  0  0  0  0
  1 17  1  0  0  0  0
  2 15  1  0  0  0  0
  2 23  1  0  0  0  0
  3 18  1  0  0  0  0
  3 25  1  0  0  0  0
  4 16  2  0  0  0  0
  5 18  2  0  0  0  0
  6 24  1  0  0  0  0
  6 29  1  0  0  0  0
  7 12  1  0  0  0  0
  7 14  1  0  0  0  0
  7 16  1  0  0  0  0
  8 14  1  0  0  0  0
  8 32  1  0  0  0  0
  8 33  1  0  0  0  0
  9 20  3  0  0  0  0
 10 11  1  0  0  0  0
 10 13  1  0  0  0  0
 10 15  1  0  0  0  0
 10 30  1  0  0  0  0
 11 12  2  0  0  0  0
 11 18  1  0  0  0  0
 13 14  2  0  0  0  0
 13 20  1  0  0  0  0
 15 19  2  0  0  0  0
 16 17  1  0  0  0  0
 17 21  2  3  0  0  0
 19 22  1  0  0  0  0
 19 31  1  0  0  0  0
 21 24  1  0  0  0  0
 21 34  1  0  0  0  0
 22 23  2  0  0  0  0
 22 35  1  0  0  0  0
 23 36  1  0  0  0  0
 24 26  2  0  0  0  0
 25 27  1  0  0  0  0
 25 37  1  0  0  0  0
 25 38  1  0  0  0  0
 26 28  1  0  0  0  0
 26 39  1  0  0  0  0
 27 40  1  0  0  0  0
 27 41  1  0  0  0  0
 27 42  1  0  0  0  0
 28 29  2  0  0  0  0
 28 43  1  0  0  0  0
 29 44  1  0  0  0  0
M  END
> <PUBCHEM_COMPOUND_CID>
3449643

> <PUBCHEM_CONFORMER_RMSD>
0.8

> <PUBCHEM_CONFORMER_DIVERSEORDER>
1
17
25
7
24
15
12
23
9
22
16
5
19
8
21
6
10
4
18
3
14
2
20
13
11

> <PUBCHEM_MMFF94_PARTIAL_CHARGES>
37
1 -0.2
10 0.46
11 -0.12
12 0.21
13 -0.07
14 0.21
15 -0.04
16 0.62
17 0.12
18 0.71
19 -0.15
2 -0.28
20 0.49
21 -0.11
22 -0.15
23 -0.01
24 0.09
25 0.28
26 -0.15
28 -0.15
29 -0.01
3 -0.43
31 0.15
32 0.4
33 0.4
34 0.15
35 0.15
36 0.15
39 0.15
4 -0.57
43 0.15
44 0.15
5 -0.57
6 -0.28
7 -0.28
8 -0.9
9 -0.56

> <PUBCHEM_EFFECTIVE_ROTOR_COUNT>
5.2

> <PUBCHEM_PHARMACOPHORE_FEATURES>
11
1 2 acceptor
1 4 acceptor
1 5 acceptor
1 6 acceptor
1 8 cation
1 8 donor
1 9 acceptor
5 1 7 12 16 17 rings
5 2 15 19 22 23 rings
5 6 24 26 28 29 rings
6 7 10 11 12 13 14 rings

> <PUBCHEM_HEAVY_ATOM_COUNT>
29

> <PUBCHEM_ATOM_DEF_STEREO_COUNT>
0

> <PUBCHEM_ATOM_UDEF_STEREO_COUNT>
1

> <PUBCHEM_BOND_DEF_STEREO_COUNT>
0

> <PUBCHEM_BOND_UDEF_STEREO_COUNT>
1

> <PUBCHEM_ISOTOPIC_ATOM_COUNT>
0

> <PUBCHEM_COMPONENT_COUNT>
1

> <PUBCHEM_CACTVS_TAUTO_COUNT>
2

> <PUBCHEM_CONFORMER_ID>
0034A32B00000001

> <PUBCHEM_MMFF94_ENERGY>
60.0743

> <PUBCHEM_FEATURE_SELFOVERLAP>
55.891

> <PUBCHEM_SHAPE_FINGERPRINT>
10006869 2 18268136570257433336
10165383 225 18342737451583211992
10439779 11 18412542115719574065
10906281 52 18041570251193066644
11961588 58 13182443534871025666
12166972 35 18272374144617587849
12403259 327 16443352004640442699
12403260 363 18122615326212011655
12633257 1 18114452474240095241
13140716 1 18118400889394237621
13965767 371 18043238248718518509
14020679 6 17677328453942604953
14022347 108 17676778578165329642
14170010 4 18408606946766252893
14178342 30 18265049322080492362
14466204 15 18408880737635631665
14790565 3 17975986676199019964
14955137 171 18336831982740359100
15081414 286 18411983542036990749
15238133 3 18260833734496131540
15420108 30 18270382984467901430
1601671 61 18335422400127415356
17980427 23 18198045074829870556
18681886 176 18341328899615284771
20642791 178 17825117158076003324
20739085 24 18335143046680062582
21033648 29 17845077653527332464
21421861 104 17749657507605439370
21452121 103 18341608205253547034
21475661 188 17487882609388637552
22149856 69 18267608900495204571
22182313 1 18042391448586764367
23559900 14 18410864247763690023
3411729 13 18413384346100655306
350125 39 18339361856190937158
474 4 18411702118958330467
495365 180 17917706894654044538
508706 21 17822286822331359725
5104073 3 18410017594383777155
513532 50 18059586771216011414
56638632 10 18199167646333101197
59755656 215 18411706457112929742
6371009 1 18336537309804064077
6443956 14 18409454656586893108
8509985 295 18260828206952407613
9971528 1 18409451358315675919
9981440 41 17834955652487596305

> <PUBCHEM_SHAPE_MULTIPOLES>
556.37
11.71
4.66
1.23
17.97
1.77
0.06
2.44
-3
-3.78
-0.06
-1.25
0.68
1.03

> <PUBCHEM_SHAPE_SELFOVERLAP>
1219.228

> <PUBCHEM_SHAPE_VOLUME>
303.9

> <PUBCHEM_COORDINATE_TYPE>
2
5
10

$$$$
