49830599
  -OEChem-10052115183D

 49 53  0     1  0  0  0  0  0999 V2000
   -2.8096   -1.1451    1.5493 S   0  0  0  0  0  0  0  0  0  0  0  0
    2.6577   -1.3767    1.0198 O   0  0  0  0  0  0  0  0  0  0  0  0
    1.6475    2.6309    1.3720 N   0  0  0  0  0  0  0  0  0  0  0  0
    6.2555   -0.8971    0.6117 N   0  0  0  0  0  0  0  0  0  0  0  0
    0.5980   -3.3097   -1.3049 N   0  0  0  0  0  0  0  0  0  0  0  0
   -6.3090    1.0126   -0.2284 N   0  0  0  0  0  0  0  0  0  0  0  0
    4.6743    0.9526    0.2081 C   0  0  0  0  0  0  0  0  0  0  0  0
    4.8892   -0.4365    0.8779 C   0  0  1  0  0  0  0  0  0  0  0  0
    3.3491    1.5690    0.4213 C   0  0  0  0  0  0  0  0  0  0  0  0
    2.2790    1.6225   -0.5152 C   0  0  0  0  0  0  0  0  0  0  0  0
    3.9128   -1.5015    0.3643 C   0  0  0  0  0  0  0  0  0  0  0  0
    1.2238    2.2937    0.1062 C   0  0  0  0  0  0  0  0  0  0  0  0
    2.9305    2.1971    1.5717 C   0  0  0  0  0  0  0  0  0  0  0  0
    2.1064    1.1629   -1.8359 C   0  0  0  0  0  0  0  0  0  0  0  0
   -0.0004    2.5293   -0.5297 C   0  0  0  0  0  0  0  0  0  0  0  0
    0.8873    1.3913   -2.4845 C   0  0  0  0  0  0  0  0  0  0  0  0
   -0.1485    2.0642   -1.8395 C   0  0  0  0  0  0  0  0  0  0  0  0
    1.5546   -1.8062    0.3290 C   0  0  0  0  0  0  0  0  0  0  0  0
   -0.7921   -1.6799   -0.1836 C   0  0  0  0  0  0  0  0  0  0  0  0
    0.3091   -1.2217    0.5311 C   0  0  0  0  0  0  0  0  0  0  0  0
   -2.0945   -1.0951    0.0028 C   0  0  0  0  0  0  0  0  0  0  0  0
   -4.1387   -0.0096   -0.3554 C   0  0  0  0  0  0  0  0  0  0  0  0
   -2.9001   -0.4670   -0.9173 C   0  0  0  0  0  0  0  0  0  0  0  0
   -4.2212   -0.3192    1.0052 C   0  0  0  0  0  0  0  0  0  0  0  0
    1.6452   -2.8375   -0.5920 C   0  0  0  0  0  0  0  0  0  0  0  0
   -0.5964   -2.7171   -1.0815 C   0  0  0  0  0  0  0  0  0  0  0  0
   -5.3442    0.0319    1.7638 C   0  0  0  0  0  0  0  0  0  0  0  0
   -5.2175    0.6666   -0.9469 C   0  0  0  0  0  0  0  0  0  0  0  0
   -6.3479    0.6955    1.0804 C   0  0  0  0  0  0  0  0  0  0  0  0
    5.4383    1.6451    0.5896 H   0  0  0  0  0  0  0  0  0  0  0  0
    4.8753    0.8673   -0.8683 H   0  0  0  0  0  0  0  0  0  0  0  0
    4.7624   -0.3240    1.9622 H   0  0  0  0  0  0  0  0  0  0  0  0
    3.8269   -1.4090   -0.7269 H   0  0  0  0  0  0  0  0  0  0  0  0
    4.2955   -2.5038    0.5966 H   0  0  0  0  0  0  0  0  0  0  0  0
    3.4286    2.3740    2.5148 H   0  0  0  0  0  0  0  0  0  0  0  0
    1.0907    3.1261    2.0547 H   0  0  0  0  0  0  0  0  0  0  0  0
    2.9012    0.6342   -2.3540 H   0  0  0  0  0  0  0  0  0  0  0  0
    6.9221   -0.2176    0.9760 H   0  0  0  0  0  0  0  0  0  0  0  0
    6.4296   -1.7660    1.1153 H   0  0  0  0  0  0  0  0  0  0  0  0
   -0.8083    3.0509   -0.0277 H   0  0  0  0  0  0  0  0  0  0  0  0
    0.7475    1.0369   -3.5022 H   0  0  0  0  0  0  0  0  0  0  0  0
   -1.0877    2.2291   -2.3613 H   0  0  0  0  0  0  0  0  0  0  0  0
    0.2140   -0.4120    1.2504 H   0  0  0  0  0  0  0  0  0  0  0  0
   -2.6251   -0.3324   -1.9570 H   0  0  0  0  0  0  0  0  0  0  0  0
    2.5715   -3.3653   -0.7923 H   0  0  0  0  0  0  0  0  0  0  0  0
   -1.4139   -3.1237   -1.6701 H   0  0  0  0  0  0  0  0  0  0  0  0
   -5.4269   -0.1990    2.8192 H   0  0  0  0  0  0  0  0  0  0  0  0
   -5.2310    0.9428   -1.9952 H   0  0  0  0  0  0  0  0  0  0  0  0
   -7.2518    1.0021    1.5979 H   0  0  0  0  0  0  0  0  0  0  0  0
  1 21  1  0  0  0  0
  1 24  1  0  0  0  0
  2 11  1  0  0  0  0
  2 18  1  0  0  0  0
  3 12  1  0  0  0  0
  3 13  1  0  0  0  0
  3 36  1  0  0  0  0
  4  8  1  0  0  0  0
  4 38  1  0  0  0  0
  4 39  1  0  0  0  0
  5 25  1  0  0  0  0
  5 26  2  0  0  0  0
  6 28  2  0  0  0  0
  6 29  1  0  0  0  0
  7  8  1  0  0  0  0
  7  9  1  0  0  0  0
  7 30  1  0  0  0  0
  7 31  1  0  0  0  0
  8 11  1  0  0  0  0
  8 32  1  0  0  0  0
  9 10  1  0  0  0  0
  9 13  2  0  0  0  0
 10 12  1  0  0  0  0
 10 14  2  0  0  0  0
 11 33  1  0  0  0  0
 11 34  1  0  0  0  0
 12 15  2  0  0  0  0
 13 35  1  0  0  0  0
 14 16  1  0  0  0  0
 14 37  1  0  0  0  0
 15 17  1  0  0  0  0
 15 40  1  0  0  0  0
 16 17  2  0  0  0  0
 16 41  1  0  0  0  0
 17 42  1  0  0  0  0
 18 20  1  0  0  0  0
 18 25  2  0  0  0  0
 19 20  2  0  0  0  0
 19 21  1  0  0  0  0
 19 26  1  0  0  0  0
 20 43  1  0  0  0  0
 21 23  2  0  0  0  0
 22 23  1  0  0  0  0
 22 24  2  0  0  0  0
 22 28  1  0  0  0  0
 23 44  1  0  0  0  0
 24 27  1  0  0  0  0
 25 45  1  0  0  0  0
 26 46  1  0  0  0  0
 27 29  2  0  0  0  0
 27 47  1  0  0  0  0
 28 48  1  0  0  0  0
 29 49  1  0  0  0  0
M  END
> <PUBCHEM_COMPOUND_CID>
49830599

> <PUBCHEM_CONFORMER_RMSD>
1.2

> <PUBCHEM_CONFORMER_DIVERSEORDER>
1
108
77
146
98
21
160
16
59
153
185
193
66
137
189
42
86
38
47
37
155
150
20
135
55
83
14
151
165
64
84
172
109
115
80
116
159
51
19
132
63
136
183
43
170
177
149
57
194
36
157
58
101
154
65
96
46
134
31
186
39
71
176
25
119
53
122
162
27
92
95
9
61
52
32
12
182
129
87
40
78
73
191
113
103
26
67
23
188
54
133
88
99
125
174
110
178
10
173
126
104
131
11
2
130
93
34
8
7
76
128
72
139
106
117
145
100
121
17
45
179
91
107
22
82
5
171
15
112
13
138
28
192
85
143
180
175
60
195
156
90
168
33
49
41
24
6
30
4
120
29
158
50
167
127
48
97
44
3
18
79
187
190
81
169
68
105
69
70
148
94
62
124
102
181
35
140
89
147
118
166
152
141
164
163
144
142
56
123
74
111
114
184
161
75

> <PUBCHEM_MMFF94_PARTIAL_CHARGES>
42
1 -0.08
11 0.28
12 -0.15
13 -0.3
14 -0.15
15 -0.15
16 -0.15
17 -0.15
18 0.08
19 0.05
2 -0.36
20 -0.15
21 -0.01
23 -0.15
24 0.04
25 0.16
26 0.16
27 -0.15
28 0.16
29 0.16
3 0.03
35 0.15
36 0.27
37 0.15
38 0.36
39 0.36
4 -0.99
40 0.15
41 0.15
42 0.15
43 0.15
44 0.15
45 0.15
46 0.15
47 0.15
48 0.15
49 0.15
5 -0.62
6 -0.62
7 0.18
8 0.27
9 -0.18

> <PUBCHEM_EFFECTIVE_ROTOR_COUNT>
6

> <PUBCHEM_PHARMACOPHORE_FEATURES>
12
1 2 acceptor
1 3 cation
1 3 donor
1 4 cation
1 4 donor
1 5 acceptor
1 6 acceptor
5 1 21 22 23 24 rings
5 3 9 10 12 13 rings
6 10 12 14 15 16 17 rings
6 5 18 19 20 25 26 rings
6 6 22 24 27 28 29 rings

> <PUBCHEM_HEAVY_ATOM_COUNT>
29

> <PUBCHEM_ATOM_DEF_STEREO_COUNT>
0

> <PUBCHEM_ATOM_UDEF_STEREO_COUNT>
1

> <PUBCHEM_BOND_DEF_STEREO_COUNT>
0

> <PUBCHEM_BOND_UDEF_STEREO_COUNT>
0

> <PUBCHEM_ISOTOPIC_ATOM_COUNT>
0

> <PUBCHEM_COMPONENT_COUNT>
1

> <PUBCHEM_CACTVS_TAUTO_COUNT>
1

> <PUBCHEM_CONFORMER_ID>
02F85AC700000001

> <PUBCHEM_MMFF94_ENERGY>
66.1698

> <PUBCHEM_FEATURE_SELFOVERLAP>
61.054

> <PUBCHEM_SHAPE_FINGERPRINT>
10119406 146 15028087674103512495
11513181 2 17629766669470646487
11578080 2 17700395147869990032
12156800 1 16623249484471894756
12422481 6 18260820480015968337
12633257 1 18130502028765703888
13075007 39 17895491305269284409
13140716 1 18338233885513992922
13402501 40 18260824861082934037
13965767 371 18266156479044681834
14840074 17 18407761447640707396
14955137 171 18339654381654588642
15420108 30 18271513303711072846
1601671 61 18411136935469116274
1979834 28 18410019818759727543
21033648 29 17896020131850340269
21298829 104 18131071489784330929
23559900 14 17603591816108948235
27425 322 15553289628247644274
3459 110 18115598183196062299
4112364 45 17989203759626702561
4144715 1 18189347792585280619
474 4 18272932704898771731
508706 21 17313371294109948645
513532 50 17703520912670810270
58260988 393 15502646080096902164

> <PUBCHEM_SHAPE_MULTIPOLES>
574.86
12.04
3.32
1.78
11.22
0.69
-0.39
-1.8
5.04
-2.49
-0.77
0.24
-0.56
0.26

> <PUBCHEM_SHAPE_SELFOVERLAP>
1270.027

> <PUBCHEM_SHAPE_VOLUME>
312.4

> <PUBCHEM_COORDINATE_TYPE>
2
5
10

$$$$
