3134
  -OEChem-10062122003D

 21 22  0     0  0  0  0  0  0999 V2000
    2.0998   -0.3181   -0.0125 N   0  0  0  0  0  0  0  0  0  0  0  0
   -0.6436   -1.7049    0.1353 N   0  0  0  0  0  0  0  0  0  0  0  0
    0.7760    1.6771   -0.1344 N   0  0  0  0  0  0  0  0  0  0  0  0
   -2.5904   -0.6202    0.0902 N   0  0  0  0  0  0  0  0  0  0  0  0
   -1.6625    1.6197   -0.0883 N   0  0  0  0  0  0  0  0  0  0  0  0
   -0.3276   -0.3800    0.0339 C   0  0  0  0  0  0  0  0  0  0  0  0
    0.8542    0.3308   -0.0381 C   0  0  0  0  0  0  0  0  0  0  0  0
   -1.5527    0.2728    0.0077 C   0  0  0  0  0  0  0  0  0  0  0  0
    2.4483   -1.2905   -1.0334 C   0  0  0  0  0  0  0  0  0  0  0  0
    3.0685   -0.0188    1.0274 C   0  0  0  0  0  0  0  0  0  0  0  0
   -2.0100   -1.7988    0.1657 C   0  0  0  0  0  0  0  0  0  0  0  0
   -0.4600    2.2307   -0.1533 C   0  0  0  0  0  0  0  0  0  0  0  0
    0.0064   -2.4778    0.1850 H   0  0  0  0  0  0  0  0  0  0  0  0
    3.5192   -1.2494   -1.2605 H   0  0  0  0  0  0  0  0  0  0  0  0
    1.9115   -1.1014   -1.9698 H   0  0  0  0  0  0  0  0  0  0  0  0
    2.2123   -2.3035   -0.6926 H   0  0  0  0  0  0  0  0  0  0  0  0
    3.5010    0.9747    0.8705 H   0  0  0  0  0  0  0  0  0  0  0  0
    3.8858   -0.7479    1.0363 H   0  0  0  0  0  0  0  0  0  0  0  0
    2.5951   -0.0421    2.0149 H   0  0  0  0  0  0  0  0  0  0  0  0
   -2.5147   -2.7511    0.2447 H   0  0  0  0  0  0  0  0  0  0  0  0
   -0.4863    3.3124   -0.2313 H   0  0  0  0  0  0  0  0  0  0  0  0
  1  7  1  0  0  0  0
  1  9  1  0  0  0  0
  1 10  1  0  0  0  0
  2  6  1  0  0  0  0
  2 11  1  0  0  0  0
  2 13  1  0  0  0  0
  3  7  2  0  0  0  0
  3 12  1  0  0  0  0
  4  8  1  0  0  0  0
  4 11  2  0  0  0  0
  5  8  1  0  0  0  0
  5 12  2  0  0  0  0
  6  7  1  0  0  0  0
  6  8  2  0  0  0  0
  9 14  1  0  0  0  0
  9 15  1  0  0  0  0
  9 16  1  0  0  0  0
 10 17  1  0  0  0  0
 10 18  1  0  0  0  0
 10 19  1  0  0  0  0
 11 20  1  0  0  0  0
 12 21  1  0  0  0  0
M  END
> <PUBCHEM_COMPOUND_CID>
3134

> <PUBCHEM_CONFORMER_RMSD>
0.4

> <PUBCHEM_CONFORMER_DIVERSEORDER>
2
1

> <PUBCHEM_MMFF94_PARTIAL_CHARGES>
15
1 -0.84
10 0.37
11 0.04
12 0.47
13 0.27
2 0.03
20 0.15
21 0.15
3 -0.62
4 -0.57
5 -0.57
6 -0.15
7 0.41
8 0.48
9 0.37

> <PUBCHEM_EFFECTIVE_ROTOR_COUNT>
1

> <PUBCHEM_PHARMACOPHORE_FEATURES>
6
1 2 donor
3 1 3 7 cation
3 2 4 11 cation
3 3 5 12 cation
5 2 4 6 8 11 rings
6 3 5 6 7 8 12 rings

> <PUBCHEM_HEAVY_ATOM_COUNT>
12

> <PUBCHEM_ATOM_DEF_STEREO_COUNT>
0

> <PUBCHEM_ATOM_UDEF_STEREO_COUNT>
0

> <PUBCHEM_BOND_DEF_STEREO_COUNT>
0

> <PUBCHEM_BOND_UDEF_STEREO_COUNT>
0

> <PUBCHEM_ISOTOPIC_ATOM_COUNT>
0

> <PUBCHEM_COMPONENT_COUNT>
1

> <PUBCHEM_CACTVS_TAUTO_COUNT>
4

> <PUBCHEM_CONFORMER_ID>
00000C3E00000002

> <PUBCHEM_MMFF94_ENERGY>
39.5873

> <PUBCHEM_FEATURE_SELFOVERLAP>
30.69

> <PUBCHEM_SHAPE_FINGERPRINT>
10857977 72 18340476850679637992
12524768 44 18267870664579492127
12716758 59 18195247706974719614
15219456 202 18059570240282455666
16945 1 18336267855612145989
17990270 104 18123195863681976574
18380122 1 18201430411492711458
193761 8 18265617765476147461
20645464 45 18129370523810411186
20645477 70 17689714586186313103
20871998 184 18343577456195339926
20871998 22 18339934816964143130
21040471 1 17976540507461630580
22802520 49 18056768619776939414
23552423 10 17899419975984123469
23559900 14 17767127502395254142
241688 4 18409169934789064521
2748010 2 18122348973672485063
369184 2 16200148785477134139
5084963 1 18201446847810424203
7364860 26 17981894355947476072
81228 2 18337112271931517377

> <PUBCHEM_SHAPE_MULTIPOLES>
222.05
3.75
2.15
0.79
1.76
0.58
0
-1.26
0.4
-0.86
-0.19
0.53
-0.12
0.41

> <PUBCHEM_SHAPE_SELFOVERLAP>
477.545

> <PUBCHEM_SHAPE_VOLUME>
122.2

> <PUBCHEM_COORDINATE_TYPE>
2
5
10

$$$$
