46864270
  -OEChem-10052115173D

 75 78  0     0  0  0  0  0  0999 V2000
   -2.3564    3.0187    0.1625 F   0  0  0  0  0  0  0  0  0  0  0  0
   -3.6616    3.2194   -1.5647 F   0  0  0  0  0  0  0  0  0  0  0  0
   -4.4862    2.6239    0.3508 F   0  0  0  0  0  0  0  0  0  0  0  0
  -11.5877   -0.1066    2.9805 O   0  0  0  0  0  0  0  0  0  0  0  0
   -0.6590   -3.6902   -1.1938 O   0  0  0  0  0  0  0  0  0  0  0  0
   10.0247    1.8362   -1.1031 O   0  0  0  0  0  0  0  0  0  0  0  0
   -6.3485    0.9720   -0.6989 N   0  0  0  0  0  0  0  0  0  0  0  0
   -8.9283    0.7942    0.5941 N   0  0  0  0  0  0  0  0  0  0  0  0
   -0.4608   -1.4787   -0.4198 N   0  0  0  0  0  0  0  0  0  0  0  0
    7.5801    0.6277    0.0178 N   0  0  0  0  0  0  0  0  0  0  0  0
    7.3385    2.6109    0.9876 N   0  0  0  0  0  0  0  0  0  0  0  0
   10.1382    3.1548    0.8008 N   0  0  0  0  0  0  0  0  0  0  0  0
   -7.4064    1.9531   -0.9703 C   0  0  0  0  0  0  0  0  0  0  0  0
   -6.9327   -0.3254   -0.3376 C   0  0  0  0  0  0  0  0  0  0  0  0
   -8.3444    2.0921    0.2338 C   0  0  0  0  0  0  0  0  0  0  0  0
   -7.8697   -0.1855    0.8670 C   0  0  0  0  0  0  0  0  0  0  0  0
   -5.4575    0.8378   -1.8496 C   0  0  0  0  0  0  0  0  0  0  0  0
   -9.8210    0.9278    1.7436 C   0  0  0  0  0  0  0  0  0  0  0  0
   -4.1299    0.2413   -1.4641 C   0  0  0  0  0  0  0  0  0  0  0  0
  -10.7518   -0.2702    1.8424 C   0  0  0  0  0  0  0  0  0  0  0  0
   -3.1627    1.0047   -0.8104 C   0  0  0  0  0  0  0  0  0  0  0  0
   -3.8740   -1.0955   -1.7696 C   0  0  0  0  0  0  0  0  0  0  0  0
   -1.9398    0.4314   -0.4620 C   0  0  0  0  0  0  0  0  0  0  0  0
   -2.6511   -1.6689   -1.4213 C   0  0  0  0  0  0  0  0  0  0  0  0
   -3.4141    2.4380   -0.4733 C   0  0  0  0  0  0  0  0  0  0  0  0
   -1.6840   -0.9053   -0.7674 C   0  0  0  0  0  0  0  0  0  0  0  0
   -0.0293   -2.7932   -0.6436 C   0  0  0  0  0  0  0  0  0  0  0  0
    1.3491   -3.0994   -0.1789 C   0  0  0  0  0  0  0  0  0  0  0  0
    2.3012   -2.0831   -0.1002 C   0  0  0  0  0  0  0  0  0  0  0  0
    1.6902   -4.4038    0.1784 C   0  0  0  0  0  0  0  0  0  0  0  0
    3.5944   -2.3711    0.3361 C   0  0  0  0  0  0  0  0  0  0  0  0
    3.9354   -3.6756    0.6935 C   0  0  0  0  0  0  0  0  0  0  0  0
    2.9833   -4.6920    0.6147 C   0  0  0  0  0  0  0  0  0  0  0  0
    5.3112   -4.0216    1.1659 C   0  0  0  0  0  0  0  0  0  0  0  0
    4.5538   -1.3115    0.4080 C   0  0  0  0  0  0  0  0  0  0  0  0
    6.3176    0.6373    0.5406 C   0  0  0  0  0  0  0  0  0  0  0  0
    8.1544    1.8333    0.3111 C   0  0  0  0  0  0  0  0  0  0  0  0
    5.3591   -0.4220    0.4684 C   0  0  0  0  0  0  0  0  0  0  0  0
    6.1917    1.8712    1.1339 C   0  0  0  0  0  0  0  0  0  0  0  0
    8.2000   -0.4542   -0.7135 C   0  0  0  0  0  0  0  0  0  0  0  0
    9.4718    2.2461   -0.0504 C   0  0  0  0  0  0  0  0  0  0  0  0
   11.4622    3.6823    0.5610 C   0  0  0  0  0  0  0  0  0  0  0  0
   -6.9609    2.9352   -1.1704 H   0  0  0  0  0  0  0  0  0  0  0  0
   -7.9847    1.6680   -1.8597 H   0  0  0  0  0  0  0  0  0  0  0  0
   -7.4850   -0.7589   -1.1826 H   0  0  0  0  0  0  0  0  0  0  0  0
   -6.1495   -1.0388   -0.0581 H   0  0  0  0  0  0  0  0  0  0  0  0
   -7.7960    2.5230    1.0826 H   0  0  0  0  0  0  0  0  0  0  0  0
   -9.1404    2.7977   -0.0337 H   0  0  0  0  0  0  0  0  0  0  0  0
   -8.2903   -1.1769    1.0634 H   0  0  0  0  0  0  0  0  0  0  0  0
   -7.2870    0.1027    1.7527 H   0  0  0  0  0  0  0  0  0  0  0  0
   -5.2722    1.8100   -2.3220 H   0  0  0  0  0  0  0  0  0  0  0  0
   -5.9288    0.2444   -2.6461 H   0  0  0  0  0  0  0  0  0  0  0  0
  -10.4534    1.8195    1.6350 H   0  0  0  0  0  0  0  0  0  0  0  0
   -9.2702    1.0728    2.6824 H   0  0  0  0  0  0  0  0  0  0  0  0
  -11.3875   -0.3483    0.9538 H   0  0  0  0  0  0  0  0  0  0  0  0
  -10.2126   -1.2118    1.9732 H   0  0  0  0  0  0  0  0  0  0  0  0
   -4.6185   -1.7026   -2.2782 H   0  0  0  0  0  0  0  0  0  0  0  0
   -1.1799    1.0192    0.0476 H   0  0  0  0  0  0  0  0  0  0  0  0
   -2.5294   -2.7081   -1.6917 H   0  0  0  0  0  0  0  0  0  0  0  0
  -12.1799   -0.8772    3.0134 H   0  0  0  0  0  0  0  0  0  0  0  0
    0.1570   -0.8523    0.0884 H   0  0  0  0  0  0  0  0  0  0  0  0
    2.0749   -1.0654   -0.4083 H   0  0  0  0  0  0  0  0  0  0  0  0
    0.9615   -5.2087    0.1290 H   0  0  0  0  0  0  0  0  0  0  0  0
    3.2310   -5.7138    0.8903 H   0  0  0  0  0  0  0  0  0  0  0  0
    5.4059   -5.0876    1.4006 H   0  0  0  0  0  0  0  0  0  0  0  0
    5.5554   -3.4666    2.0778 H   0  0  0  0  0  0  0  0  0  0  0  0
    6.0521   -3.7939    0.3921 H   0  0  0  0  0  0  0  0  0  0  0  0
    5.3359    2.2700    1.6603 H   0  0  0  0  0  0  0  0  0  0  0  0
    7.6241   -1.3738   -0.5893 H   0  0  0  0  0  0  0  0  0  0  0  0
    9.2070   -0.6154   -0.3201 H   0  0  0  0  0  0  0  0  0  0  0  0
    8.2340   -0.1778   -1.7702 H   0  0  0  0  0  0  0  0  0  0  0  0
    9.6661    3.4498    1.6508 H   0  0  0  0  0  0  0  0  0  0  0  0
   11.7222    3.6132   -0.4978 H   0  0  0  0  0  0  0  0  0  0  0  0
   11.4813    4.7258    0.8837 H   0  0  0  0  0  0  0  0  0  0  0  0
   12.1735    3.1024    1.1541 H   0  0  0  0  0  0  0  0  0  0  0  0
  1 25  1  0  0  0  0
  2 25  1  0  0  0  0
  3 25  1  0  0  0  0
  4 20  1  0  0  0  0
  4 60  1  0  0  0  0
  5 27  2  0  0  0  0
  6 41  2  0  0  0  0
  7 13  1  0  0  0  0
  7 14  1  0  0  0  0
  7 17  1  0  0  0  0
  8 15  1  0  0  0  0
  8 16  1  0  0  0  0
  8 18  1  0  0  0  0
  9 26  1  0  0  0  0
  9 27  1  0  0  0  0
  9 61  1  0  0  0  0
 10 36  1  0  0  0  0
 10 37  1  0  0  0  0
 10 40  1  0  0  0  0
 11 37  2  0  0  0  0
 11 39  1  0  0  0  0
 12 41  1  0  0  0  0
 12 42  1  0  0  0  0
 12 72  1  0  0  0  0
 13 15  1  0  0  0  0
 13 43  1  0  0  0  0
 13 44  1  0  0  0  0
 14 16  1  0  0  0  0
 14 45  1  0  0  0  0
 14 46  1  0  0  0  0
 15 47  1  0  0  0  0
 15 48  1  0  0  0  0
 16 49  1  0  0  0  0
 16 50  1  0  0  0  0
 17 19  1  0  0  0  0
 17 51  1  0  0  0  0
 17 52  1  0  0  0  0
 18 20  1  0  0  0  0
 18 53  1  0  0  0  0
 18 54  1  0  0  0  0
 19 21  2  0  0  0  0
 19 22  1  0  0  0  0
 20 55  1  0  0  0  0
 20 56  1  0  0  0  0
 21 23  1  0  0  0  0
 21 25  1  0  0  0  0
 22 24  2  0  0  0  0
 22 57  1  0  0  0  0
 23 26  2  0  0  0  0
 23 58  1  0  0  0  0
 24 26  1  0  0  0  0
 24 59  1  0  0  0  0
 27 28  1  0  0  0  0
 28 29  2  0  0  0  0
 28 30  1  0  0  0  0
 29 31  1  0  0  0  0
 29 62  1  0  0  0  0
 30 33  2  0  0  0  0
 30 63  1  0  0  0  0
 31 32  2  0  0  0  0
 31 35  1  0  0  0  0
 32 33  1  0  0  0  0
 32 34  1  0  0  0  0
 33 64  1  0  0  0  0
 34 65  1  0  0  0  0
 34 66  1  0  0  0  0
 34 67  1  0  0  0  0
 35 38  3  0  0  0  0
 36 38  1  0  0  0  0
 36 39  2  0  0  0  0
 37 41  1  0  0  0  0
 39 68  1  0  0  0  0
 40 69  1  0  0  0  0
 40 70  1  0  0  0  0
 40 71  1  0  0  0  0
 42 73  1  0  0  0  0
 42 74  1  0  0  0  0
 42 75  1  0  0  0  0
M  END
> <PUBCHEM_COMPOUND_CID>
46864270

> <PUBCHEM_CONFORMER_RMSD>
1.2

> <PUBCHEM_CONFORMER_DIVERSEORDER>
3
46
36
26
43
45
13
58
24
44
66
59
40
69
54
68
64
21
39
20
25
29
49
41
23
30
19
57
15
70
55
16
31
61
52
67
48
33
53
9
12
38
8
42
60
22
63
6
1
47
28
17
35
5
7
56
2
18
65
50
11
14
34
32
4
37
62
51
27
10

> <PUBCHEM_MMFF94_PARTIAL_CHARGES>
52
1 -0.34
10 0.05
11 -0.57
12 -0.73
13 0.27
14 0.27
15 0.27
16 0.27
17 0.41
18 0.27
19 -0.14
2 -0.34
20 0.28
21 -0.14
22 -0.15
23 -0.15
24 -0.15
25 1.16
26 0.12
27 0.54
28 0.09
29 -0.15
3 -0.34
30 -0.15
31 0.07
32 -0.14
33 -0.15
34 0.14
35 -0.07
36 -0.13
37 0.1
38 -0.02
39 0.08
4 -0.68
40 0.26
41 0.71
42 0.3
5 -0.57
57 0.15
58 0.15
59 0.15
6 -0.57
60 0.4
61 0.37
62 0.15
63 0.15
64 0.15
68 0.15
7 -0.81
72 0.37
8 -0.81
9 -0.55

> <PUBCHEM_EFFECTIVE_ROTOR_COUNT>
11.2

> <PUBCHEM_PHARMACOPHORE_FEATURES>
13
1 12 donor
1 4 acceptor
1 4 donor
1 5 acceptor
1 6 acceptor
1 7 cation
1 8 cation
1 9 donor
3 10 11 37 cation
5 10 11 36 37 39 rings
6 19 21 22 23 24 26 rings
6 28 29 30 31 32 33 rings
6 7 8 13 14 15 16 rings

> <PUBCHEM_HEAVY_ATOM_COUNT>
42

> <PUBCHEM_ATOM_DEF_STEREO_COUNT>
0

> <PUBCHEM_ATOM_UDEF_STEREO_COUNT>
0

> <PUBCHEM_BOND_DEF_STEREO_COUNT>
0

> <PUBCHEM_BOND_UDEF_STEREO_COUNT>
0

> <PUBCHEM_ISOTOPIC_ATOM_COUNT>
0

> <PUBCHEM_COMPONENT_COUNT>
1

> <PUBCHEM_CACTVS_TAUTO_COUNT>
10

> <PUBCHEM_CONFORMER_ID>
02CB178E00000003

> <PUBCHEM_MMFF94_ENERGY>
89.507

> <PUBCHEM_FEATURE_SELFOVERLAP>
65.974

> <PUBCHEM_SHAPE_FINGERPRINT>
10055352 69 18272647995441869907
10930396 42 16949997045983106053
10939801 23 18342172246218007567
11409948 8 18187936101454351467
1200032 147 18259978285271278410
12013929 112 14045744803440507849
12838863 1 11169909494135066345
131240 88 18409729578197929616
13947947 74 18130499829985386376
14026016 13 18411416224576212970
14394314 77 18412538821332023461
14919807 6 12679181584097556251
15152005 290 18337102463281079214
15152005 77 11170177753904180808
15198563 99 17552339387414857334
15419008 91 17605543363501626645
15685185 35 18338230565883730620
15890870 6 18410852184070740152
16992787 43 18342455928786906705
18393751 57 18187920647308224655
19053607 189 18266155294093046784
19302320 297 18113614625949937772
19304671 126 18060702806442850134
212700 22 8935003668227091916
21987483 16 18041001696582261443
22002106 203 8502378828430716780
23522609 53 17774719745810923771
24771293 8 18408879667850905615
3918712 181 18337941369057312876
44575985 191 13254529613585917579
44575985 266 18335426781394776178
4516262 110 18335969905542205142
474113 269 7925912573715128363
4760202 70 18270384050273523287
57676310 78 8142088629084160459
5776283 40 18341606079819651312
6204607 403 18272937094128729297

> <PUBCHEM_SHAPE_MULTIPOLES>
795.03
40.67
5.59
1.58
0.9
4.1
-0.36
-43.9
-19.53
12.93
-0.67
-4.5
-0.05
0.59

> <PUBCHEM_SHAPE_SELFOVERLAP>
1700.023

> <PUBCHEM_SHAPE_VOLUME>
443.5

> <PUBCHEM_COORDINATE_TYPE>
2
5
10

$$$$
