24905307
  -OEChem-10052115143D

 48 52  0     0  0  0  0  0  0999 V2000
    5.0067    4.3130    0.1629 F   0  0  0  0  0  0  0  0  0  0  0  0
    3.0842    3.8182   -1.7423 O   0  0  0  0  0  0  0  0  0  0  0  0
    0.3606   -1.5998    1.0152 N   0  0  0  0  0  0  0  0  0  0  0  0
    0.8102   -0.3387    1.1544 N   0  0  0  0  0  0  0  0  0  0  0  0
   -3.5817   -0.2661    0.1503 N   0  0  0  0  0  0  0  0  0  0  0  0
   -2.5082   -0.2417    0.9564 N   0  0  0  0  0  0  0  0  0  0  0  0
    0.9963   -3.6860   -0.0365 N   0  0  0  0  0  0  0  0  0  0  0  0
   -3.9099   -1.4241   -0.4450 N   0  0  0  0  0  0  0  0  0  0  0  0
    3.1131   -3.4852   -1.2321 N   0  0  0  0  0  0  0  0  0  0  0  0
    4.3590   -1.4510   -1.3163 N   0  0  0  0  0  0  0  0  0  0  0  0
   -0.8861   -1.9835    1.6339 C   0  0  0  0  0  0  0  0  0  0  0  0
    2.2471   -1.5921   -0.1057 C   0  0  0  0  0  0  0  0  0  0  0  0
    1.1824   -2.3923    0.2701 C   0  0  0  0  0  0  0  0  0  0  0  0
    1.9592   -0.3405    0.4696 C   0  0  0  0  0  0  0  0  0  0  0  0
   -2.1007   -1.5114    0.8739 C   0  0  0  0  0  0  0  0  0  0  0  0
    2.7467    0.8639    0.3890 C   0  0  0  0  0  0  0  0  0  0  0  0
   -2.9520   -2.2295    0.0226 C   0  0  0  0  0  0  0  0  0  0  0  0
    3.2368   -2.1815   -0.8852 C   0  0  0  0  0  0  0  0  0  0  0  0
    2.5317    1.7694   -0.6500 C   0  0  0  0  0  0  0  0  0  0  0  0
    3.7236    1.1243    1.3500 C   0  0  0  0  0  0  0  0  0  0  0  0
   -2.9014   -3.6449   -0.3695 C   0  0  0  0  0  0  0  0  0  0  0  0
   -4.3384    0.8832   -0.0625 C   0  0  0  0  0  0  0  0  0  0  0  0
    2.0161   -4.1470   -0.7925 C   0  0  0  0  0  0  0  0  0  0  0  0
    3.2934    2.9352   -0.7279 C   0  0  0  0  0  0  0  0  0  0  0  0
    4.4854    2.2900    1.2721 C   0  0  0  0  0  0  0  0  0  0  0  0
    4.2702    3.1955    0.2331 C   0  0  0  0  0  0  0  0  0  0  0  0
   -5.4514    0.8398   -0.9021 C   0  0  0  0  0  0  0  0  0  0  0  0
   -3.9841    2.0777    0.5645 C   0  0  0  0  0  0  0  0  0  0  0  0
   -6.2101    1.9908   -1.1148 C   0  0  0  0  0  0  0  0  0  0  0  0
   -4.7428    3.2288    0.3520 C   0  0  0  0  0  0  0  0  0  0  0  0
   -5.8558    3.1853   -0.4877 C   0  0  0  0  0  0  0  0  0  0  0  0
   -0.8915   -1.5668    2.6487 H   0  0  0  0  0  0  0  0  0  0  0  0
   -0.9003   -3.0737    1.7394 H   0  0  0  0  0  0  0  0  0  0  0  0
    1.7707    1.5689   -1.4014 H   0  0  0  0  0  0  0  0  0  0  0  0
    3.9041    0.4283    2.1658 H   0  0  0  0  0  0  0  0  0  0  0  0
   -2.9031   -4.2909    0.5144 H   0  0  0  0  0  0  0  0  0  0  0  0
   -3.7591   -3.9266   -0.9894 H   0  0  0  0  0  0  0  0  0  0  0  0
   -1.9920   -3.8514   -0.9426 H   0  0  0  0  0  0  0  0  0  0  0  0
    1.9482   -5.1883   -1.0885 H   0  0  0  0  0  0  0  0  0  0  0  0
    5.2465    2.4928    2.0198 H   0  0  0  0  0  0  0  0  0  0  0  0
    4.4789   -0.4789   -1.0728 H   0  0  0  0  0  0  0  0  0  0  0  0
    5.0557   -1.9184   -1.8808 H   0  0  0  0  0  0  0  0  0  0  0  0
   -5.7620   -0.0698   -1.4096 H   0  0  0  0  0  0  0  0  0  0  0  0
   -3.1249    2.1549    1.2257 H   0  0  0  0  0  0  0  0  0  0  0  0
   -7.0769    1.9576   -1.7684 H   0  0  0  0  0  0  0  0  0  0  0  0
   -4.4674    4.1593    0.8399 H   0  0  0  0  0  0  0  0  0  0  0  0
   -6.4465    4.0815   -0.6532 H   0  0  0  0  0  0  0  0  0  0  0  0
    2.3736    3.4799   -2.3138 H   0  0  0  0  0  0  0  0  0  0  0  0
  1 26  1  0  0  0  0
  2 24  1  0  0  0  0
  2 48  1  0  0  0  0
  3  4  1  0  0  0  0
  3 11  1  0  0  0  0
  3 13  1  0  0  0  0
  4 14  2  0  0  0  0
  5  6  1  0  0  0  0
  5  8  1  0  0  0  0
  5 22  1  0  0  0  0
  6 15  2  0  0  0  0
  7 13  2  0  0  0  0
  7 23  1  0  0  0  0
  8 17  2  0  0  0  0
  9 18  1  0  0  0  0
  9 23  2  0  0  0  0
 10 18  1  0  0  0  0
 10 41  1  0  0  0  0
 10 42  1  0  0  0  0
 11 15  1  0  0  0  0
 11 32  1  0  0  0  0
 11 33  1  0  0  0  0
 12 13  1  0  0  0  0
 12 14  1  0  0  0  0
 12 18  2  0  0  0  0
 14 16  1  0  0  0  0
 15 17  1  0  0  0  0
 16 19  2  0  0  0  0
 16 20  1  0  0  0  0
 17 21  1  0  0  0  0
 19 24  1  0  0  0  0
 19 34  1  0  0  0  0
 20 25  2  0  0  0  0
 20 35  1  0  0  0  0
 21 36  1  0  0  0  0
 21 37  1  0  0  0  0
 21 38  1  0  0  0  0
 22 27  2  0  0  0  0
 22 28  1  0  0  0  0
 23 39  1  0  0  0  0
 24 26  2  0  0  0  0
 25 26  1  0  0  0  0
 25 40  1  0  0  0  0
 27 29  1  0  0  0  0
 27 43  1  0  0  0  0
 28 30  2  0  0  0  0
 28 44  1  0  0  0  0
 29 31  2  0  0  0  0
 29 45  1  0  0  0  0
 30 31  1  0  0  0  0
 30 46  1  0  0  0  0
 31 47  1  0  0  0  0
M  END
> <PUBCHEM_COMPOUND_CID>
24905307

> <PUBCHEM_CONFORMER_RMSD>
0.8

> <PUBCHEM_CONFORMER_DIVERSEORDER>
1
40
52
34
73
81
21
44
31
85
39
70
47
51
66
49
72
80
23
82
63
27
41
68
45
35
64
19
74
37
67
76
55
13
11
79
32
71
2
65
43
20
78
48
24
46
61
29
53
75
36
28
16
6
54
58
77
38
15
84
26
5
50
59
18
33
83
69
30
56
25
12
60
22
42
4
14
62
9
17
10
3
8
57
7

> <PUBCHEM_MMFF94_PARTIAL_CHARGES>
42
1 -0.19
10 -0.9
11 0.44
13 0.11
14 0.23
15 0.11
16 0.05
17 0.11
18 0.41
19 -0.15
2 -0.53
20 -0.15
21 0.18
22 -0.02
23 0.47
24 0.08
25 -0.15
26 0.19
27 -0.15
28 -0.15
29 -0.15
3 0.31
30 -0.15
31 -0.15
34 0.15
35 0.15
39 0.15
4 -0.71
40 0.15
41 0.4
42 0.4
43 0.15
44 0.15
45 0.15
46 0.15
47 0.15
48 0.45
5 0.86
6 -0.71
7 -0.57
8 -0.71
9 -0.62

> <PUBCHEM_EFFECTIVE_ROTOR_COUNT>
4

> <PUBCHEM_PHARMACOPHORE_FEATURES>
13
1 10 cation
1 10 donor
1 2 donor
1 4 acceptor
1 6 acceptor
1 8 acceptor
3 3 7 13 cation
3 7 9 23 cation
5 3 4 12 13 14 rings
5 5 6 8 15 17 rings
6 16 19 20 24 25 26 rings
6 22 27 28 29 30 31 rings
6 7 9 12 13 18 23 rings

> <PUBCHEM_HEAVY_ATOM_COUNT>
31

> <PUBCHEM_ATOM_DEF_STEREO_COUNT>
0

> <PUBCHEM_ATOM_UDEF_STEREO_COUNT>
0

> <PUBCHEM_BOND_DEF_STEREO_COUNT>
0

> <PUBCHEM_BOND_UDEF_STEREO_COUNT>
0

> <PUBCHEM_ISOTOPIC_ATOM_COUNT>
0

> <PUBCHEM_COMPONENT_COUNT>
1

> <PUBCHEM_CACTVS_TAUTO_COUNT>
15

> <PUBCHEM_CONFORMER_ID>
017C065B00000001

> <PUBCHEM_MMFF94_ENERGY>
73.3425

> <PUBCHEM_FEATURE_SELFOVERLAP>
66.301

> <PUBCHEM_SHAPE_FINGERPRINT>
10439779 11 18194957435952576930
10937287 8 18408600358149446371
11297750 10 17192901992421838026
11513181 2 18267876153953768734
11720765 8 18124311597860223958
12107183 9 18115567315212689736
12788726 201 17398685497627885994
13761468 95 17035897684435782484
13944108 23 17181374699462059829
14040222 75 16963197520023344125
14068700 675 17627222356187018794
14251764 38 18335701705897552800
14289585 56 17397845483365195425
15001296 14 18191579762530010073
15064981 113 18055642956752935052
15064981 194 18341061731543564349
15163728 17 18337400455725973178
15326921 28 17982158230876611376
16988056 13 18266460902111048924
19053607 189 18339910593465320929
19246450 95 18266721654556170968
19309040 13 18273216400484429085
20715895 44 18337099090661211433
21641784 216 17332809851613314406
21860390 5 18340205168038542854
22393880 68 18272098226907169126
23559900 14 18343298124307200290
376196 1 18337387244570380930
44317340 157 18341052913817216161
46194498 28 18201172013112356911
508180 173 17977679614355836106
53794403 172 18261682506081172125
57527585 21 18122052363516172359
6036956 94 17466228952246656781
6608658 132 17470175120499257444
7288768 16 17894628193105324105
7399639 24 18120392083499338579
9981440 41 18263361567399505219

> <PUBCHEM_SHAPE_MULTIPOLES>
584.97
13.12
6.26
1.29
14.66
0.41
-0.02
13.67
2.82
-4.59
1.5
-0.67
0.08
1.42

> <PUBCHEM_SHAPE_SELFOVERLAP>
1312.48

> <PUBCHEM_SHAPE_VOLUME>
311.5

> <PUBCHEM_COORDINATE_TYPE>
2
5
10

$$$$
