24905241
  -OEChem-10052115153D

 38 41  0     0  0  0  0  0  0999 V2000
    6.3076    0.2179   -1.0866 O   0  0  0  0  0  0  0  0  0  0  0  0
   -2.6719    1.0403   -0.0764 N   0  0  0  0  0  0  0  0  0  0  0  0
   -1.3892    1.4018    0.1133 N   0  0  0  0  0  0  0  0  0  0  0  0
    3.9559    0.2446   -1.3828 N   0  0  0  0  0  0  0  0  0  0  0  0
   -4.0141   -0.9596   -0.3241 N   0  0  0  0  0  0  0  0  0  0  0  0
    4.7869    0.1701    0.7310 N   0  0  0  0  0  0  0  0  0  0  0  0
   -2.6539   -2.9804   -0.1959 N   0  0  0  0  0  0  0  0  0  0  0  0
   -0.2909   -2.9258    0.1361 N   0  0  0  0  0  0  0  0  0  0  0  0
   -3.6894    2.0584   -0.1872 C   0  0  0  0  0  0  0  0  0  0  0  0
   -0.7412    0.2329    0.1679 C   0  0  0  0  0  0  0  0  0  0  0  0
   -1.5994   -0.8719    0.0149 C   0  0  0  0  0  0  0  0  0  0  0  0
   -2.8538   -0.3091   -0.1427 C   0  0  0  0  0  0  0  0  0  0  0  0
    0.6823    0.2140    0.3655 C   0  0  0  0  0  0  0  0  0  0  0  0
   -3.7998    2.8861    1.0957 C   0  0  0  0  0  0  0  0  0  0  0  0
   -3.4524    2.9617   -1.4001 C   0  0  0  0  0  0  0  0  0  0  0  0
    2.8851    0.2242   -0.4891 C   0  0  0  0  0  0  0  0  0  0  0  0
    1.5327    0.2430   -0.7443 C   0  0  0  0  0  0  0  0  0  0  0  0
    3.3940    0.1786    0.8054 C   0  0  0  0  0  0  0  0  0  0  0  0
    1.1987    0.1678    1.6792 C   0  0  0  0  0  0  0  0  0  0  0  0
   -1.5207   -2.2602   -0.0162 C   0  0  0  0  0  0  0  0  0  0  0  0
    2.5775    0.1495    1.9130 C   0  0  0  0  0  0  0  0  0  0  0  0
    5.1697    0.2111   -0.6397 C   0  0  0  0  0  0  0  0  0  0  0  0
   -3.8137   -2.2951   -0.3368 C   0  0  0  0  0  0  0  0  0  0  0  0
   -4.6482    1.5474   -0.3362 H   0  0  0  0  0  0  0  0  0  0  0  0
   -3.9778    2.2398    1.9623 H   0  0  0  0  0  0  0  0  0  0  0  0
   -4.6314    3.5955    1.0275 H   0  0  0  0  0  0  0  0  0  0  0  0
   -2.8853    3.4577    1.2893 H   0  0  0  0  0  0  0  0  0  0  0  0
   -4.2768    3.6726   -1.5193 H   0  0  0  0  0  0  0  0  0  0  0  0
   -3.3818    2.3694   -2.3191 H   0  0  0  0  0  0  0  0  0  0  0  0
   -2.5245    3.5360   -1.3026 H   0  0  0  0  0  0  0  0  0  0  0  0
    1.1524    0.2784   -1.7596 H   0  0  0  0  0  0  0  0  0  0  0  0
    0.5239    0.1453    2.5330 H   0  0  0  0  0  0  0  0  0  0  0  0
    2.9744    0.1140    2.9204 H   0  0  0  0  0  0  0  0  0  0  0  0
    3.8697    0.2779   -2.3911 H   0  0  0  0  0  0  0  0  0  0  0  0
    5.4105    0.1400    1.5281 H   0  0  0  0  0  0  0  0  0  0  0  0
   -4.7013   -2.9021   -0.4788 H   0  0  0  0  0  0  0  0  0  0  0  0
    0.5696   -2.4161    0.2727 H   0  0  0  0  0  0  0  0  0  0  0  0
   -0.2785   -3.9365    0.1081 H   0  0  0  0  0  0  0  0  0  0  0  0
  1 22  2  0  0  0  0
  2  3  1  0  0  0  0
  2  9  1  0  0  0  0
  2 12  1  0  0  0  0
  3 10  2  0  0  0  0
  4 16  1  0  0  0  0
  4 22  1  0  0  0  0
  4 34  1  0  0  0  0
  5 12  2  0  0  0  0
  5 23  1  0  0  0  0
  6 18  1  0  0  0  0
  6 22  1  0  0  0  0
  6 35  1  0  0  0  0
  7 20  1  0  0  0  0
  7 23  2  0  0  0  0
  8 20  1  0  0  0  0
  8 37  1  0  0  0  0
  8 38  1  0  0  0  0
  9 14  1  0  0  0  0
  9 15  1  0  0  0  0
  9 24  1  0  0  0  0
 10 11  1  0  0  0  0
 10 13  1  0  0  0  0
 11 12  1  0  0  0  0
 11 20  2  0  0  0  0
 13 17  2  0  0  0  0
 13 19  1  0  0  0  0
 14 25  1  0  0  0  0
 14 26  1  0  0  0  0
 14 27  1  0  0  0  0
 15 28  1  0  0  0  0
 15 29  1  0  0  0  0
 15 30  1  0  0  0  0
 16 17  1  0  0  0  0
 16 18  2  0  0  0  0
 17 31  1  0  0  0  0
 18 21  1  0  0  0  0
 19 21  2  0  0  0  0
 19 32  1  0  0  0  0
 21 33  1  0  0  0  0
 23 36  1  0  0  0  0
M  END
> <PUBCHEM_COMPOUND_CID>
24905241

> <PUBCHEM_CONFORMER_RMSD>
0.6

> <PUBCHEM_CONFORMER_DIVERSEORDER>
2
3
6
4
5
1

> <PUBCHEM_MMFF94_PARTIAL_CHARGES>
28
1 -0.57
10 0.23
12 0.11
13 0.05
16 0.12
17 -0.15
18 0.12
19 -0.15
2 0.31
20 0.41
21 -0.15
22 0.69
23 0.47
3 -0.71
31 0.15
32 0.15
33 0.15
34 0.37
35 0.37
36 0.15
37 0.4
38 0.4
4 -0.55
5 -0.57
6 -0.55
7 -0.62
8 -0.9
9 0.26

> <PUBCHEM_EFFECTIVE_ROTOR_COUNT>
2

> <PUBCHEM_PHARMACOPHORE_FEATURES>
13
1 1 acceptor
1 3 acceptor
1 4 donor
1 6 donor
1 8 cation
1 8 donor
3 2 5 12 cation
3 5 7 23 cation
3 9 14 15 hydrophobe
5 2 3 10 11 12 rings
5 4 6 16 18 22 rings
6 13 16 17 18 19 21 rings
6 5 7 11 12 20 23 rings

> <PUBCHEM_HEAVY_ATOM_COUNT>
23

> <PUBCHEM_ATOM_DEF_STEREO_COUNT>
0

> <PUBCHEM_ATOM_UDEF_STEREO_COUNT>
0

> <PUBCHEM_BOND_DEF_STEREO_COUNT>
0

> <PUBCHEM_BOND_UDEF_STEREO_COUNT>
0

> <PUBCHEM_ISOTOPIC_ATOM_COUNT>
0

> <PUBCHEM_COMPONENT_COUNT>
1

> <PUBCHEM_CACTVS_TAUTO_COUNT>
23

> <PUBCHEM_CONFORMER_ID>
017C061900000002

> <PUBCHEM_MMFF94_ENERGY>
65.877

> <PUBCHEM_FEATURE_SELFOVERLAP>
66.411

> <PUBCHEM_SHAPE_FINGERPRINT>
10165383 225 18269846320072768321
10319926 262 18198599147971952696
10411042 1 17978512263130123271
105312 117 18338232644379188557
11796584 16 18271812264343709798
12107183 9 17973151830311090338
12236239 1 17676200286314069682
12390115 104 18200601285421152705
12403259 415 17917427648770089904
12500047 106 18413102840678981806
12553582 1 18191577760790160019
12616971 3 17313097515561527704
12714826 92 18271809072354398555
12788726 201 18260541273293959947
12954195 1 18272089388032752503
13140716 1 18194681708232951923
14294032 229 18336261225164622373
14386348 63 17632302319304350286
14508225 48 18267573801462921829
14790565 3 17694796124791167329
15042514 8 18265900353261104283
15842332 3 17749931302774163530
15961568 22 17975402826951047300
16752209 62 18337095852514241779
17844677 252 18341898532447855560
20510252 161 18271518797406378089
20645477 56 18411704253388576697
20645477 70 16487258772824323380
20871999 31 18411983580823305268
21033648 29 17346586483290187648
21033650 10 18189639184562031348
21065201 7 18341324565760648514
22122407 14 16153713094180617549
22907989 373 18115848802995252149
2297311 6 18341055223871473855
23175994 123 17060062579033251512
23366157 5 17826504466772486531
23402539 116 18411416228312076164
23493267 7 18272087171396987936
23557571 272 18201445782801225996
23559900 14 18270958076324796088
23598291 2 17677035863790985266
283562 15 18411415142418988827
34797466 226 17986689241174934996
4214541 1 18411702093030407540
474 4 16951975183445019084
5283173 99 18342740741285632736
559249 180 18336824191912537146
57527295 17 17059205939305819581
59755656 215 18273494559756592127
59755656 520 17773612537380116801
602551 16 18340764931564210042
6049 1 17917142926439518025
6327066 14 17970340430608646589
77492 1 17676477358996709970
7808743 9 18336265639309515557
81228 2 18338512066835752515
9862522 239 17896027742442874253

> <PUBCHEM_SHAPE_MULTIPOLES>
432.59
10.47
2.92
1.28
11.98
0.68
-0.29
-3.08
2.6
-6.07
0.3
0.99
-0.53
-0.2

> <PUBCHEM_SHAPE_SELFOVERLAP>
968.307

> <PUBCHEM_SHAPE_VOLUME>
227.8

> <PUBCHEM_COORDINATE_TYPE>
2
5
10

$$$$
