46207586
  -OEChem-10052115193D

 56 60  0     0  0  0  0  0  0999 V2000
   -3.7189   -1.4125   -1.0373 S   0  0  0  0  0  0  0  0  0  0  0  0
   11.1579   -0.4224    1.0442 F   0  0  0  0  0  0  0  0  0  0  0  0
   -9.0157   -2.2342    1.0237 O   0  0  0  0  0  0  0  0  0  0  0  0
    4.9800    0.3317   -1.1641 O   0  0  0  0  0  0  0  0  0  0  0  0
   -8.2359    0.1877   -0.2955 N   0  0  0  0  0  0  0  0  0  0  0  0
   -3.2336    2.4816    1.1221 N   0  0  0  0  0  0  0  0  0  0  0  0
   -7.9541    0.1235   -1.6079 N   0  0  0  0  0  0  0  0  0  0  0  0
   -0.9180    2.0430    1.3025 N   0  0  0  0  0  0  0  0  0  0  0  0
    4.0980   -0.7154    0.7373 N   0  0  0  0  0  0  0  0  0  0  0  0
    6.3844   -0.4610    0.5294 N   0  0  0  0  0  0  0  0  0  0  0  0
   -2.3891    0.4368    0.1857 C   0  0  0  0  0  0  0  0  0  0  0  0
   -3.6842    0.1062   -0.2228 C   0  0  0  0  0  0  0  0  0  0  0  0
   -1.4510   -0.5828   -0.1884 C   0  0  0  0  0  0  0  0  0  0  0  0
   -4.7669    0.9556    0.0349 C   0  0  0  0  0  0  0  0  0  0  0  0
   -6.0994    0.6342   -0.3765 C   0  0  0  0  0  0  0  0  0  0  0  0
   -0.0286   -0.6173    0.0484 C   0  0  0  0  0  0  0  0  0  0  0  0
   -2.1989    1.6504    0.8654 C   0  0  0  0  0  0  0  0  0  0  0  0
   -2.0387   -1.6330   -0.8528 C   0  0  0  0  0  0  0  0  0  0  0  0
   -4.4661    2.1248    0.7111 C   0  0  0  0  0  0  0  0  0  0  0  0
   -7.1593    0.4905    0.4853 C   0  0  0  0  0  0  0  0  0  0  0  0
   -6.6476    0.3971   -1.6513 C   0  0  0  0  0  0  0  0  0  0  0  0
   -9.5833   -0.0560    0.1609 C   0  0  0  0  0  0  0  0  0  0  0  0
    0.8483   -0.0734   -0.8903 C   0  0  0  0  0  0  0  0  0  0  0  0
    0.4701   -1.1939    1.2165 C   0  0  0  0  0  0  0  0  0  0  0  0
    2.7223   -0.6833    0.5071 C   0  0  0  0  0  0  0  0  0  0  0  0
    2.2237   -0.1064   -0.6611 C   0  0  0  0  0  0  0  0  0  0  0  0
    1.8456   -1.2269    1.4459 C   0  0  0  0  0  0  0  0  0  0  0  0
   -9.9287   -1.5411    0.1822 C   0  0  0  0  0  0  0  0  0  0  0  0
    5.1430   -0.2219   -0.0815 C   0  0  0  0  0  0  0  0  0  0  0  0
    7.6717   -0.1270    0.0462 C   0  0  0  0  0  0  0  0  0  0  0  0
    8.8024   -0.4457    0.7982 C   0  0  0  0  0  0  0  0  0  0  0  0
    7.8100    0.5218   -1.1809 C   0  0  0  0  0  0  0  0  0  0  0  0
   10.0715   -0.1157    0.3231 C   0  0  0  0  0  0  0  0  0  0  0  0
    9.0792    0.8519   -1.6558 C   0  0  0  0  0  0  0  0  0  0  0  0
   10.2100    0.5333   -0.9038 C   0  0  0  0  0  0  0  0  0  0  0  0
   -1.5691   -2.5261   -1.2437 H   0  0  0  0  0  0  0  0  0  0  0  0
   -5.2393    2.8493    0.9538 H   0  0  0  0  0  0  0  0  0  0  0  0
   -7.2384    0.5726    1.5614 H   0  0  0  0  0  0  0  0  0  0  0  0
   -6.1553    0.4147   -2.6136 H   0  0  0  0  0  0  0  0  0  0  0  0
  -10.2663    0.4958   -0.4938 H   0  0  0  0  0  0  0  0  0  0  0  0
   -9.6652    0.3636    1.1703 H   0  0  0  0  0  0  0  0  0  0  0  0
    0.4744    0.3808   -1.8051 H   0  0  0  0  0  0  0  0  0  0  0  0
   -0.1999   -1.6209    1.9591 H   0  0  0  0  0  0  0  0  0  0  0  0
    2.8353    0.3352   -1.4348 H   0  0  0  0  0  0  0  0  0  0  0  0
    2.2203   -1.6789    2.3608 H   0  0  0  0  0  0  0  0  0  0  0  0
   -0.0904    1.4910    1.1564 H   0  0  0  0  0  0  0  0  0  0  0  0
   -0.8357    2.9274    1.7872 H   0  0  0  0  0  0  0  0  0  0  0  0
   -9.8668   -1.9737   -0.8218 H   0  0  0  0  0  0  0  0  0  0  0  0
  -10.9420   -1.6879    0.5683 H   0  0  0  0  0  0  0  0  0  0  0  0
    4.3848   -1.1516    1.6101 H   0  0  0  0  0  0  0  0  0  0  0  0
   -9.2727   -3.1719    1.0117 H   0  0  0  0  0  0  0  0  0  0  0  0
    6.3664   -0.9317    1.4306 H   0  0  0  0  0  0  0  0  0  0  0  0
    8.7089   -0.9512    1.7559 H   0  0  0  0  0  0  0  0  0  0  0  0
    6.9857    0.8020   -1.8208 H   0  0  0  0  0  0  0  0  0  0  0  0
    9.1886    1.3571   -2.6112 H   0  0  0  0  0  0  0  0  0  0  0  0
   11.1983    0.7901   -1.2735 H   0  0  0  0  0  0  0  0  0  0  0  0
  1 12  1  0  0  0  0
  1 18  1  0  0  0  0
  2 33  1  0  0  0  0
  3 28  1  0  0  0  0
  3 51  1  0  0  0  0
  4 29  2  0  0  0  0
  5  7  1  0  0  0  0
  5 20  1  0  0  0  0
  5 22  1  0  0  0  0
  6 17  2  0  0  0  0
  6 19  1  0  0  0  0
  7 21  2  0  0  0  0
  8 17  1  0  0  0  0
  8 46  1  0  0  0  0
  8 47  1  0  0  0  0
  9 25  1  0  0  0  0
  9 29  1  0  0  0  0
  9 50  1  0  0  0  0
 10 29  1  0  0  0  0
 10 30  1  0  0  0  0
 10 52  1  0  0  0  0
 11 12  2  0  0  0  0
 11 13  1  0  0  0  0
 11 17  1  0  0  0  0
 12 14  1  0  0  0  0
 13 16  1  0  0  0  0
 13 18  2  0  0  0  0
 14 15  1  0  0  0  0
 14 19  2  0  0  0  0
 15 20  2  0  0  0  0
 15 21  1  0  0  0  0
 16 23  2  0  0  0  0
 16 24  1  0  0  0  0
 18 36  1  0  0  0  0
 19 37  1  0  0  0  0
 20 38  1  0  0  0  0
 21 39  1  0  0  0  0
 22 28  1  0  0  0  0
 22 40  1  0  0  0  0
 22 41  1  0  0  0  0
 23 26  1  0  0  0  0
 23 42  1  0  0  0  0
 24 27  2  0  0  0  0
 24 43  1  0  0  0  0
 25 26  2  0  0  0  0
 25 27  1  0  0  0  0
 26 44  1  0  0  0  0
 27 45  1  0  0  0  0
 28 48  1  0  0  0  0
 28 49  1  0  0  0  0
 30 31  2  0  0  0  0
 30 32  1  0  0  0  0
 31 33  1  0  0  0  0
 31 53  1  0  0  0  0
 32 34  2  0  0  0  0
 32 54  1  0  0  0  0
 33 35  2  0  0  0  0
 34 35  1  0  0  0  0
 34 55  1  0  0  0  0
 35 56  1  0  0  0  0
M  END
> <PUBCHEM_COMPOUND_CID>
46207586

> <PUBCHEM_CONFORMER_RMSD>
1

> <PUBCHEM_CONFORMER_DIVERSEORDER>
1
19
55
59
52
72
16
36
67
45
22
14
47
61
34
50
41
38
58
32
15
75
63
69
6
24
5
48
12
57
68
11
43
74
20
8
54
73
65
17
64
33
28
66
40
18
46
31
26
27
35
56
49
60
9
21
25
44
30
23
10
42
70
39
13
29
7
37
62
2
4
53
71
3
51

> <PUBCHEM_MMFF94_PARTIAL_CHARGES>
51
1 -0.08
10 -0.55
12 0.04
13 -0.05
14 0.05
15 -0.05
16 0.05
17 0.41
18 -0.11
19 0.16
2 -0.19
20 -0.3
21 0.14
22 0.26
23 -0.15
24 -0.15
25 0.12
26 -0.15
27 -0.15
28 0.28
29 0.69
3 -0.68
30 0.12
31 -0.15
32 -0.15
33 0.19
34 -0.15
35 -0.15
36 0.15
37 0.15
38 0.15
39 0.15
4 -0.57
42 0.15
43 0.15
44 0.15
45 0.15
46 0.4
47 0.4
5 0.31
50 0.37
51 0.4
52 0.37
53 0.15
54 0.15
55 0.15
56 0.15
6 -0.62
7 -0.71
8 -0.9
9 -0.55

> <PUBCHEM_EFFECTIVE_ROTOR_COUNT>
8

> <PUBCHEM_PHARMACOPHORE_FEATURES>
13
1 10 donor
1 3 acceptor
1 3 donor
1 4 acceptor
1 7 acceptor
1 8 donor
1 9 donor
3 6 8 17 cation
5 1 11 12 13 18 rings
5 5 7 15 20 21 rings
6 16 23 24 25 26 27 rings
6 30 31 32 33 34 35 rings
6 6 11 12 14 17 19 rings

> <PUBCHEM_HEAVY_ATOM_COUNT>
35

> <PUBCHEM_ATOM_DEF_STEREO_COUNT>
0

> <PUBCHEM_ATOM_UDEF_STEREO_COUNT>
0

> <PUBCHEM_BOND_DEF_STEREO_COUNT>
0

> <PUBCHEM_BOND_UDEF_STEREO_COUNT>
0

> <PUBCHEM_ISOTOPIC_ATOM_COUNT>
0

> <PUBCHEM_COMPONENT_COUNT>
1

> <PUBCHEM_CACTVS_TAUTO_COUNT>
6

> <PUBCHEM_CONFORMER_ID>
02C1126200000001

> <PUBCHEM_MMFF94_ENERGY>
99.8063

> <PUBCHEM_FEATURE_SELFOVERLAP>
66.087

> <PUBCHEM_SHAPE_FINGERPRINT>
10 15 15719391733532999666
10076449 9 17489588956934894545
10162869 55 17676489462441487774
10674148 151 13901907813001968431
10883706 142 18187082846034775418
11315181 36 18333454243979821985
12013929 2 15502374505404689712
12013929 94 18259988206693516635
12082328 90 14620800371045766272
12089408 11 18336827507241719744
12664476 115 17989201547723936640
12758862 11 17417804084894378090
14118638 360 18059297557140879218
14251764 46 17530964683284176478
14344974 52 18341611564381747664
15065858 18 14345798262227048288
15183329 4 18202569463211926160
15392192 104 18113614578357255258
15419008 47 16773791481896345864
15461852 350 17775282776830446036
15510794 2 14779263082452987098
1577012 14 18268711619144569704
15840311 113 16443070513375361206
17686467 74 18413385441143515433
18335252 98 17918277527971168542
20105231 36 17775565355967634175
21267235 1 18131349713887393089
21362267 2 18338781412789292660
21362267 313 16806432622943598192
21591340 7 17821447967725682186
21792961 116 16845578595825906902
232437 2 17530682108843473210
249057 3 18131067160631025100
3092352 35 18333167263673228738
335352 9 18201714059838938093
335507 130 17704071798114130069
3525247 94 17967248694079097786
4017518 198 16343981417141288575
44389302 135 8358264714609148044
5028188 123 16773791503339402965
5381727 24 17676205779841336562
59521270 166 9511468818829766515
636775 8 18411701020090579591
6691757 9 18412554214526467291
67123 10 17748826319257896414
9663363 56 18131912655693880781

> <PUBCHEM_SHAPE_MULTIPOLES>
675.23
38.66
1.65
1.35
46.76
0.36
-0.19
-2.68
-3.93
-3.11
0.53
0.46
0.05
-1.28

> <PUBCHEM_SHAPE_SELFOVERLAP>
1486.62

> <PUBCHEM_SHAPE_VOLUME>
369

> <PUBCHEM_COORDINATE_TYPE>
2
5
10

$$$$
