44278104
  -OEChem-10052115193D

 64 66  0     1  0  0  0  0  0999 V2000
   -0.1497   -3.8242    2.9829 Cl  0  0  0  0  0  0  0  0  0  0  0  0
   -2.3328   -2.4555   -1.5599 O   0  0  0  0  0  0  0  0  0  0  0  0
   -2.5735    0.4057   -0.4496 N   0  0  1  0  0  0  0  0  0  0  0  0
   -3.7347    1.2290   -0.6864 N   0  0  1  0  0  0  0  0  0  0  0  0
   -0.2655    2.1131   -1.1839 N   0  0  0  0  0  0  0  0  0  0  0  0
   -1.2571   -2.2858    0.4976 N   0  0  0  0  0  0  0  0  0  0  0  0
    3.2576   -0.6973   -2.1065 N   0  0  0  0  0  0  0  0  0  0  0  0
    4.8008    0.5261   -3.3287 N   0  0  0  0  0  0  0  0  0  0  0  0
    5.4125   -0.1051   -1.2257 N   0  0  0  0  0  0  0  0  0  0  0  0
   -1.1837    2.4136   -0.0737 C   0  0  2  0  0  0  0  0  0  0  0  0
   -1.7107    1.0836    0.5257 C   0  0  0  0  0  0  0  0  0  0  0  0
   -3.1202   -0.8635    0.0283 C   0  0  1  0  0  0  0  0  0  0  0  0
   -2.3741    3.2467   -0.6075 C   0  0  0  0  0  0  0  0  0  0  0  0
   -3.3316    2.4018   -1.4627 C   0  0  0  0  0  0  0  0  0  0  0  0
   -4.6392    0.3439   -1.4108 C   0  0  0  0  0  0  0  0  0  0  0  0
   -4.4984   -0.9540   -0.6264 C   0  0  0  0  0  0  0  0  0  0  0  0
   -0.4141    3.2070    0.9899 C   0  0  0  0  0  0  0  0  0  0  0  0
   -2.2062   -1.9441   -0.4505 C   0  0  0  0  0  0  0  0  0  0  0  0
    0.7480    2.4211    1.5258 C   0  0  0  0  0  0  0  0  0  0  0  0
   -0.2684   -3.3191    0.2898 C   0  0  1  0  0  0  0  0  0  0  0  0
    0.5770    1.5924    2.6346 C   0  0  0  0  0  0  0  0  0  0  0  0
    1.9980    2.5197    0.9148 C   0  0  0  0  0  0  0  0  0  0  0  0
    1.1526   -2.7333    0.3532 C   0  0  0  0  0  0  0  0  0  0  0  0
   -0.4272   -4.4315    1.3292 C   0  0  0  0  0  0  0  0  0  0  0  0
    1.6561    0.8621    3.1327 C   0  0  0  0  0  0  0  0  0  0  0  0
    3.0771    1.7896    1.4127 C   0  0  0  0  0  0  0  0  0  0  0  0
    1.5382   -1.9832   -0.9294 C   0  0  0  0  0  0  0  0  0  0  0  0
    2.9062    0.9608    2.5218 C   0  0  0  0  0  0  0  0  0  0  0  0
    2.9383   -1.3825   -0.8529 C   0  0  0  0  0  0  0  0  0  0  0  0
    4.4245   -0.1371   -2.1845 C   0  0  0  0  0  0  0  0  0  0  0  0
   -0.8753    0.4150    0.7550 H   0  0  0  0  0  0  0  0  0  0  0  0
   -2.2552    1.2745    1.4611 H   0  0  0  0  0  0  0  0  0  0  0  0
   -3.2400   -0.9005    1.1193 H   0  0  0  0  0  0  0  0  0  0  0  0
   -2.0216    4.1069   -1.1908 H   0  0  0  0  0  0  0  0  0  0  0  0
   -2.9366    3.6613    0.2407 H   0  0  0  0  0  0  0  0  0  0  0  0
   -4.2133    3.0087   -1.7009 H   0  0  0  0  0  0  0  0  0  0  0  0
   -2.8611    2.1272   -2.4156 H   0  0  0  0  0  0  0  0  0  0  0  0
   -4.3235    0.1868   -2.4507 H   0  0  0  0  0  0  0  0  0  0  0  0
   -5.6699    0.7117   -1.4083 H   0  0  0  0  0  0  0  0  0  0  0  0
   -5.2654   -0.9837    0.1586 H   0  0  0  0  0  0  0  0  0  0  0  0
   -4.6565   -1.8244   -1.2707 H   0  0  0  0  0  0  0  0  0  0  0  0
   -1.0791    3.4828    1.8195 H   0  0  0  0  0  0  0  0  0  0  0  0
   -0.0545    4.1611    0.5800 H   0  0  0  0  0  0  0  0  0  0  0  0
    0.0109    2.9762   -1.6503 H   0  0  0  0  0  0  0  0  0  0  0  0
   -0.7365    1.5439   -1.8852 H   0  0  0  0  0  0  0  0  0  0  0  0
   -1.2476   -1.8019    1.3908 H   0  0  0  0  0  0  0  0  0  0  0  0
   -0.4247   -3.7709   -0.6970 H   0  0  0  0  0  0  0  0  0  0  0  0
   -0.3871    1.5121    3.1295 H   0  0  0  0  0  0  0  0  0  0  0  0
    2.1505    3.1674    0.0556 H   0  0  0  0  0  0  0  0  0  0  0  0
    1.8800   -3.5423    0.4980 H   0  0  0  0  0  0  0  0  0  0  0  0
    1.2543   -2.0491    1.2049 H   0  0  0  0  0  0  0  0  0  0  0  0
    0.2831   -5.2449    1.1511 H   0  0  0  0  0  0  0  0  0  0  0  0
   -1.4395   -4.8476    1.3031 H   0  0  0  0  0  0  0  0  0  0  0  0
    1.4808   -2.6663   -1.7861 H   0  0  0  0  0  0  0  0  0  0  0  0
    0.8152   -1.1808   -1.1220 H   0  0  0  0  0  0  0  0  0  0  0  0
    1.5233    0.2175    3.9965 H   0  0  0  0  0  0  0  0  0  0  0  0
    4.0508    1.8676    0.9382 H   0  0  0  0  0  0  0  0  0  0  0  0
    3.7463    0.3917    2.9087 H   0  0  0  0  0  0  0  0  0  0  0  0
    3.6603   -2.1877   -0.6695 H   0  0  0  0  0  0  0  0  0  0  0  0
    2.9796   -0.6825   -0.0142 H   0  0  0  0  0  0  0  0  0  0  0  0
    4.1777    0.5894   -4.1263 H   0  0  0  0  0  0  0  0  0  0  0  0
    5.7085    0.9711   -3.4096 H   0  0  0  0  0  0  0  0  0  0  0  0
    5.3003   -0.5431   -0.3184 H   0  0  0  0  0  0  0  0  0  0  0  0
    6.2928    0.3685   -1.3981 H   0  0  0  0  0  0  0  0  0  0  0  0
  1 24  1  0  0  0  0
  2 18  2  0  0  0  0
  3  4  1  0  0  0  0
  3 11  1  0  0  0  0
  3 12  1  0  0  0  0
  4 14  1  0  0  0  0
  4 15  1  0  0  0  0
  5 10  1  0  0  0  0
  5 44  1  0  0  0  0
  5 45  1  0  0  0  0
  6 18  1  0  0  0  0
  6 20  1  0  0  0  0
  6 46  1  0  0  0  0
  7 29  1  0  0  0  0
  7 30  2  0  0  0  0
  8 30  1  0  0  0  0
  8 61  1  0  0  0  0
  8 62  1  0  0  0  0
  9 30  1  0  0  0  0
  9 63  1  0  0  0  0
  9 64  1  0  0  0  0
 10 11  1  0  0  0  0
 10 13  1  0  0  0  0
 10 17  1  0  0  0  0
 11 31  1  0  0  0  0
 11 32  1  0  0  0  0
 12 16  1  0  0  0  0
 12 18  1  0  0  0  0
 12 33  1  0  0  0  0
 13 14  1  0  0  0  0
 13 34  1  0  0  0  0
 13 35  1  0  0  0  0
 14 36  1  0  0  0  0
 14 37  1  0  0  0  0
 15 16  1  0  0  0  0
 15 38  1  0  0  0  0
 15 39  1  0  0  0  0
 16 40  1  0  0  0  0
 16 41  1  0  0  0  0
 17 19  1  0  0  0  0
 17 42  1  0  0  0  0
 17 43  1  0  0  0  0
 19 21  2  0  0  0  0
 19 22  1  0  0  0  0
 20 23  1  0  0  0  0
 20 24  1  0  0  0  0
 20 47  1  0  0  0  0
 21 25  1  0  0  0  0
 21 48  1  0  0  0  0
 22 26  2  0  0  0  0
 22 49  1  0  0  0  0
 23 27  1  0  0  0  0
 23 50  1  0  0  0  0
 23 51  1  0  0  0  0
 24 52  1  0  0  0  0
 24 53  1  0  0  0  0
 25 28  2  0  0  0  0
 25 56  1  0  0  0  0
 26 28  1  0  0  0  0
 26 57  1  0  0  0  0
 27 29  1  0  0  0  0
 27 54  1  0  0  0  0
 27 55  1  0  0  0  0
 28 58  1  0  0  0  0
 29 59  1  0  0  0  0
 29 60  1  0  0  0  0
M  END
> <PUBCHEM_COMPOUND_CID>
44278104

> <PUBCHEM_CONFORMER_RMSD>
1.2

> <PUBCHEM_CONFORMER_DIVERSEORDER>
1
61
28
51
37
124
63
42
102
55
80
114
59
29
43
110
135
19
138
73
130
76
38
104
108
117
68
17
60
79
120
26
21
52
69
134
123
32
93
78
20
34
122
87
41
6
10
11
22
125
105
103
57
9
91
53
18
107
67
89
8
62
109
88
40
141
98
119
95
83
126
86
23
66
94
50
131
31
24
128
136
46
36
75
64
137
45
74
72
65
44
39
7
90
58
106
49
5
96
77
115
35
25
81
54
70
15
3
127
118
116
71
33
30
132
99
2
142
129
48
84
121
56
100
4
82
14
47
13
12
92
97
27
111
133
112
113
140
85
101
16
139

> <PUBCHEM_MMFF94_PARTIAL_CHARGES>
38
1 -0.29
10 0.27
11 0.27
12 0.33
14 0.27
15 0.27
17 0.14
18 0.57
19 -0.14
2 -0.57
20 0.3
21 -0.15
22 -0.15
24 0.29
25 -0.15
26 -0.15
28 -0.15
29 0.25
3 -0.54
30 0.55
4 -0.54
44 0.36
45 0.36
46 0.37
48 0.15
49 0.15
5 -0.99
56 0.15
57 0.15
58 0.15
6 -0.73
61 0.4
62 0.4
63 0.4
64 0.4
7 -0.7
8 -0.85
9 -0.85

> <PUBCHEM_EFFECTIVE_ROTOR_COUNT>
11.4

> <PUBCHEM_PHARMACOPHORE_FEATURES>
10
1 2 acceptor
1 5 cation
1 5 donor
1 6 donor
1 8 donor
1 9 donor
4 7 8 9 30 cation
5 3 4 12 15 16 rings
6 19 21 22 25 26 28 rings
6 3 4 10 11 13 14 rings

> <PUBCHEM_HEAVY_ATOM_COUNT>
30

> <PUBCHEM_ATOM_DEF_STEREO_COUNT>
3

> <PUBCHEM_ATOM_UDEF_STEREO_COUNT>
0

> <PUBCHEM_BOND_DEF_STEREO_COUNT>
0

> <PUBCHEM_BOND_UDEF_STEREO_COUNT>
0

> <PUBCHEM_ISOTOPIC_ATOM_COUNT>
0

> <PUBCHEM_COMPONENT_COUNT>
1

> <PUBCHEM_CACTVS_TAUTO_COUNT>
4

> <PUBCHEM_CONFORMER_ID>
02A3A15800000001

> <PUBCHEM_MMFF94_ENERGY>
62.3313

> <PUBCHEM_FEATURE_SELFOVERLAP>
50.899

> <PUBCHEM_SHAPE_FINGERPRINT>
10032420 55 18410851044944064742
12156800 1 17751924872280066322
13122387 1 17334469637429074227
13402501 40 18130218371961385816
13617811 41 18188765038474932357
13947920 24 18123214509010773836
14114211 68 18047779025561418583
14251757 17 18131350787286176052
14931854 50 18269277871932987108
14932702 115 18123214504409962100
20531524 4 18340760533359352434
20600515 1 17972299979108333140
20642791 35 18201148859533767037
20764821 26 18195222478157449145
20905425 154 18126815301541960739
23559900 14 18343012315867321701
238918 7 17772161332275978472
3052486 1 18334565842146670184
469060 322 17683571407940025386
484985 159 12604895129302423892
508706 21 18268978950767587846
6823239 73 18272363191907806640

> <PUBCHEM_SHAPE_MULTIPOLES>
578.52
7.85
5.3
3.03
1.85
3.68
-0.54
-1.75
6.98
-1.61
-2.71
4.26
0.1
1.46

> <PUBCHEM_SHAPE_SELFOVERLAP>
1184.624

> <PUBCHEM_SHAPE_VOLUME>
334.5

> <PUBCHEM_COORDINATE_TYPE>
2
5
10

$$$$
