49830555
  -OEChem-10062121543D

 59 62  0     0  0  0  0  0  0999 V2000
   -1.2399    3.0982   -0.8123 S   0  0  0  0  0  0  0  0  0  0  0  0
    9.5257   -2.7657   -0.3696 F   0  0  0  0  0  0  0  0  0  0  0  0
   -1.2978    4.1041    0.2402 O   0  0  0  0  0  0  0  0  0  0  0  0
   -1.4654    3.4902   -2.1968 O   0  0  0  0  0  0  0  0  0  0  0  0
    0.5720    2.4081    1.6097 O   0  0  0  0  0  0  0  0  0  0  0  0
   -5.0639   -1.2428    0.4364 N   0  0  0  0  0  0  0  0  0  0  0  0
   -4.0208    0.3525    2.5308 N   0  0  0  0  0  0  0  0  0  0  0  0
    0.2687    2.2810   -0.7098 N   0  0  0  0  0  0  0  0  0  0  0  0
   -5.6405   -2.0995   -0.5828 C   0  0  0  0  0  0  0  0  0  0  0  0
   -6.1252   -3.4103    0.0449 C   0  0  0  0  0  0  0  0  0  0  0  0
   -6.7763   -1.3675   -1.3048 C   0  0  0  0  0  0  0  0  0  0  0  0
   -7.3688   -3.2259    0.9150 C   0  0  0  0  0  0  0  0  0  0  0  0
   -8.0169   -1.1900   -0.4291 C   0  0  0  0  0  0  0  0  0  0  0  0
   -8.4870   -2.5174    0.1573 C   0  0  0  0  0  0  0  0  0  0  0  0
   -4.1700   -0.2241    0.1618 C   0  0  0  0  0  0  0  0  0  0  0  0
   -3.6483    0.5676    1.1849 C   0  0  0  0  0  0  0  0  0  0  0  0
   -3.7898    0.0054   -1.1605 C   0  0  0  0  0  0  0  0  0  0  0  0
   -2.7464    1.5886    0.8858 C   0  0  0  0  0  0  0  0  0  0  0  0
   -2.3661    1.8179   -0.4365 C   0  0  0  0  0  0  0  0  0  0  0  0
   -2.8877    1.0263   -1.4597 C   0  0  0  0  0  0  0  0  0  0  0  0
    0.9774    2.0484    0.5118 C   0  0  0  0  0  0  0  0  0  0  0  0
    2.2655    1.3223    0.3792 C   0  0  0  0  0  0  0  0  0  0  0  0
    4.6859   -0.0424    0.1304 C   0  0  0  0  0  0  0  0  0  0  0  0
    3.2762    1.5174    1.3207 C   0  0  0  0  0  0  0  0  0  0  0  0
    2.4651    0.4449   -0.6867 C   0  0  0  0  0  0  0  0  0  0  0  0
    4.4863    0.8350    1.1962 C   0  0  0  0  0  0  0  0  0  0  0  0
    3.6753   -0.2373   -0.8111 C   0  0  0  0  0  0  0  0  0  0  0  0
    5.9412   -0.7500    0.0010 C   0  0  0  0  0  0  0  0  0  0  0  0
    6.6767   -1.0803    1.1394 C   0  0  0  0  0  0  0  0  0  0  0  0
    6.4166   -1.1008   -1.2625 C   0  0  0  0  0  0  0  0  0  0  0  0
    7.8876   -1.7610    1.0142 C   0  0  0  0  0  0  0  0  0  0  0  0
    7.6276   -1.7815   -1.3878 C   0  0  0  0  0  0  0  0  0  0  0  0
    8.3631   -2.1115   -0.2495 C   0  0  0  0  0  0  0  0  0  0  0  0
   -4.8719   -2.3969   -1.3062 H   0  0  0  0  0  0  0  0  0  0  0  0
   -6.3619   -4.1222   -0.7565 H   0  0  0  0  0  0  0  0  0  0  0  0
   -5.3274   -3.8640    0.6455 H   0  0  0  0  0  0  0  0  0  0  0  0
   -7.0591   -1.9525   -2.1899 H   0  0  0  0  0  0  0  0  0  0  0  0
   -6.4669   -0.3844   -1.6742 H   0  0  0  0  0  0  0  0  0  0  0  0
   -7.1183   -2.6557    1.8171 H   0  0  0  0  0  0  0  0  0  0  0  0
   -7.7229   -4.2062    1.2544 H   0  0  0  0  0  0  0  0  0  0  0  0
   -8.8239   -0.7465   -1.0236 H   0  0  0  0  0  0  0  0  0  0  0  0
   -7.7993   -0.4864    0.3836 H   0  0  0  0  0  0  0  0  0  0  0  0
   -8.8471   -3.1657   -0.6511 H   0  0  0  0  0  0  0  0  0  0  0  0
   -9.3355   -2.3442    0.8287 H   0  0  0  0  0  0  0  0  0  0  0  0
   -5.4009   -1.3422    1.3847 H   0  0  0  0  0  0  0  0  0  0  0  0
   -4.1536   -0.5746   -2.0014 H   0  0  0  0  0  0  0  0  0  0  0  0
   -2.3426    2.1991    1.6897 H   0  0  0  0  0  0  0  0  0  0  0  0
   -2.5997    1.1824   -2.4955 H   0  0  0  0  0  0  0  0  0  0  0  0
   -4.6458   -0.3957    2.7913 H   0  0  0  0  0  0  0  0  0  0  0  0
   -3.6254    0.9375    3.2555 H   0  0  0  0  0  0  0  0  0  0  0  0
    0.7149    2.0610   -1.6083 H   0  0  0  0  0  0  0  0  0  0  0  0
    3.1417    2.2051    2.1515 H   0  0  0  0  0  0  0  0  0  0  0  0
    1.6900    0.2382   -1.4189 H   0  0  0  0  0  0  0  0  0  0  0  0
    5.2552    1.0426    1.9353 H   0  0  0  0  0  0  0  0  0  0  0  0
    3.7719   -0.9381   -1.6360 H   0  0  0  0  0  0  0  0  0  0  0  0
    6.3319   -0.8552    2.1449 H   0  0  0  0  0  0  0  0  0  0  0  0
    5.8944   -0.8381   -2.1784 H   0  0  0  0  0  0  0  0  0  0  0  0
    8.4577   -2.0245    1.9002 H   0  0  0  0  0  0  0  0  0  0  0  0
    8.0019   -2.0491   -2.3715 H   0  0  0  0  0  0  0  0  0  0  0  0
  1  3  2  0  0  0  0
  1  4  2  0  0  0  0
  1  8  1  0  0  0  0
  1 19  1  0  0  0  0
  2 33  1  0  0  0  0
  5 21  2  0  0  0  0
  6  9  1  0  0  0  0
  6 15  1  0  0  0  0
  6 45  1  0  0  0  0
  7 16  1  0  0  0  0
  7 49  1  0  0  0  0
  7 50  1  0  0  0  0
  8 21  1  0  0  0  0
  8 51  1  0  0  0  0
  9 10  1  0  0  0  0
  9 11  1  0  0  0  0
  9 34  1  0  0  0  0
 10 12  1  0  0  0  0
 10 35  1  0  0  0  0
 10 36  1  0  0  0  0
 11 13  1  0  0  0  0
 11 37  1  0  0  0  0
 11 38  1  0  0  0  0
 12 14  1  0  0  0  0
 12 39  1  0  0  0  0
 12 40  1  0  0  0  0
 13 14  1  0  0  0  0
 13 41  1  0  0  0  0
 13 42  1  0  0  0  0
 14 43  1  0  0  0  0
 14 44  1  0  0  0  0
 15 16  2  0  0  0  0
 15 17  1  0  0  0  0
 16 18  1  0  0  0  0
 17 20  2  0  0  0  0
 17 46  1  0  0  0  0
 18 19  2  0  0  0  0
 18 47  1  0  0  0  0
 19 20  1  0  0  0  0
 20 48  1  0  0  0  0
 21 22  1  0  0  0  0
 22 24  2  0  0  0  0
 22 25  1  0  0  0  0
 23 26  2  0  0  0  0
 23 27  1  0  0  0  0
 23 28  1  0  0  0  0
 24 26  1  0  0  0  0
 24 52  1  0  0  0  0
 25 27  2  0  0  0  0
 25 53  1  0  0  0  0
 26 54  1  0  0  0  0
 27 55  1  0  0  0  0
 28 29  2  0  0  0  0
 28 30  1  0  0  0  0
 29 31  1  0  0  0  0
 29 56  1  0  0  0  0
 30 32  2  0  0  0  0
 30 57  1  0  0  0  0
 31 33  2  0  0  0  0
 31 58  1  0  0  0  0
 32 33  1  0  0  0  0
 32 59  1  0  0  0  0
M  END
> <PUBCHEM_COMPOUND_CID>
49830555

> <PUBCHEM_CONFORMER_RMSD>
1

> <PUBCHEM_CONFORMER_DIVERSEORDER>
2
36
113
90
81
61
70
47
51
41
93
67
109
38
131
98
121
23
54
129
13
125
65
60
103
134
42
108
107
97
110
87
72
64
75
9
34
106
117
79
40
130
48
127
31
20
28
135
77
128
59
49
68
124
94
120
58
37
126
83
122
133
92
78
80
96
50
45
33
85
112
111
86
99
74
88
91
62
52
84
21
10
119
89
105
123
16
116
44
56
102
43
132
100
114
57
136
30
8
6
63
82
66
95
118
39
73
115
27
76
101
71
55
18
104
5
32
19
26
138
25
46
15
69
29
7
24
17
12
35
14
137
11
22
4
1
3
53

> <PUBCHEM_MMFF94_PARTIAL_CHARGES>
41
1 1.45
15 0.1
16 0.1
17 -0.15
18 -0.15
19 -0.01
2 -0.19
20 -0.15
21 0.72
22 0.09
24 -0.15
25 -0.15
26 -0.15
27 -0.15
29 -0.15
3 -0.65
30 -0.15
31 -0.15
32 -0.15
33 0.19
4 -0.65
45 0.4
46 0.15
47 0.15
48 0.15
49 0.4
5 -0.57
50 0.4
51 0.42
52 0.15
53 0.15
54 0.15
55 0.15
56 0.15
57 0.15
58 0.15
59 0.15
6 -0.87
7 -0.9
8 -0.79
9 0.37

> <PUBCHEM_EFFECTIVE_ROTOR_COUNT>
8.2

> <PUBCHEM_PHARMACOPHORE_FEATURES>
12
1 3 acceptor
1 4 acceptor
1 5 acceptor
1 6 cation
1 6 donor
1 7 cation
1 7 donor
1 8 donor
6 15 16 17 18 19 20 rings
6 22 23 24 25 26 27 rings
6 28 29 30 31 32 33 rings
6 9 10 11 12 13 14 rings

> <PUBCHEM_HEAVY_ATOM_COUNT>
33

> <PUBCHEM_ATOM_DEF_STEREO_COUNT>
0

> <PUBCHEM_ATOM_UDEF_STEREO_COUNT>
0

> <PUBCHEM_BOND_DEF_STEREO_COUNT>
0

> <PUBCHEM_BOND_UDEF_STEREO_COUNT>
0

> <PUBCHEM_ISOTOPIC_ATOM_COUNT>
0

> <PUBCHEM_COMPONENT_COUNT>
1

> <PUBCHEM_CACTVS_TAUTO_COUNT>
2

> <PUBCHEM_CONFORMER_ID>
02F85A9B00000002

> <PUBCHEM_MMFF94_ENERGY>
92.9395

> <PUBCHEM_FEATURE_SELFOVERLAP>
60.922

> <PUBCHEM_SHAPE_FINGERPRINT>
10864689 126 18334287700307947547
10952577 141 15938078991718741437
11135609 201 10519714367181871117
11273773 46 18335417994214032879
11393246 34 18411699872199772133
11409948 8 18130212836692924074
117089 54 18410298016481537242
11756154 67 18409732889180235135
11761917 87 18116443725392840827
11963148 33 18337667496099402046
11973864 48 17418100885348044846
12013929 27 18262805052346498750
12013929 94 18341049637285118770
12047536 79 14475863809234542947
12342043 65 18271798038863568376
12539747 164 18334019380931680569
12895837 130 7997964670263047721
12988421 55 12319457654029182705
13383665 225 14708301723616778807
13631057 29 18334574595189916104
13673619 4 18342173371320331064
13782708 43 18410854318605942528
13947947 140 18201720639275719839
14068700 675 18187083948860494644
14359421 15 17894905244161199779
14565420 104 11671522096590968053
14931854 50 17022617585257254945
15064986 96 16414929521709278693
15152005 77 18201717371280849455
15183329 4 16008754559743702480
15350500 55 9727641604827216531
15510800 12 18413666915671482175
15685185 35 9079113354592084267
15773216 30 18192153913826958020
15803439 3 14562529595762628832
16120349 189 9223234048388505449
16120349 21 18411141347107229033
16126227 98 9295290547631402167
16992779 147 16198723930910150592
16994733 274 9007068946351135893
1768 4 8142089797436941975
18643901 69 18334012770512619405
19246450 95 16845300402346434105
19302320 297 10952045676134298626
19438510 23 8754557862805225193
19841028 212 18335982072815029187
2026 5 18411698743104408674
20691028 202 10159703516291965994
20982279 24 17460603757145595363
21307412 95 17821731689160440315
21424621 283 9727642708496434301
21585481 104 15358522056956930503
21585483 132 17533199892167628802
23523788 1 17632311059267250391
25242607 90 18342731966340548643
25269216 80 16370723734709789911
255183 451 18334013913090627524
270888 7 9439412323839157801
3383291 50 18272649064900295982
3862424 121 17823431567911456443
393628 194 9655571911745590715
406291 66 18341611564007883423
4107672 100 17458896051808332189
42767 28 15213305260924142340
4330586 98 17677064516198324430
4339292 15 18335414643864910574
439807 62 18408321098932813615
4461854 278 17346878975085522750
44880168 125 18129649915659957511
4516262 110 9439139611339315827
474113 269 17846490470672441765
484985 159 18339640036864805073
5372103 7 10665221553631171235
54039377 194 18341896286316895742
5470011 282 17821730580525913662
5718773 13 18412824698533816850
57303763 176 18273213064370544757
58260988 114 18201163156773611777
6009941 240 17631454462268386881
636775 8 18341054030693563838
6691757 9 13973954390169499741
6700243 42 17983606034477330660
6712543 237 16200439100076978055
9896288 288 17986959557325294569
9980921 177 9871203696211336020

> <PUBCHEM_SHAPE_MULTIPOLES>
643.15
28.04
4.2
1.6
17.31
1.28
0.15
-39.28
-0.92
-3.42
-0.41
-0.16
0.54
1.59

> <PUBCHEM_SHAPE_SELFOVERLAP>
1379.533

> <PUBCHEM_SHAPE_VOLUME>
358.4

> <PUBCHEM_COORDINATE_TYPE>
2
5
10

$$$$
