49830379
  -OEChem-10052115193D

 48 52  0     0  0  0  0  0  0999 V2000
    5.9347    1.4542    0.4209 S   0  0  0  0  0  0  0  0  0  0  0  0
   -2.8424   -1.2060    0.3349 O   0  0  0  0  0  0  0  0  0  0  0  0
   -2.0958    0.9632   -0.1406 N   0  0  0  0  0  0  0  0  0  0  0  0
    6.8691   -1.0044    0.1015 N   0  0  0  0  0  0  0  0  0  0  0  0
    5.3424   -2.8226   -0.3419 N   0  0  0  0  0  0  0  0  0  0  0  0
    3.0601   -2.5577   -0.6793 N   0  0  0  0  0  0  0  0  0  0  0  0
   -4.3616    0.5140   -0.1152 N   0  0  0  0  0  0  0  0  0  0  0  0
    2.3559    3.0726   -0.4240 C   0  0  0  0  0  0  0  0  0  0  0  0
    3.5553    0.4954    0.1408 C   0  0  0  0  0  0  0  0  0  0  0  0
    3.6344    3.0351    0.4220 C   0  0  0  0  0  0  0  0  0  0  0  0
    1.4944    1.8480   -0.1890 C   0  0  0  0  0  0  0  0  0  0  0  0
    2.0892    0.5893    0.0773 C   0  0  0  0  0  0  0  0  0  0  0  0
    4.2560    1.6783    0.3156 C   0  0  0  0  0  0  0  0  0  0  0  0
    4.4535   -0.6264   -0.0018 C   0  0  0  0  0  0  0  0  0  0  0  0
    0.0999    1.9585   -0.2782 C   0  0  0  0  0  0  0  0  0  0  0  0
    1.2600   -0.5127    0.3145 C   0  0  0  0  0  0  0  0  0  0  0  0
    5.7763   -0.2185    0.1559 C   0  0  0  0  0  0  0  0  0  0  0  0
   -0.7078    0.8442   -0.0651 C   0  0  0  0  0  0  0  0  0  0  0  0
   -0.1294   -0.3850    0.2390 C   0  0  0  0  0  0  0  0  0  0  0  0
    4.2799   -1.9913   -0.2740 C   0  0  0  0  0  0  0  0  0  0  0  0
    6.5590   -2.2856   -0.1471 C   0  0  0  0  0  0  0  0  0  0  0  0
   -3.0807   -0.0354    0.0562 C   0  0  0  0  0  0  0  0  0  0  0  0
   -5.6113   -0.1403   -0.0071 C   0  0  0  0  0  0  0  0  0  0  0  0
   -6.8031    0.5557   -0.2095 C   0  0  0  0  0  0  0  0  0  0  0  0
   -5.6419   -1.4990    0.3065 C   0  0  0  0  0  0  0  0  0  0  0  0
   -8.0253   -0.1071   -0.0985 C   0  0  0  0  0  0  0  0  0  0  0  0
   -6.8007    2.0115   -0.5463 C   0  0  0  0  0  0  0  0  0  0  0  0
   -6.8642   -2.1621    0.4176 C   0  0  0  0  0  0  0  0  0  0  0  0
   -8.0559   -1.4661    0.2151 C   0  0  0  0  0  0  0  0  0  0  0  0
    1.8012    3.9879   -0.1863 H   0  0  0  0  0  0  0  0  0  0  0  0
    2.6103    3.1072   -1.4912 H   0  0  0  0  0  0  0  0  0  0  0  0
    4.3166    3.8251    0.0884 H   0  0  0  0  0  0  0  0  0  0  0  0
    3.3912    3.2292    1.4745 H   0  0  0  0  0  0  0  0  0  0  0  0
   -0.3502    2.9221   -0.5074 H   0  0  0  0  0  0  0  0  0  0  0  0
    1.6373   -1.4462    0.7109 H   0  0  0  0  0  0  0  0  0  0  0  0
   -0.6886   -1.2817    0.4661 H   0  0  0  0  0  0  0  0  0  0  0  0
   -2.4426    1.8928   -0.3643 H   0  0  0  0  0  0  0  0  0  0  0  0
    7.3945   -2.9743   -0.2018 H   0  0  0  0  0  0  0  0  0  0  0  0
    3.0648   -3.5454   -0.9026 H   0  0  0  0  0  0  0  0  0  0  0  0
    2.3804   -1.9775   -1.1495 H   0  0  0  0  0  0  0  0  0  0  0  0
   -4.3917    1.5026   -0.3450 H   0  0  0  0  0  0  0  0  0  0  0  0
   -4.7706   -2.1131    0.4790 H   0  0  0  0  0  0  0  0  0  0  0  0
   -8.9634    0.4194   -0.2529 H   0  0  0  0  0  0  0  0  0  0  0  0
   -7.8171    2.4010   -0.6717 H   0  0  0  0  0  0  0  0  0  0  0  0
   -6.2695    2.1882   -1.4875 H   0  0  0  0  0  0  0  0  0  0  0  0
   -6.3300    2.5913    0.2546 H   0  0  0  0  0  0  0  0  0  0  0  0
   -6.8896   -3.2202    0.6618 H   0  0  0  0  0  0  0  0  0  0  0  0
   -9.0076   -1.9823    0.3017 H   0  0  0  0  0  0  0  0  0  0  0  0
  1 13  1  0  0  0  0
  1 17  1  0  0  0  0
  2 22  2  0  0  0  0
  3 18  1  0  0  0  0
  3 22  1  0  0  0  0
  3 37  1  0  0  0  0
  4 17  2  0  0  0  0
  4 21  1  0  0  0  0
  5 20  1  0  0  0  0
  5 21  2  0  0  0  0
  6 20  1  0  0  0  0
  6 39  1  0  0  0  0
  6 40  1  0  0  0  0
  7 22  1  0  0  0  0
  7 23  1  0  0  0  0
  7 41  1  0  0  0  0
  8 10  1  0  0  0  0
  8 11  1  0  0  0  0
  8 30  1  0  0  0  0
  8 31  1  0  0  0  0
  9 12  1  0  0  0  0
  9 13  2  0  0  0  0
  9 14  1  0  0  0  0
 10 13  1  0  0  0  0
 10 32  1  0  0  0  0
 10 33  1  0  0  0  0
 11 12  2  0  0  0  0
 11 15  1  0  0  0  0
 12 16  1  0  0  0  0
 14 17  1  0  0  0  0
 14 20  2  0  0  0  0
 15 18  2  0  0  0  0
 15 34  1  0  0  0  0
 16 19  2  0  0  0  0
 16 35  1  0  0  0  0
 18 19  1  0  0  0  0
 19 36  1  0  0  0  0
 21 38  1  0  0  0  0
 23 24  1  0  0  0  0
 23 25  2  0  0  0  0
 24 26  2  0  0  0  0
 24 27  1  0  0  0  0
 25 28  1  0  0  0  0
 25 42  1  0  0  0  0
 26 29  1  0  0  0  0
 26 43  1  0  0  0  0
 27 44  1  0  0  0  0
 27 45  1  0  0  0  0
 27 46  1  0  0  0  0
 28 29  2  0  0  0  0
 28 47  1  0  0  0  0
 29 48  1  0  0  0  0
M  END
> <PUBCHEM_COMPOUND_CID>
49830379

> <PUBCHEM_CONFORMER_RMSD>
0.8

> <PUBCHEM_CONFORMER_DIVERSEORDER>
1
13
14
2
12
8
11
7
4
16
3
15
5
6
9
10

> <PUBCHEM_MMFF94_PARTIAL_CHARGES>
40
1 -0.08
10 0.18
11 -0.14
12 0.05
13 -0.14
15 -0.15
16 -0.15
17 0.3
18 0.12
19 -0.15
2 -0.57
20 0.41
21 0.47
22 0.69
23 0.12
24 -0.14
25 -0.15
26 -0.15
27 0.14
28 -0.15
29 -0.15
3 -0.55
34 0.15
35 0.15
36 0.15
37 0.37
38 0.15
39 0.4
4 -0.57
40 0.4
41 0.37
42 0.15
43 0.15
47 0.15
48 0.15
5 -0.62
6 -0.9
7 -0.55
8 0.14
9 -0.05

> <PUBCHEM_EFFECTIVE_ROTOR_COUNT>
4.4

> <PUBCHEM_PHARMACOPHORE_FEATURES>
12
1 2 acceptor
1 3 donor
1 4 acceptor
1 6 cation
1 6 donor
1 7 donor
3 4 5 21 cation
5 1 9 13 14 17 rings
6 11 12 15 16 18 19 rings
6 23 24 25 26 28 29 rings
6 4 5 14 17 20 21 rings
6 8 9 10 11 12 13 rings

> <PUBCHEM_HEAVY_ATOM_COUNT>
29

> <PUBCHEM_ATOM_DEF_STEREO_COUNT>
0

> <PUBCHEM_ATOM_UDEF_STEREO_COUNT>
0

> <PUBCHEM_BOND_DEF_STEREO_COUNT>
0

> <PUBCHEM_BOND_UDEF_STEREO_COUNT>
0

> <PUBCHEM_ISOTOPIC_ATOM_COUNT>
0

> <PUBCHEM_COMPONENT_COUNT>
1

> <PUBCHEM_CACTVS_TAUTO_COUNT>
12

> <PUBCHEM_CONFORMER_ID>
02F859EB00000001

> <PUBCHEM_MMFF94_ENERGY>
99.8641

> <PUBCHEM_FEATURE_SELFOVERLAP>
61.109

> <PUBCHEM_SHAPE_FINGERPRINT>
100830 39 18337107861860590429
10165383 225 18201151183639251512
10316853 100 18408325505870407362
10411042 1 18267585703186576458
10580692 12 18410292523882887057
117089 54 17842005377865179478
11719270 70 18202845452481977399
11991303 11 13695875856896303881
12166972 35 18341614841004568713
12236239 1 18273496793176411641
13383665 225 17967830335962514692
13533116 47 18272088326748829072
13685833 64 18410293605401956979
13782708 43 18040149608939374931
13885169 127 18408603635341459149
13989917 61 18412267263493191486
14170010 4 18411698803201535832
14400156 413 18270668874497445721
14856354 85 14851608787339901371
14933364 13 18408603678180316849
15183329 4 18040712559362061177
15352257 5 18408323289698703647
15361156 5 17968668219202961335
15419008 47 17822003199275272717
15419008 91 18189313771764707173
19841028 212 18263078821798783618
20028762 73 18343866593462856542
21049683 271 18409453592517081532
21130935 74 18341333383529012779
21197605 99 18342177799700937550
21267235 1 18341334414378958454
21279426 13 18334571318230193653
21315763 28 18411135862270448721
22224240 67 11887949947742140605
23559900 14 18410569626292805281
23569943 247 18045782286623469714
255183 451 18199478675749357438
3004659 81 18187363233440254873
3103668 31 17823410497161125317
335352 9 18409168826951083806
3633792 109 18411979123243526617
4073 2 18041563666881861547
4098825 35 18409446982166163241
4144715 1 18114749351729496697
4340502 62 14333412242117810988
46194498 28 17894627089214872460
465052 167 18343866606700465494
59755656 215 17894629236360643531
6441014 3 17333375597807346742
9831232 110 18409169874617564998
99344 41 18342175557965203895

> <PUBCHEM_SHAPE_MULTIPOLES>
569.88
23.88
3.11
0.69
35.82
0.15
0
-9.58
-0.42
-3.82
0.28
-0.03
0.02
1.48

> <PUBCHEM_SHAPE_SELFOVERLAP>
1263.5

> <PUBCHEM_SHAPE_VOLUME>
305.4

> <PUBCHEM_COORDINATE_TYPE>
2
5
10

$$$$
