623415
  -OEChem-10052120443D

 25 27  0     0  0  0  0  0  0999 V2000
   -3.4031    3.0920    0.0003 Br  0  0  0  0  0  0  0  0  0  0  0  0
   -1.0518   -2.4141   -0.0001 N   0  0  0  0  0  0  0  0  0  0  0  0
    0.2737   -2.1959    0.0004 N   0  0  0  0  0  0  0  0  0  0  0  0
   -0.8929   -0.2270   -0.0003 C   0  0  0  0  0  0  0  0  0  0  0  0
    0.3667   -0.8641   -0.0003 C   0  0  0  0  0  0  0  0  0  0  0  0
   -1.8085   -1.2734   -0.0001 C   0  0  0  0  0  0  0  0  0  0  0  0
    1.6606   -0.2298   -0.0002 C   0  0  0  0  0  0  0  0  0  0  0  0
   -1.3613    1.0974   -0.0006 C   0  0  0  0  0  0  0  0  0  0  0  0
   -3.1909   -1.0757    0.0002 C   0  0  0  0  0  0  0  0  0  0  0  0
   -2.7443    1.3177   -0.0001 C   0  0  0  0  0  0  0  0  0  0  0  0
    2.2820    0.0749    1.2079 C   0  0  0  0  0  0  0  0  0  0  0  0
    2.2822    0.0750   -1.2081 C   0  0  0  0  0  0  0  0  0  0  0  0
   -3.6418    0.2482    0.0004 C   0  0  0  0  0  0  0  0  0  0  0  0
    3.5343    0.6892    1.2082 C   0  0  0  0  0  0  0  0  0  0  0  0
    3.5346    0.6892   -1.2079 C   0  0  0  0  0  0  0  0  0  0  0  0
    4.1606    0.9963    0.0004 C   0  0  0  0  0  0  0  0  0  0  0  0
   -0.6609    1.9278   -0.0009 H   0  0  0  0  0  0  0  0  0  0  0  0
   -1.3783   -3.3723    0.0002 H   0  0  0  0  0  0  0  0  0  0  0  0
   -3.8863   -1.9076    0.0006 H   0  0  0  0  0  0  0  0  0  0  0  0
    1.8066   -0.1580    2.1577 H   0  0  0  0  0  0  0  0  0  0  0  0
    1.8070   -0.1577   -2.1580 H   0  0  0  0  0  0  0  0  0  0  0  0
   -4.7147    0.4291    0.0007 H   0  0  0  0  0  0  0  0  0  0  0  0
    4.0218    0.9284    2.1488 H   0  0  0  0  0  0  0  0  0  0  0  0
    4.0224    0.9286   -2.1483 H   0  0  0  0  0  0  0  0  0  0  0  0
    5.1357    1.4746    0.0004 H   0  0  0  0  0  0  0  0  0  0  0  0
  1 10  1  0  0  0  0
  2  3  1  0  0  0  0
  2  6  1  0  0  0  0
  2 18  1  0  0  0  0
  3  5  2  0  0  0  0
  4  5  1  0  0  0  0
  4  6  2  0  0  0  0
  4  8  1  0  0  0  0
  5  7  1  0  0  0  0
  6  9  1  0  0  0  0
  7 11  2  0  0  0  0
  7 12  1  0  0  0  0
  8 10  2  0  0  0  0
  8 17  1  0  0  0  0
  9 13  2  0  0  0  0
  9 19  1  0  0  0  0
 10 13  1  0  0  0  0
 11 14  1  0  0  0  0
 11 20  1  0  0  0  0
 12 15  2  0  0  0  0
 12 21  1  0  0  0  0
 13 22  1  0  0  0  0
 14 16  2  0  0  0  0
 14 23  1  0  0  0  0
 15 16  1  0  0  0  0
 15 24  1  0  0  0  0
 16 25  1  0  0  0  0
M  END
> <PUBCHEM_COMPOUND_CID>
623415

> <PUBCHEM_CONFORMER_RMSD>
0.6

> <PUBCHEM_CONFORMER_DIVERSEORDER>
1
2

> <PUBCHEM_MMFF94_PARTIAL_CHARGES>
24
1 -0.11
10 0.11
11 -0.15
12 -0.15
13 -0.15
14 -0.15
15 -0.15
16 -0.15
17 0.15
18 0.27
19 0.15
2 0.3
20 0.15
21 0.15
22 0.15
23 0.15
24 0.15
25 0.15
3 -0.71
5 0.23
6 -0.15
7 0.05
8 -0.15
9 -0.15

> <PUBCHEM_EFFECTIVE_ROTOR_COUNT>
1

> <PUBCHEM_PHARMACOPHORE_FEATURES>
6
1 1 hydrophobe
1 2 donor
1 3 acceptor
5 2 3 4 5 6 rings
6 4 6 8 9 10 13 rings
6 7 11 12 14 15 16 rings

> <PUBCHEM_HEAVY_ATOM_COUNT>
16

> <PUBCHEM_ATOM_DEF_STEREO_COUNT>
0

> <PUBCHEM_ATOM_UDEF_STEREO_COUNT>
0

> <PUBCHEM_BOND_DEF_STEREO_COUNT>
0

> <PUBCHEM_BOND_UDEF_STEREO_COUNT>
0

> <PUBCHEM_ISOTOPIC_ATOM_COUNT>
0

> <PUBCHEM_COMPONENT_COUNT>
1

> <PUBCHEM_CACTVS_TAUTO_COUNT>
2

> <PUBCHEM_CONFORMER_ID>
0009833700000001

> <PUBCHEM_MMFF94_ENERGY>
37.8794

> <PUBCHEM_FEATURE_SELFOVERLAP>
30.537

> <PUBCHEM_SHAPE_FINGERPRINT>
10465860 228 18190180083583434658
10498660 4 18340486664633202897
10608611 8 18272930565804221424
10646746 165 18413106152241471192
11132069 177 18408040714914660909
11471102 22 14779538011472276686
11543360 7 15769481097726994997
11640471 11 17822019752099901084
11725454 13 16913928640548794664
12173636 292 18411134727776584309
12236239 1 17676482895615690640
12390115 104 18199486406131515529
13140716 1 18048321334239560267
13538477 17 17968936538642324018
13764800 53 18409739468916619203
13878862 14 17255396021462978373
13965767 371 17825663357319697404
14123255 52 18338518513102239221
14739800 52 18121488318847867312
15042514 8 18192716858957683155
15669948 3 18264766730496239006
15775835 57 18187364337494886608
16945 1 18338799021668882855
17357990 137 17822021912510434700
1741750 31 18340769230657765665
1798214 55 18339081462981878957
18186145 218 17918000451135765032
20510252 161 18342744035124394777
20645477 56 18272092746554701296
20645477 70 16558482928495321212
20671657 1 17978794497967021663
21524375 3 18336541621117499979
23048698 100 16950557822334707850
23366157 5 17970631774961149875
23402539 116 18341602771919035390
23557571 272 18058739150577093918
23559900 14 18201726128981837478
2748010 2 18266187132316177647
3268164 11 18201428212390484429
350125 39 18193844734416865947
4028521 119 18131350782675009481
7097593 13 17679000630935121450
7364860 26 18054224323926661319
77492 1 17604142735568686502
7808743 9 18409735096825255420
81228 2 17767962395774759611
84936 182 17911795769708353081
90316 7 17458897158950038605

> <PUBCHEM_SHAPE_MULTIPOLES>
325.25
7.48
2.42
0.99
2.07
0.39
0
4.47
0
-2.76
0
1.06
0.19
0

> <PUBCHEM_SHAPE_SELFOVERLAP>
712.848

> <PUBCHEM_SHAPE_VOLUME>
181.6

> <PUBCHEM_COORDINATE_TYPE>
2
5
10

$$$$
