49831012
  -OEChem-10062121563D

 27 29  0     0  0  0  0  0  0999 V2000
   -4.4380   -0.5248   -0.4267 S   0  0  0  0  0  0  0  0  0  0  0  0
   -2.6395    1.8914   -0.2052 O   0  0  0  0  0  0  0  0  0  0  0  0
   -0.6009   -1.6095   -0.2140 N   0  0  0  0  0  0  0  0  0  0  0  0
    4.4016   -0.3382    0.1788 N   0  0  0  0  0  0  0  0  0  0  0  0
    0.1499   -0.4247   -0.1130 C   0  0  0  0  0  0  0  0  0  0  0  0
   -0.5390    0.8097   -0.1073 C   0  0  0  0  0  0  0  0  0  0  0  0
    1.5694   -0.4368   -0.0174 C   0  0  0  0  0  0  0  0  0  0  0  0
    2.2518    0.7984    0.0814 C   0  0  0  0  0  0  0  0  0  0  0  0
    0.1533    2.0166   -0.0092 C   0  0  0  0  0  0  0  0  0  0  0  0
   -2.0282    0.8295   -0.2077 C   0  0  0  0  0  0  0  0  0  0  0  0
    1.5416    2.0080    0.0846 C   0  0  0  0  0  0  0  0  0  0  0  0
   -2.7214   -0.4896   -0.3096 C   0  0  0  0  0  0  0  0  0  0  0  0
   -1.9644   -1.5921   -0.3052 C   0  0  0  0  0  0  0  0  0  0  0  0
    2.3545   -1.6078   -0.0141 C   0  0  0  0  0  0  0  0  0  0  0  0
    3.6453    0.7802    0.1751 C   0  0  0  0  0  0  0  0  0  0  0  0
    3.7353   -1.5044    0.0838 C   0  0  0  0  0  0  0  0  0  0  0  0
   -4.8714   -0.6059    1.3257 C   0  0  0  0  0  0  0  0  0  0  0  0
   -0.3667    2.9704   -0.0040 H   0  0  0  0  0  0  0  0  0  0  0  0
   -0.1421   -2.5092   -0.2208 H   0  0  0  0  0  0  0  0  0  0  0  0
    2.0673    2.9577    0.1606 H   0  0  0  0  0  0  0  0  0  0  0  0
   -2.3844   -2.5897   -0.3751 H   0  0  0  0  0  0  0  0  0  0  0  0
    1.9146   -2.5971   -0.0860 H   0  0  0  0  0  0  0  0  0  0  0  0
    4.2163    1.7019    0.2531 H   0  0  0  0  0  0  0  0  0  0  0  0
    4.3571   -2.3937    0.0880 H   0  0  0  0  0  0  0  0  0  0  0  0
   -5.9596   -0.6277    1.4276 H   0  0  0  0  0  0  0  0  0  0  0  0
   -4.4902    0.2706    1.8572 H   0  0  0  0  0  0  0  0  0  0  0  0
   -4.4616   -1.5112    1.7822 H   0  0  0  0  0  0  0  0  0  0  0  0
  1 12  1  0  0  0  0
  1 17  1  0  0  0  0
  2 10  2  0  0  0  0
  3  5  1  0  0  0  0
  3 13  1  0  0  0  0
  3 19  1  0  0  0  0
  4 15  2  0  0  0  0
  4 16  1  0  0  0  0
  5  6  2  0  0  0  0
  5  7  1  0  0  0  0
  6  9  1  0  0  0  0
  6 10  1  0  0  0  0
  7  8  2  0  0  0  0
  7 14  1  0  0  0  0
  8 11  1  0  0  0  0
  8 15  1  0  0  0  0
  9 11  2  0  0  0  0
  9 18  1  0  0  0  0
 10 12  1  0  0  0  0
 11 20  1  0  0  0  0
 12 13  2  0  0  0  0
 13 21  1  0  0  0  0
 14 16  2  0  0  0  0
 14 22  1  0  0  0  0
 15 23  1  0  0  0  0
 16 24  1  0  0  0  0
 17 25  1  0  0  0  0
 17 26  1  0  0  0  0
 17 27  1  0  0  0  0
M  END
> <PUBCHEM_COMPOUND_CID>
49831012

> <PUBCHEM_CONFORMER_RMSD>
0.6

> <PUBCHEM_CONFORMER_DIVERSEORDER>
1
2

> <PUBCHEM_MMFF94_PARTIAL_CHARGES>
22
1 -0.33
10 0.47
11 -0.15
12 0.12
13 -0.05
14 -0.15
15 0.16
16 0.16
17 0.23
18 0.15
19 0.4
2 -0.57
20 0.15
21 0.15
22 0.15
23 0.15
24 0.15
3 -0.6
4 -0.62
5 0.1
6 0.09
9 -0.15

> <PUBCHEM_EFFECTIVE_ROTOR_COUNT>
1

> <PUBCHEM_PHARMACOPHORE_FEATURES>
8
1 17 hydrophobe
1 2 acceptor
1 3 cation
1 3 donor
1 4 acceptor
6 3 5 6 10 12 13 rings
6 4 7 8 14 15 16 rings
6 5 6 7 8 9 11 rings

> <PUBCHEM_HEAVY_ATOM_COUNT>
17

> <PUBCHEM_ATOM_DEF_STEREO_COUNT>
0

> <PUBCHEM_ATOM_UDEF_STEREO_COUNT>
0

> <PUBCHEM_BOND_DEF_STEREO_COUNT>
0

> <PUBCHEM_BOND_UDEF_STEREO_COUNT>
0

> <PUBCHEM_ISOTOPIC_ATOM_COUNT>
0

> <PUBCHEM_COMPONENT_COUNT>
1

> <PUBCHEM_CACTVS_TAUTO_COUNT>
3

> <PUBCHEM_CONFORMER_ID>
02F85C6400000001

> <PUBCHEM_MMFF94_ENERGY>
57.1947

> <PUBCHEM_FEATURE_SELFOVERLAP>
40.643

> <PUBCHEM_SHAPE_FINGERPRINT>
10608611 8 18412254043577994844
10967382 1 18411415141906941510
11132069 177 18340475750951764682
11471102 20 18410850001230061999
11543360 7 15719401641352833486
11806522 49 18409443717299837391
12032990 46 18409731729290664454
12236239 1 17775284993666644431
12251169 10 18342460361045177003
12553582 1 18411975871356983094
13140716 1 18122905605480977339
13221675 6 18410008866334711775
13675066 3 18260545666876178305
13862211 1 18411130333745926518
14115302 16 17749116624735002942
14144814 61 18411696573817895642
14252887 29 18202007603378611038
14790565 3 17543921560071664533
15196674 1 18411134697680196844
15209294 21 17703802375274107409
15375462 189 18334853909434145250
15442244 35 18340202999238332912
15536298 74 18343579668309128040
16945 1 18339073925139714068
17804303 29 18412546504806638253
18522853 276 18341891900427233873
19141452 34 18273214231462354863
200 152 18131340921951947797
20028762 73 18129942394717966215
20510252 161 18272931579237174889
20645477 70 18410846672973572007
21029758 11 18342729720082929349
21029758 27 18260835903496716645
21267235 1 18410862044803968318
21501502 16 18125720333973798327
21501925 9 18411128139312595608
221490 88 18263365956803151555
23184049 59 18342183284305056923
2334 1 18411415090172148652
23402539 116 18272922822157320687
23463225 33 18410571777896996260
23559900 14 18341884251570781072
2748010 2 18339353059359294028
2871803 45 18261385633287560599
335352 9 18051408474863672540
34934 24 18341039826555999622
350125 39 18410859850149831853
4990 188 12685087060216826122
5104073 3 18338793408352096400
537710 114 18410578405010623412
69090 78 18272364295762075991
7364860 26 18269832180818682112
83771 10 18412261739826768105
8809292 202 18260547882752651915
9709674 26 18412265029809224998

> <PUBCHEM_SHAPE_MULTIPOLES>
337.87
8.25
2.07
0.75
3.2
0.47
-0.13
-2.29
-1.4
-0.6
0.07
0.62
-0.07
0.13

> <PUBCHEM_SHAPE_SELFOVERLAP>
737.424

> <PUBCHEM_SHAPE_VOLUME>
185.2

> <PUBCHEM_COORDINATE_TYPE>
2
5
10

$$$$
