46215815
  -OEChem-10052115143D

 68 72  0     1  0  0  0  0  0999 V2000
   -5.3038    2.1141    0.4515 O   0  0  0  0  0  0  0  0  0  0  0  0
   -0.9022    1.2887    0.4853 N   0  0  0  0  0  0  0  0  0  0  0  0
   -5.0116    0.3348   -1.0209 N   0  0  0  0  0  0  0  0  0  0  0  0
   -0.2448   -0.5726    1.7911 N   0  0  0  0  0  0  0  0  0  0  0  0
    1.9823   -1.4637    1.5602 N   0  0  0  0  0  0  0  0  0  0  0  0
    0.4526   -2.4167    3.0628 N   0  0  0  0  0  0  0  0  0  0  0  0
    6.6890    1.3938   -0.4060 N   0  0  0  0  0  0  0  0  0  0  0  0
    7.7762    0.9471   -1.0566 N   0  0  0  0  0  0  0  0  0  0  0  0
    8.2024   -1.1414   -2.1469 N   0  0  0  0  0  0  0  0  0  0  0  0
   -3.1384    1.7191   -0.4693 C   0  0  1  0  0  0  0  0  0  0  0  0
   -2.8975    3.2193   -0.3340 C   0  0  0  0  0  0  0  0  0  0  0  0
   -0.5591    2.7238    0.5556 C   0  0  1  0  0  0  0  0  0  0  0  0
   -1.4074    3.5209   -0.4464 C   0  0  0  0  0  0  0  0  0  0  0  0
   -2.3221    0.9188    0.5473 C   0  0  0  0  0  0  0  0  0  0  0  0
   -6.3695   -0.1624   -1.0027 C   0  0  0  0  0  0  0  0  0  0  0  0
   -6.7508   -0.7724   -2.3557 C   0  0  0  0  0  0  0  0  0  0  0  0
   -6.5732   -1.1666    0.1366 C   0  0  0  0  0  0  0  0  0  0  0  0
   -4.5977    1.4343   -0.2885 C   0  0  0  0  0  0  0  0  0  0  0  0
   -6.0498   -2.1060   -2.6145 C   0  0  0  0  0  0  0  0  0  0  0  0
   -5.8724   -2.4995   -0.1263 C   0  0  0  0  0  0  0  0  0  0  0  0
   -6.2764   -3.0921   -1.4727 C   0  0  0  0  0  0  0  0  0  0  0  0
   -0.7215    3.2448    1.9875 C   0  0  0  0  0  0  0  0  0  0  0  0
    0.0677    0.3500    0.8576 C   0  0  0  0  0  0  0  0  0  0  0  0
    1.2987    0.4285    0.2390 C   0  0  0  0  0  0  0  0  0  0  0  0
    2.2265   -0.5136    0.6338 C   0  0  0  0  0  0  0  0  0  0  0  0
    0.7448   -1.4357    2.0904 C   0  0  0  0  0  0  0  0  0  0  0  0
    3.5528   -0.5400    0.0648 C   0  0  0  0  0  0  0  0  0  0  0  0
    4.3808    0.5784    0.2059 C   0  0  0  0  0  0  0  0  0  0  0  0
    3.9868   -1.6798   -0.6146 C   0  0  0  0  0  0  0  0  0  0  0  0
    5.6540    0.4990   -0.3624 C   0  0  0  0  0  0  0  0  0  0  0  0
    6.1115   -0.6232   -1.0439 C   0  0  0  0  0  0  0  0  0  0  0  0
    5.2680   -1.7388   -1.1772 C   0  0  0  0  0  0  0  0  0  0  0  0
   -0.8173   -2.5106    3.7122 C   0  0  0  0  0  0  0  0  0  0  0  0
    7.4212   -0.2803   -1.4431 C   0  0  0  0  0  0  0  0  0  0  0  0
   -2.8337    1.4212   -1.4823 H   0  0  0  0  0  0  0  0  0  0  0  0
   -3.2763    3.5989    0.6227 H   0  0  0  0  0  0  0  0  0  0  0  0
   -3.4411    3.7613   -1.1179 H   0  0  0  0  0  0  0  0  0  0  0  0
    0.4854    2.8969    0.2713 H   0  0  0  0  0  0  0  0  0  0  0  0
   -1.0772    3.2713   -1.4636 H   0  0  0  0  0  0  0  0  0  0  0  0
   -1.2368    4.5963   -0.3181 H   0  0  0  0  0  0  0  0  0  0  0  0
   -2.7026    1.0697    1.5656 H   0  0  0  0  0  0  0  0  0  0  0  0
   -2.4453   -0.1496    0.3243 H   0  0  0  0  0  0  0  0  0  0  0  0
   -7.0255    0.6976   -0.8185 H   0  0  0  0  0  0  0  0  0  0  0  0
   -6.5149   -0.0744   -3.1681 H   0  0  0  0  0  0  0  0  0  0  0  0
   -7.8361   -0.9343   -2.3805 H   0  0  0  0  0  0  0  0  0  0  0  0
   -6.2151   -0.7502    1.0858 H   0  0  0  0  0  0  0  0  0  0  0  0
   -7.6480   -1.3528    0.2585 H   0  0  0  0  0  0  0  0  0  0  0  0
   -4.9742   -1.9459   -2.7534 H   0  0  0  0  0  0  0  0  0  0  0  0
   -6.4246   -2.5384   -3.5494 H   0  0  0  0  0  0  0  0  0  0  0  0
   -4.7852   -2.3572   -0.1000 H   0  0  0  0  0  0  0  0  0  0  0  0
   -6.1181   -3.2065    0.6743 H   0  0  0  0  0  0  0  0  0  0  0  0
   -5.7059   -4.0091   -1.6584 H   0  0  0  0  0  0  0  0  0  0  0  0
   -7.3355   -3.3763   -1.4420 H   0  0  0  0  0  0  0  0  0  0  0  0
   -4.3186   -0.1922   -1.5438 H   0  0  0  0  0  0  0  0  0  0  0  0
   -0.0568    2.7085    2.6735 H   0  0  0  0  0  0  0  0  0  0  0  0
   -0.4678    4.3088    2.0419 H   0  0  0  0  0  0  0  0  0  0  0  0
   -1.7426    3.1230    2.3617 H   0  0  0  0  0  0  0  0  0  0  0  0
    1.5245    1.1552   -0.5327 H   0  0  0  0  0  0  0  0  0  0  0  0
    1.1914   -3.0704    3.2934 H   0  0  0  0  0  0  0  0  0  0  0  0
    4.0641    1.4719    0.7347 H   0  0  0  0  0  0  0  0  0  0  0  0
    3.3348   -2.5445   -0.7231 H   0  0  0  0  0  0  0  0  0  0  0  0
    5.5904   -2.6322   -1.7032 H   0  0  0  0  0  0  0  0  0  0  0  0
   -0.8104   -3.3432    4.4226 H   0  0  0  0  0  0  0  0  0  0  0  0
   -1.0453   -1.5979    4.2723 H   0  0  0  0  0  0  0  0  0  0  0  0
   -1.6196   -2.6962    2.9906 H   0  0  0  0  0  0  0  0  0  0  0  0
    6.7175    2.3257   -0.0115 H   0  0  0  0  0  0  0  0  0  0  0  0
    9.1444   -0.8957   -2.4348 H   0  0  0  0  0  0  0  0  0  0  0  0
    7.8954   -2.0691   -2.4231 H   0  0  0  0  0  0  0  0  0  0  0  0
  1 18  2  0  0  0  0
  2 12  1  0  0  0  0
  2 14  1  0  0  0  0
  2 23  1  0  0  0  0
  3 15  1  0  0  0  0
  3 18  1  0  0  0  0
  3 54  1  0  0  0  0
  4 23  2  0  0  0  0
  4 26  1  0  0  0  0
  5 25  1  0  0  0  0
  5 26  2  0  0  0  0
  6 26  1  0  0  0  0
  6 33  1  0  0  0  0
  6 59  1  0  0  0  0
  7  8  1  0  0  0  0
  7 30  1  0  0  0  0
  7 66  1  0  0  0  0
  8 34  2  0  0  0  0
  9 34  1  0  0  0  0
  9 67  1  0  0  0  0
  9 68  1  0  0  0  0
 10 11  1  0  0  0  0
 10 14  1  0  0  0  0
 10 18  1  0  0  0  0
 10 35  1  0  0  0  0
 11 13  1  0  0  0  0
 11 36  1  0  0  0  0
 11 37  1  0  0  0  0
 12 13  1  0  0  0  0
 12 22  1  0  0  0  0
 12 38  1  0  0  0  0
 13 39  1  0  0  0  0
 13 40  1  0  0  0  0
 14 41  1  0  0  0  0
 14 42  1  0  0  0  0
 15 16  1  0  0  0  0
 15 17  1  0  0  0  0
 15 43  1  0  0  0  0
 16 19  1  0  0  0  0
 16 44  1  0  0  0  0
 16 45  1  0  0  0  0
 17 20  1  0  0  0  0
 17 46  1  0  0  0  0
 17 47  1  0  0  0  0
 19 21  1  0  0  0  0
 19 48  1  0  0  0  0
 19 49  1  0  0  0  0
 20 21  1  0  0  0  0
 20 50  1  0  0  0  0
 20 51  1  0  0  0  0
 21 52  1  0  0  0  0
 21 53  1  0  0  0  0
 22 55  1  0  0  0  0
 22 56  1  0  0  0  0
 22 57  1  0  0  0  0
 23 24  1  0  0  0  0
 24 25  2  0  0  0  0
 24 58  1  0  0  0  0
 25 27  1  0  0  0  0
 27 28  2  0  0  0  0
 27 29  1  0  0  0  0
 28 30  1  0  0  0  0
 28 60  1  0  0  0  0
 29 32  2  0  0  0  0
 29 61  1  0  0  0  0
 30 31  2  0  0  0  0
 31 32  1  0  0  0  0
 31 34  1  0  0  0  0
 32 62  1  0  0  0  0
 33 63  1  0  0  0  0
 33 64  1  0  0  0  0
 33 65  1  0  0  0  0
M  END
> <PUBCHEM_COMPOUND_CID>
46215815

> <PUBCHEM_CONFORMER_RMSD>
1.2

> <PUBCHEM_CONFORMER_DIVERSEORDER>
1
87
71
63
28
73
77
65
83
50
82
75
5
52
22
39
93
53
11
58
64
92
2
23
89
66
47
49
85
48
62
29
33
70
86
79
37
26
57
31
90
30
15
74
17
21
44
35
55
14
3
19
27
46
88
72
45
9
12
36
67
54
51
81
68
76
80
34
41
16
25
10
43
4
7
8
20
59
60
18
32
69
13
61
40
78
38
56
84
42
6
24
91

> <PUBCHEM_MMFF94_PARTIAL_CHARGES>
33
1 -0.57
10 0.06
12 0.37
14 0.37
15 0.3
18 0.57
2 -0.84
23 0.41
24 -0.15
25 0.31
26 0.72
28 -0.15
29 -0.15
3 -0.73
30 -0.15
32 -0.15
33 0.37
34 0.37
4 -0.62
5 -0.62
54 0.37
58 0.15
59 0.4
6 -0.87
60 0.15
61 0.15
62 0.15
66 0.27
67 0.4
68 0.4
7 0.3
8 -0.71
9 -0.88

> <PUBCHEM_EFFECTIVE_ROTOR_COUNT>
8.4

> <PUBCHEM_PHARMACOPHORE_FEATURES>
12
1 1 acceptor
1 3 donor
1 6 donor
1 7 donor
1 9 donor
3 8 9 34 cation
4 4 5 6 26 cation
5 7 8 30 31 34 rings
6 15 16 17 19 20 21 rings
6 2 10 11 12 13 14 rings
6 27 28 29 30 31 32 rings
6 4 5 23 24 25 26 rings

> <PUBCHEM_HEAVY_ATOM_COUNT>
34

> <PUBCHEM_ATOM_DEF_STEREO_COUNT>
2

> <PUBCHEM_ATOM_UDEF_STEREO_COUNT>
0

> <PUBCHEM_BOND_DEF_STEREO_COUNT>
0

> <PUBCHEM_BOND_UDEF_STEREO_COUNT>
0

> <PUBCHEM_ISOTOPIC_ATOM_COUNT>
0

> <PUBCHEM_COMPONENT_COUNT>
1

> <PUBCHEM_CACTVS_TAUTO_COUNT>
134

> <PUBCHEM_CONFORMER_ID>
02C1328700000001

> <PUBCHEM_MMFF94_ENERGY>
88.008

> <PUBCHEM_FEATURE_SELFOVERLAP>
60.99

> <PUBCHEM_SHAPE_FINGERPRINT>
10190206 1 18260833704188806235
10577160 103 18265618861024974600
11211813 15 17095808810064120982
11455722 242 18411689985855755802
117089 54 17983007045490491703
12124843 1 17968639576726376695
13540713 5 17753600248801906553
1361 4 18059577923773798902
1361 87 18263350564738128511
13673619 4 16558743507823380489
13690498 29 18411412900615028061
13782708 43 17060329708671571734
13911987 19 17386007247668605525
14251764 30 17632571652381946429
14767858 380 18113897165191846493
14856354 85 17561084657956590553
14931854 50 18186791488037636271
15021287 119 12895066345414482027
15352257 5 17489869336526458255
15392192 29 18272655671593062919
15705408 1 17173210903019864046
16994733 274 15430302642852317807
17138139 8 18261662727888331243
20505436 4 17975988557500307913
208703 8 18198613531923564751
21774942 28 13840530827407645359
21859007 373 8286212655543432490
22122407 14 13335034814777245798
22440779 20 16200149838187253969
23516275 137 18054813693057760571
255183 451 18198050581943236973
2838139 119 14057000542317617855
3103668 31 17388552763332840659
397638 26 9655584032485346975
4258327 124 16299256616770061702
484989 97 17751091399463727009
504843 32 15791741822953997955
5372103 7 15285631080560759391
54039377 194 18339366362044219015
563151 97 17459187378717429821
58083652 198 13614227170761943179
6058803 2 17610326152708839465
6898599 12 18044931269419847381
999808 66 16558751208783911237

> <PUBCHEM_SHAPE_MULTIPOLES>
653.99
21.63
3.71
2.55
14.27
1.87
2.03
-10.8
-19.51
-5.27
0.52
-0.67
-2.41
-1.11

> <PUBCHEM_SHAPE_SELFOVERLAP>
1412.81

> <PUBCHEM_SHAPE_VOLUME>
354.8

> <PUBCHEM_COORDINATE_TYPE>
2
5
10

$$$$
