49830443
  -OEChem-10062121553D

 49 53  0     0  0  0  0  0  0999 V2000
   -1.7016   -1.5932    0.6775 N   0  0  0  0  0  0  0  0  0  0  0  0
   -0.0394   -2.8668    0.1851 N   0  0  0  0  0  0  0  0  0  0  0  0
   -1.3516   -2.8578    0.3922 N   0  0  0  0  0  0  0  0  0  0  0  0
    5.6433    0.0625   -0.4247 N   0  0  0  0  0  0  0  0  0  0  0  0
    5.5573    0.9580   -1.4225 N   0  0  0  0  0  0  0  0  0  0  0  0
    3.6670    1.7480   -2.6610 N   0  0  0  0  0  0  0  0  0  0  0  0
   -0.6262   -0.7593    0.6619 C   0  0  0  0  0  0  0  0  0  0  0  0
    0.4202   -1.5892    0.3464 C   0  0  0  0  0  0  0  0  0  0  0  0
   -0.6930    0.6563    0.9294 C   0  0  0  0  0  0  0  0  0  0  0  0
    1.7975   -1.2062    0.2008 C   0  0  0  0  0  0  0  0  0  0  0  0
   -3.0821   -1.2738    0.9486 C   0  0  0  0  0  0  0  0  0  0  0  0
    3.5014    0.1026   -0.8937 C   0  0  0  0  0  0  0  0  0  0  0  0
    2.1495   -0.2575   -0.7674 C   0  0  0  0  0  0  0  0  0  0  0  0
   -0.5453    1.1523    2.2246 C   0  0  0  0  0  0  0  0  0  0  0  0
    4.4444   -0.4883   -0.0600 C   0  0  0  0  0  0  0  0  0  0  0  0
    2.7649   -1.7841    1.0251 C   0  0  0  0  0  0  0  0  0  0  0  0
   -3.7859   -0.6258   -0.2178 C   0  0  0  0  0  0  0  0  0  0  0  0
   -0.9113    1.5338   -0.1327 C   0  0  0  0  0  0  0  0  0  0  0  0
    4.1148   -1.4358    0.9116 C   0  0  0  0  0  0  0  0  0  0  0  0
    4.2528    0.9801   -1.7049 C   0  0  0  0  0  0  0  0  0  0  0  0
   -0.6157    2.5257    2.4578 C   0  0  0  0  0  0  0  0  0  0  0  0
   -0.3104    0.2429    3.3880 C   0  0  0  0  0  0  0  0  0  0  0  0
   -0.9818    2.9073    0.1004 C   0  0  0  0  0  0  0  0  0  0  0  0
   -4.3853    0.6243   -0.0638 C   0  0  0  0  0  0  0  0  0  0  0  0
   -3.8373   -1.2768   -1.4502 C   0  0  0  0  0  0  0  0  0  0  0  0
   -0.8340    3.4033    1.3957 C   0  0  0  0  0  0  0  0  0  0  0  0
   -5.0363    1.2233   -1.1425 C   0  0  0  0  0  0  0  0  0  0  0  0
   -4.4882   -0.6780   -2.5288 C   0  0  0  0  0  0  0  0  0  0  0  0
   -5.0877    0.5721   -2.3749 C   0  0  0  0  0  0  0  0  0  0  0  0
   -3.6051   -2.1999    1.2180 H   0  0  0  0  0  0  0  0  0  0  0  0
   -3.1057   -0.6339    1.8379 H   0  0  0  0  0  0  0  0  0  0  0  0
    1.4070    0.1831   -1.4260 H   0  0  0  0  0  0  0  0  0  0  0  0
    2.4818   -2.5191    1.7765 H   0  0  0  0  0  0  0  0  0  0  0  0
   -1.0310    1.1659   -1.1491 H   0  0  0  0  0  0  0  0  0  0  0  0
    4.8675   -1.8829    1.5512 H   0  0  0  0  0  0  0  0  0  0  0  0
   -0.5028    2.9302    3.4602 H   0  0  0  0  0  0  0  0  0  0  0  0
    6.5567   -0.1298   -0.0327 H   0  0  0  0  0  0  0  0  0  0  0  0
   -0.2340    0.7995    4.3288 H   0  0  0  0  0  0  0  0  0  0  0  0
   -1.1372   -0.4653    3.5027 H   0  0  0  0  0  0  0  0  0  0  0  0
    0.6276   -0.3080    3.2647 H   0  0  0  0  0  0  0  0  0  0  0  0
   -1.1528    3.5903   -0.7265 H   0  0  0  0  0  0  0  0  0  0  0  0
   -4.3525    1.1435    0.8902 H   0  0  0  0  0  0  0  0  0  0  0  0
   -3.3843   -2.2547   -1.5871 H   0  0  0  0  0  0  0  0  0  0  0  0
   -0.8892    4.4727    1.5770 H   0  0  0  0  0  0  0  0  0  0  0  0
   -5.5024    2.1969   -1.0228 H   0  0  0  0  0  0  0  0  0  0  0  0
   -4.5299   -1.1857   -3.4880 H   0  0  0  0  0  0  0  0  0  0  0  0
    2.6686    1.7376   -2.8458 H   0  0  0  0  0  0  0  0  0  0  0  0
    4.2068    2.3792   -3.2449 H   0  0  0  0  0  0  0  0  0  0  0  0
   -5.5946    1.0383   -3.2147 H   0  0  0  0  0  0  0  0  0  0  0  0
  1  3  1  0  0  0  0
  1  7  1  0  0  0  0
  1 11  1  0  0  0  0
  2  3  2  0  0  0  0
  2  8  1  0  0  0  0
  4  5  1  0  0  0  0
  4 15  1  0  0  0  0
  4 37  1  0  0  0  0
  5 20  2  0  0  0  0
  6 20  1  0  0  0  0
  6 47  1  0  0  0  0
  6 48  1  0  0  0  0
  7  8  2  0  0  0  0
  7  9  1  0  0  0  0
  8 10  1  0  0  0  0
  9 14  1  0  0  0  0
  9 18  2  0  0  0  0
 10 13  2  0  0  0  0
 10 16  1  0  0  0  0
 11 17  1  0  0  0  0
 11 30  1  0  0  0  0
 11 31  1  0  0  0  0
 12 13  1  0  0  0  0
 12 15  2  0  0  0  0
 12 20  1  0  0  0  0
 13 32  1  0  0  0  0
 14 21  2  0  0  0  0
 14 22  1  0  0  0  0
 15 19  1  0  0  0  0
 16 19  2  0  0  0  0
 16 33  1  0  0  0  0
 17 24  2  0  0  0  0
 17 25  1  0  0  0  0
 18 23  1  0  0  0  0
 18 34  1  0  0  0  0
 19 35  1  0  0  0  0
 21 26  1  0  0  0  0
 21 36  1  0  0  0  0
 22 38  1  0  0  0  0
 22 39  1  0  0  0  0
 22 40  1  0  0  0  0
 23 26  2  0  0  0  0
 23 41  1  0  0  0  0
 24 27  1  0  0  0  0
 24 42  1  0  0  0  0
 25 28  2  0  0  0  0
 25 43  1  0  0  0  0
 26 44  1  0  0  0  0
 27 29  2  0  0  0  0
 27 45  1  0  0  0  0
 28 29  1  0  0  0  0
 28 46  1  0  0  0  0
 29 49  1  0  0  0  0
M  END
> <PUBCHEM_COMPOUND_CID>
49830443

> <PUBCHEM_CONFORMER_RMSD>
0.8

> <PUBCHEM_CONFORMER_DIVERSEORDER>
1
54
37
50
10
55
29
39
49
46
56
3
16
48
21
43
51
38
35
30
36
44
52
23
57
14
41
28
4
40
53
11
47
33
18
2
34
27
25
13
20
12
5
42
24
45
17
31
8
32
15
26
22
19
9
7
6

> <PUBCHEM_MMFF94_PARTIAL_CHARGES>
43
1 0.31
10 0.05
11 0.4
13 -0.15
14 -0.14
15 -0.15
16 -0.15
17 -0.14
18 -0.15
19 -0.15
2 -0.23
20 0.37
21 -0.15
22 0.14
23 -0.15
24 -0.15
25 -0.15
26 -0.15
27 -0.15
28 -0.15
29 -0.15
3 -0.42
32 0.15
33 0.15
34 0.15
35 0.15
36 0.15
37 0.27
4 0.3
41 0.15
42 0.15
43 0.15
44 0.15
45 0.15
46 0.15
47 0.4
48 0.4
49 0.15
5 -0.71
6 -0.88
7 -0.2
8 0.17
9 0.05

> <PUBCHEM_EFFECTIVE_ROTOR_COUNT>
4

> <PUBCHEM_PHARMACOPHORE_FEATURES>
8
1 4 donor
1 6 donor
3 5 6 20 cation
5 1 2 3 7 8 rings
5 4 5 12 15 20 rings
6 10 12 13 15 16 19 rings
6 17 24 25 27 28 29 rings
6 9 14 18 21 23 26 rings

> <PUBCHEM_HEAVY_ATOM_COUNT>
29

> <PUBCHEM_ATOM_DEF_STEREO_COUNT>
0

> <PUBCHEM_ATOM_UDEF_STEREO_COUNT>
0

> <PUBCHEM_BOND_DEF_STEREO_COUNT>
0

> <PUBCHEM_BOND_UDEF_STEREO_COUNT>
0

> <PUBCHEM_ISOTOPIC_ATOM_COUNT>
0

> <PUBCHEM_COMPONENT_COUNT>
1

> <PUBCHEM_CACTVS_TAUTO_COUNT>
13

> <PUBCHEM_CONFORMER_ID>
02F85A2B00000001

> <PUBCHEM_MMFF94_ENERGY>
71.3412

> <PUBCHEM_FEATURE_SELFOVERLAP>
40.69

> <PUBCHEM_SHAPE_FINGERPRINT>
10692045 39 13984923105731619296
11961588 58 16951108656765993543
12293681 160 18411980260607818667
12741549 16 14641554696713344425
12788726 201 18271529680484585185
13149001 5 18056749060649068367
13544653 18 13758353405789070023
13583140 156 16805620156532527288
13782708 43 15985116180558994454
13911987 19 18410860983757291839
14251757 17 17895473738726891189
14713325 29 17169566309603836531
14739800 52 14925042905142121717
14955137 171 17273996786039275427
15420108 30 16748723440641027536
15775530 1 17763736998712266683
16752209 62 18271243833336467338
17349148 13 18338233756965485398
17357779 13 17703793634388022874
17492 54 18407757032366925613
1813 80 16702011006967974197
19319366 153 18121496844330601483
20715895 44 17896591804618297109
20775438 99 17049887879109525207
21033648 29 14779555543138493076
21304303 64 18260277343337845517
2132832 1 18046892789425548338
22182313 1 18052807333043641635
22907989 373 18341627996451933552
23559900 14 18335135354810789242
2838139 119 17385714790365398863
3493558 16 17894908469437967295
4017518 198 15979164764652752232
465052 167 10807639152010036407
5081480 168 17987795345371346585
6786 2 12562848528924070387
6913067 236 16988837259806080662

> <PUBCHEM_SHAPE_MULTIPOLES>
566.92
10.66
2.98
2.61
3.62
1.81
-0.25
-1.95
-9.02
-1.37
1.29
-0.01
0.79
-1.54

> <PUBCHEM_SHAPE_SELFOVERLAP>
1275.91

> <PUBCHEM_SHAPE_VOLUME>
301.2

> <PUBCHEM_COORDINATE_TYPE>
2
5
10

$$$$
