5329880
  -OEChem-10052115143D

 46 49  0     0  0  0  0  0  0999 V2000
    7.7138   -1.7785    0.0272 O   0  0  0  0  0  0  0  0  0  0  0  0
   -2.6911   -0.2082   -1.2061 O   0  0  0  0  0  0  0  0  0  0  0  0
    5.4968   -2.3457    0.5752 N   0  0  0  0  0  0  0  0  0  0  0  0
   -1.8173    0.5126    0.8448 N   0  0  0  0  0  0  0  0  0  0  0  0
   -4.0961    0.2144    0.6150 N   0  0  0  0  0  0  0  0  0  0  0  0
    4.5473   -0.3252    0.0751 C   0  0  0  0  0  0  0  0  0  0  0  0
    4.2044   -1.6866    0.5732 C   0  0  0  0  0  0  0  0  0  0  0  0
    3.7220    0.7616   -0.1423 C   0  0  0  0  0  0  0  0  0  0  0  0
    5.9163   -0.2317   -0.1800 C   0  0  0  0  0  0  0  0  0  0  0  0
    2.3003    0.6969    0.1113 C   0  0  0  0  0  0  0  0  0  0  0  0
    6.5292   -1.5246    0.1390 C   0  0  0  0  0  0  0  0  0  0  0  0
    4.2995    1.9427   -0.6205 C   0  0  0  0  0  0  0  0  0  0  0  0
    6.5118    0.9213   -0.6523 C   0  0  0  0  0  0  0  0  0  0  0  0
    5.6819    2.0215   -0.8731 C   0  0  0  0  0  0  0  0  0  0  0  0
    1.4275    0.2968   -0.9013 C   0  0  0  0  0  0  0  0  0  0  0  0
    1.7985    1.0355    1.3688 C   0  0  0  0  0  0  0  0  0  0  0  0
   -0.4449    0.5738    0.6001 C   0  0  0  0  0  0  0  0  0  0  0  0
    0.0555    0.2353   -0.6570 C   0  0  0  0  0  0  0  0  0  0  0  0
    0.4265    0.9739    1.6131 C   0  0  0  0  0  0  0  0  0  0  0  0
   -5.3782   -0.0753    0.0910 C   0  0  0  0  0  0  0  0  0  0  0  0
   -2.8568    0.1356   -0.0401 C   0  0  0  0  0  0  0  0  0  0  0  0
   -7.7543   -0.2205    0.3873 C   0  0  0  0  0  0  0  0  0  0  0  0
   -6.4906    0.0656    0.9040 C   0  0  0  0  0  0  0  0  0  0  0  0
   -5.4937   -0.4941   -1.2242 C   0  0  0  0  0  0  0  0  0  0  0  0
   -7.8876   -0.6432   -0.9353 C   0  0  0  0  0  0  0  0  0  0  0  0
   -6.7573   -0.7801   -1.7411 C   0  0  0  0  0  0  0  0  0  0  0  0
   -8.9632   -0.0738    1.2482 C   0  0  0  0  0  0  0  0  0  0  0  0
    3.8170   -1.6766    1.5950 H   0  0  0  0  0  0  0  0  0  0  0  0
    3.5384   -2.2279   -0.1035 H   0  0  0  0  0  0  0  0  0  0  0  0
    5.6339   -3.3087    0.8654 H   0  0  0  0  0  0  0  0  0  0  0  0
    3.6868    2.8229   -0.8059 H   0  0  0  0  0  0  0  0  0  0  0  0
    7.5765    0.9790   -0.8459 H   0  0  0  0  0  0  0  0  0  0  0  0
    6.1059    2.9508   -1.2445 H   0  0  0  0  0  0  0  0  0  0  0  0
    1.8024    0.0293   -1.8867 H   0  0  0  0  0  0  0  0  0  0  0  0
    2.4640    1.3491    2.1697 H   0  0  0  0  0  0  0  0  0  0  0  0
   -0.5520   -0.0835   -1.4918 H   0  0  0  0  0  0  0  0  0  0  0  0
    0.0504    1.2404    2.5975 H   0  0  0  0  0  0  0  0  0  0  0  0
   -2.1056    0.7742    1.7843 H   0  0  0  0  0  0  0  0  0  0  0  0
   -4.0795    0.5164    1.5859 H   0  0  0  0  0  0  0  0  0  0  0  0
   -6.3850    0.3937    1.9351 H   0  0  0  0  0  0  0  0  0  0  0  0
   -4.6718   -0.6254   -1.9117 H   0  0  0  0  0  0  0  0  0  0  0  0
   -8.8664   -0.8708   -1.3492 H   0  0  0  0  0  0  0  0  0  0  0  0
   -6.8625   -1.1100   -2.7707 H   0  0  0  0  0  0  0  0  0  0  0  0
   -8.8335    0.7349    1.9756 H   0  0  0  0  0  0  0  0  0  0  0  0
   -9.8477    0.1721    0.6508 H   0  0  0  0  0  0  0  0  0  0  0  0
   -9.1542   -1.0059    1.7892 H   0  0  0  0  0  0  0  0  0  0  0  0
  1 11  2  0  0  0  0
  2 21  2  0  0  0  0
  3  7  1  0  0  0  0
  3 11  1  0  0  0  0
  3 30  1  0  0  0  0
  4 17  1  0  0  0  0
  4 21  1  0  0  0  0
  4 38  1  0  0  0  0
  5 20  1  0  0  0  0
  5 21  1  0  0  0  0
  5 39  1  0  0  0  0
  6  7  1  0  0  0  0
  6  8  2  0  0  0  0
  6  9  1  0  0  0  0
  7 28  1  0  0  0  0
  7 29  1  0  0  0  0
  8 10  1  0  0  0  0
  8 12  1  0  0  0  0
  9 11  1  0  0  0  0
  9 13  2  0  0  0  0
 10 15  2  0  0  0  0
 10 16  1  0  0  0  0
 12 14  2  0  0  0  0
 12 31  1  0  0  0  0
 13 14  1  0  0  0  0
 13 32  1  0  0  0  0
 14 33  1  0  0  0  0
 15 18  1  0  0  0  0
 15 34  1  0  0  0  0
 16 19  2  0  0  0  0
 16 35  1  0  0  0  0
 17 18  2  0  0  0  0
 17 19  1  0  0  0  0
 18 36  1  0  0  0  0
 19 37  1  0  0  0  0
 20 23  1  0  0  0  0
 20 24  2  0  0  0  0
 22 23  2  0  0  0  0
 22 25  1  0  0  0  0
 22 27  1  0  0  0  0
 23 40  1  0  0  0  0
 24 26  1  0  0  0  0
 24 41  1  0  0  0  0
 25 26  2  0  0  0  0
 25 42  1  0  0  0  0
 26 43  1  0  0  0  0
 27 44  1  0  0  0  0
 27 45  1  0  0  0  0
 27 46  1  0  0  0  0
M  END
> <PUBCHEM_COMPOUND_CID>
5329880

> <PUBCHEM_CONFORMER_RMSD>
0.8

> <PUBCHEM_CONFORMER_DIVERSEORDER>
1
13
9
5
14
12
15
4
7
6
16
10
11
2
3
8

> <PUBCHEM_MMFF94_PARTIAL_CHARGES>
39
1 -0.57
11 0.54
12 -0.15
13 -0.15
14 -0.15
15 -0.15
16 -0.15
17 0.12
18 -0.15
19 -0.15
2 -0.57
20 0.12
21 0.69
22 -0.14
23 -0.15
24 -0.15
25 -0.15
26 -0.15
27 0.14
3 -0.73
30 0.37
31 0.15
32 0.15
33 0.15
34 0.15
35 0.15
36 0.15
37 0.15
38 0.37
39 0.37
4 -0.55
40 0.15
41 0.15
42 0.15
43 0.15
5 -0.55
6 -0.14
7 0.44
9 0.09

> <PUBCHEM_EFFECTIVE_ROTOR_COUNT>
5.4

> <PUBCHEM_PHARMACOPHORE_FEATURES>
9
1 1 acceptor
1 2 acceptor
1 3 donor
1 4 donor
1 5 donor
5 3 6 7 9 11 rings
6 10 15 16 17 18 19 rings
6 20 22 23 24 25 26 rings
6 6 8 9 12 13 14 rings

> <PUBCHEM_HEAVY_ATOM_COUNT>
27

> <PUBCHEM_ATOM_DEF_STEREO_COUNT>
0

> <PUBCHEM_ATOM_UDEF_STEREO_COUNT>
0

> <PUBCHEM_BOND_DEF_STEREO_COUNT>
0

> <PUBCHEM_BOND_UDEF_STEREO_COUNT>
0

> <PUBCHEM_ISOTOPIC_ATOM_COUNT>
0

> <PUBCHEM_COMPONENT_COUNT>
1

> <PUBCHEM_CACTVS_TAUTO_COUNT>
6

> <PUBCHEM_CONFORMER_ID>
005153D800000001

> <PUBCHEM_MMFF94_ENERGY>
91.2622

> <PUBCHEM_FEATURE_SELFOVERLAP>
45.809

> <PUBCHEM_SHAPE_FINGERPRINT>
10 15 14908173166429077490
10050765 1 13841701945009689365
10066227 49 18261109634363075746
10299344 5 18272371979711373183
10319688 140 17459176392006822378
106641 1 16773506729811965394
11135926 11 17346595245571955191
11315181 36 8214140760403833029
11646440 116 14692574342417743659
11719270 70 16917353627542792479
11963148 33 17203605990797862391
12082328 90 18260550022722271593
12089408 11 18131635599948282885
12166972 35 18341612642055315273
12236239 1 18273217478526013880
13533116 47 18411417302634090234
14068700 675 17489590078212126761
14251764 18 18059856177450495157
14251764 46 18260268560097608984
14294032 229 17130452124086463401
150020 25 17240481395128238043
15119646 104 18202285775288243791
15183329 4 18335134293779241403
15198563 99 17458900432158315229
15328684 2 17702672038392346307
15352257 5 18334576875971070459
15419008 47 17022895770648395709
15419008 91 16806154579682798141
15510794 2 17458068191712160851
15716309 27 18342176670371730893
15849732 13 17168144559438564855
17093844 174 13758356675171421935
19301679 30 17631177373201994374
20105231 36 16877948231106284139
20157964 124 18259987102443380836
2026 5 18191301577445818858
20771845 140 17131546151019915734
21095086 128 18334295397205417931
21150785 3 12179848303833041483
21315759 40 18272934942650137549
21344244 181 17894633630244433554
21792934 111 13830134984212592107
221357 26 17822006502194709052
22956985 138 17128475107948722766
23081809 10 18272655653616770793
23516275 137 18199209333438975659
23522609 53 17986981667801792753
23559900 14 18262236745576984673
23576562 1 13335607686010324123
249057 3 18040999570414634846
3004659 81 17203331151719663673
34797466 226 17530966907908664884
3633792 109 18187081728388386057
4073 2 17822580528599488746
4098825 35 18261672576216860869
439807 62 18413389825882488129
44389302 135 17560517292982927214
445580 37 15285635465816956711
5104073 3 16629676396614893755
5219985 9 17988925574215431409
5283156 175 18343023280738791505
57527295 17 16880756229469514250
59682541 52 17894348857075236250
59755656 215 16443060582377030059
59755656 520 18341889728102652103

> <PUBCHEM_SHAPE_MULTIPOLES>
528.97
26.96
1.59
1.31
33.37
0.36
-0.03
7.71
-1.6
-4.36
0.04
1.61
-0.11
-1.87

> <PUBCHEM_SHAPE_SELFOVERLAP>
1173.483

> <PUBCHEM_SHAPE_VOLUME>
283.2

> <PUBCHEM_COORDINATE_TYPE>
2
5
10

$$$$
