49830969
  -OEChem-10062121533D

 35 37  0     0  0  0  0  0  0999 V2000
    1.4093    2.4313    0.0001 O   0  0  0  0  0  0  0  0  0  0  0  0
    0.2584   -1.4418   -0.0004 N   0  0  0  0  0  0  0  0  0  0  0  0
    2.5146   -2.2136    0.0001 N   0  0  0  0  0  0  0  0  0  0  0  0
   -4.5071   -0.1529    0.0002 C   0  0  0  0  0  0  0  0  0  0  0  0
   -3.0614    0.2146   -0.0002 C   0  0  0  0  0  0  0  0  0  0  0  0
   -0.7301   -0.4510   -0.0002 C   0  0  0  0  0  0  0  0  0  0  0  0
   -0.3646    0.9045    0.0002 C   0  0  0  0  0  0  0  0  0  0  0  0
   -2.0880   -0.7863   -0.0005 C   0  0  0  0  0  0  0  0  0  0  0  0
    2.0734    0.1506    0.0003 C   0  0  0  0  0  0  0  0  0  0  0  0
    1.0789    1.2530    0.0003 C   0  0  0  0  0  0  0  0  0  0  0  0
   -2.6863    1.5579    0.0004 C   0  0  0  0  0  0  0  0  0  0  0  0
    1.6379   -1.1799    0.0000 C   0  0  0  0  0  0  0  0  0  0  0  0
   -1.3367    1.9086    0.0005 C   0  0  0  0  0  0  0  0  0  0  0  0
   -4.9153   -0.9381   -1.2606 C   0  0  0  0  0  0  0  0  0  0  0  0
   -4.9141   -0.9395    1.2605 C   0  0  0  0  0  0  0  0  0  0  0  0
    3.4408    0.4247    0.0002 C   0  0  0  0  0  0  0  0  0  0  0  0
    4.3431   -0.6300   -0.0001 C   0  0  0  0  0  0  0  0  0  0  0  0
    4.0124    1.8048   -0.0008 C   0  0  0  0  0  0  0  0  0  0  0  0
    3.8348   -1.9169    0.0001 C   0  0  0  0  0  0  0  0  0  0  0  0
   -5.1073    0.7673    0.0009 H   0  0  0  0  0  0  0  0  0  0  0  0
   -2.3754   -1.8353   -0.0008 H   0  0  0  0  0  0  0  0  0  0  0  0
   -3.4347    2.3462    0.0007 H   0  0  0  0  0  0  0  0  0  0  0  0
   -0.0261   -2.4122   -0.0006 H   0  0  0  0  0  0  0  0  0  0  0  0
   -1.0658    2.9604    0.0009 H   0  0  0  0  0  0  0  0  0  0  0  0
   -4.4243   -1.9159   -1.3115 H   0  0  0  0  0  0  0  0  0  0  0  0
   -4.6514   -0.3825   -2.1673 H   0  0  0  0  0  0  0  0  0  0  0  0
   -5.9974   -1.1077   -1.2733 H   0  0  0  0  0  0  0  0  0  0  0  0
   -4.4232   -1.9174    1.3098 H   0  0  0  0  0  0  0  0  0  0  0  0
   -5.9962   -1.1089    1.2740 H   0  0  0  0  0  0  0  0  0  0  0  0
   -4.6492   -0.3849    2.1676 H   0  0  0  0  0  0  0  0  0  0  0  0
    5.4165   -0.4729   -0.0004 H   0  0  0  0  0  0  0  0  0  0  0  0
    5.1088    1.7905   -0.0010 H   0  0  0  0  0  0  0  0  0  0  0  0
    3.7122    2.3524    0.8984 H   0  0  0  0  0  0  0  0  0  0  0  0
    3.7118    2.3513   -0.9006 H   0  0  0  0  0  0  0  0  0  0  0  0
    4.4984   -2.7756    0.0001 H   0  0  0  0  0  0  0  0  0  0  0  0
  1 10  2  0  0  0  0
  2  6  1  0  0  0  0
  2 12  1  0  0  0  0
  2 23  1  0  0  0  0
  3 12  2  0  0  0  0
  3 19  1  0  0  0  0
  4  5  1  0  0  0  0
  4 14  1  0  0  0  0
  4 15  1  0  0  0  0
  4 20  1  0  0  0  0
  5  8  2  0  0  0  0
  5 11  1  0  0  0  0
  6  7  2  0  0  0  0
  6  8  1  0  0  0  0
  7 10  1  0  0  0  0
  7 13  1  0  0  0  0
  8 21  1  0  0  0  0
  9 10  1  0  0  0  0
  9 12  1  0  0  0  0
  9 16  2  0  0  0  0
 11 13  2  0  0  0  0
 11 22  1  0  0  0  0
 13 24  1  0  0  0  0
 14 25  1  0  0  0  0
 14 26  1  0  0  0  0
 14 27  1  0  0  0  0
 15 28  1  0  0  0  0
 15 29  1  0  0  0  0
 15 30  1  0  0  0  0
 16 17  1  0  0  0  0
 16 18  1  0  0  0  0
 17 19  2  0  0  0  0
 17 31  1  0  0  0  0
 18 32  1  0  0  0  0
 18 33  1  0  0  0  0
 18 34  1  0  0  0  0
 19 35  1  0  0  0  0
M  END
> <PUBCHEM_COMPOUND_CID>
49830969

> <PUBCHEM_CONFORMER_RMSD>
0.6

> <PUBCHEM_CONFORMER_DIVERSEORDER>
1
2

> <PUBCHEM_MMFF94_PARTIAL_CHARGES>
23
1 -0.57
10 0.4
11 -0.15
12 0.41
13 -0.15
16 -0.14
17 -0.15
18 0.14
19 0.16
2 -0.6
21 0.15
22 0.15
23 0.4
24 0.15
3 -0.62
31 0.15
35 0.15
4 0.14
5 -0.14
6 0.1
7 0.09
8 -0.15
9 0.09

> <PUBCHEM_EFFECTIVE_ROTOR_COUNT>
1

> <PUBCHEM_PHARMACOPHORE_FEATURES>
7
1 1 acceptor
1 2 donor
3 2 3 12 cation
3 4 14 15 hydrophobe
6 2 6 7 9 10 12 rings
6 3 9 12 16 17 19 rings
6 5 6 7 8 11 13 rings

> <PUBCHEM_HEAVY_ATOM_COUNT>
19

> <PUBCHEM_ATOM_DEF_STEREO_COUNT>
0

> <PUBCHEM_ATOM_UDEF_STEREO_COUNT>
0

> <PUBCHEM_BOND_DEF_STEREO_COUNT>
0

> <PUBCHEM_BOND_UDEF_STEREO_COUNT>
0

> <PUBCHEM_ISOTOPIC_ATOM_COUNT>
0

> <PUBCHEM_COMPONENT_COUNT>
1

> <PUBCHEM_CACTVS_TAUTO_COUNT>
84

> <PUBCHEM_CONFORMER_ID>
02F85C3900000001

> <PUBCHEM_MMFF94_ENERGY>
61.771

> <PUBCHEM_FEATURE_SELFOVERLAP>
35.57

> <PUBCHEM_SHAPE_FINGERPRINT>
10608611 8 18336825291017846604
10967382 1 18410575123697755108
11471102 20 18409726291941137084
11806522 49 18410009935844670709
12032990 46 18338520733541808742
12236239 1 17846501457014323859
12403259 226 18264764377160187428
13140716 1 18050566545357155128
13544653 18 18409169909282868133
13760787 5 18412544319121731415
13862211 1 18411131433373546806
14252887 29 17989213603317048854
14576447 43 18128804425788679415
14787075 74 18411417353551296481
15196674 1 18410855425779239269
15375462 189 18202001036194085601
15442244 35 18267868276804548440
15536298 74 18342457028292993096
16945 1 18338516442964477536
17357779 13 17968642870443267437
17492 89 18267585710648311783
18186145 218 17458341931980181059
19591789 44 18338517434975679670
200 152 18272644654505894221
20028762 73 18202556289440480415
20261772 1 18202281420333830463
20645477 70 18409726266023939151
21267235 1 18411428280354623534
221490 88 18336270063093473898
23402539 116 18342731902079043431
23463225 33 18338235956025365372
23559900 14 18334856142954165592
2748010 2 18338511916169213508
2871803 45 18261106353049603199
312423 11 18340221695136091820
314194 84 18342175583355069523
335352 9 18050568443463785084
33824 294 18409165537111578000
4214541 1 18338797797545168225
465052 167 18343306989526076015
5104073 3 18410856516753719905
5283173 99 18042954386272884517
602551 16 15266769048574470407
69090 78 18343016709502255543
7364860 26 18340767134819363104
9709674 26 18338804415984503734

> <PUBCHEM_SHAPE_MULTIPOLES>
375.18
9.81
2.22
0.78
4.86
0.39
0
-2.78
0
-1.59
0
0.87
-0.16
0

> <PUBCHEM_SHAPE_SELFOVERLAP>
825.6

> <PUBCHEM_SHAPE_VOLUME>
201.9

> <PUBCHEM_COORDINATE_TYPE>
2
5
10

$$$$
