42618143
  -OEChem-10062122023D

 48 51  0     0  0  0  0  0  0999 V2000
   -0.1482    1.4663    0.3690 O   0  0  0  0  0  0  0  0  0  0  0  0
   -2.5914    4.0672    0.1074 N   0  0  0  0  0  0  0  0  0  0  0  0
    5.6568   -0.2541   -0.0822 N   0  0  0  0  0  0  0  0  0  0  0  0
   -5.6409   -2.0375   -0.5749 N   0  0  0  0  0  0  0  0  0  0  0  0
   -0.2660    2.4575   -0.6493 C   0  0  0  0  0  0  0  0  0  0  0  0
   -0.1316    3.8504   -0.0343 C   0  0  0  0  0  0  0  0  0  0  0  0
   -1.6244    2.3015   -1.3309 C   0  0  0  0  0  0  0  0  0  0  0  0
   -1.3345    4.1981    0.8450 C   0  0  0  0  0  0  0  0  0  0  0  0
   -2.7727    2.7090   -0.4050 C   0  0  0  0  0  0  0  0  0  0  0  0
    0.8774    0.5666    0.2392 C   0  0  0  0  0  0  0  0  0  0  0  0
    0.6304   -0.8005    0.1370 C   0  0  0  0  0  0  0  0  0  0  0  0
    2.1876    1.0434    0.2102 C   0  0  0  0  0  0  0  0  0  0  0  0
   -0.7247   -1.3138    0.1652 C   0  0  0  0  0  0  0  0  0  0  0  0
    3.2640    0.1505    0.0778 C   0  0  0  0  0  0  0  0  0  0  0  0
    1.6924   -1.6969    0.0054 C   0  0  0  0  0  0  0  0  0  0  0  0
    3.0182   -1.2342   -0.0257 C   0  0  0  0  0  0  0  0  0  0  0  0
   -1.2198   -2.0356   -0.9210 C   0  0  0  0  0  0  0  0  0  0  0  0
   -1.5336   -1.0866    1.2786 C   0  0  0  0  0  0  0  0  0  0  0  0
    4.1042   -2.1073   -0.1566 C   0  0  0  0  0  0  0  0  0  0  0  0
    4.5945    0.5730    0.0430 C   0  0  0  0  0  0  0  0  0  0  0  0
   -3.3328   -2.3025    0.2197 C   0  0  0  0  0  0  0  0  0  0  0  0
   -2.5238   -2.5299   -0.8938 C   0  0  0  0  0  0  0  0  0  0  0  0
   -2.8376   -1.5809    1.3058 C   0  0  0  0  0  0  0  0  0  0  0  0
    5.3833   -1.5727   -0.1786 C   0  0  0  0  0  0  0  0  0  0  0  0
   -4.7269   -2.8308    0.2487 C   0  0  0  0  0  0  0  0  0  0  0  0
    0.5105    2.3307   -1.4156 H   0  0  0  0  0  0  0  0  0  0  0  0
   -0.0427    4.5948   -0.8357 H   0  0  0  0  0  0  0  0  0  0  0  0
    0.7768    3.9135    0.5749 H   0  0  0  0  0  0  0  0  0  0  0  0
   -1.7747    1.2619   -1.6444 H   0  0  0  0  0  0  0  0  0  0  0  0
   -1.6520    2.9242   -2.2341 H   0  0  0  0  0  0  0  0  0  0  0  0
   -1.3531    3.5619    1.7383 H   0  0  0  0  0  0  0  0  0  0  0  0
   -1.2352    5.2322    1.1927 H   0  0  0  0  0  0  0  0  0  0  0  0
   -3.7140    2.6648   -0.9637 H   0  0  0  0  0  0  0  0  0  0  0  0
   -2.8638    2.0006    0.4275 H   0  0  0  0  0  0  0  0  0  0  0  0
   -3.3690    4.3003    0.7243 H   0  0  0  0  0  0  0  0  0  0  0  0
    2.3843    2.1093    0.3012 H   0  0  0  0  0  0  0  0  0  0  0  0
    1.5001   -2.7668   -0.0676 H   0  0  0  0  0  0  0  0  0  0  0  0
   -0.6084   -2.2185   -1.8016 H   0  0  0  0  0  0  0  0  0  0  0  0
   -1.1657   -0.5342    2.1400 H   0  0  0  0  0  0  0  0  0  0  0  0
    3.9635   -3.1806   -0.2395 H   0  0  0  0  0  0  0  0  0  0  0  0
    4.8537    1.6256    0.1178 H   0  0  0  0  0  0  0  0  0  0  0  0
   -2.8981   -3.0904   -1.7465 H   0  0  0  0  0  0  0  0  0  0  0  0
   -3.4562   -1.3957    2.1800 H   0  0  0  0  0  0  0  0  0  0  0  0
    6.2507   -2.2172   -0.2784 H   0  0  0  0  0  0  0  0  0  0  0  0
   -4.7352   -3.8724   -0.0946 H   0  0  0  0  0  0  0  0  0  0  0  0
   -5.1078   -2.8479    1.2766 H   0  0  0  0  0  0  0  0  0  0  0  0
   -6.5775   -2.4352   -0.5119 H   0  0  0  0  0  0  0  0  0  0  0  0
   -5.3707   -2.1127   -1.5551 H   0  0  0  0  0  0  0  0  0  0  0  0
  1  5  1  0  0  0  0
  1 10  1  0  0  0  0
  2  8  1  0  0  0  0
  2  9  1  0  0  0  0
  2 35  1  0  0  0  0
  3 20  2  0  0  0  0
  3 24  1  0  0  0  0
  4 25  1  0  0  0  0
  4 47  1  0  0  0  0
  4 48  1  0  0  0  0
  5  6  1  0  0  0  0
  5  7  1  0  0  0  0
  5 26  1  0  0  0  0
  6  8  1  0  0  0  0
  6 27  1  0  0  0  0
  6 28  1  0  0  0  0
  7  9  1  0  0  0  0
  7 29  1  0  0  0  0
  7 30  1  0  0  0  0
  8 31  1  0  0  0  0
  8 32  1  0  0  0  0
  9 33  1  0  0  0  0
  9 34  1  0  0  0  0
 10 11  2  0  0  0  0
 10 12  1  0  0  0  0
 11 13  1  0  0  0  0
 11 15  1  0  0  0  0
 12 14  2  0  0  0  0
 12 36  1  0  0  0  0
 13 17  2  0  0  0  0
 13 18  1  0  0  0  0
 14 16  1  0  0  0  0
 14 20  1  0  0  0  0
 15 16  2  0  0  0  0
 15 37  1  0  0  0  0
 16 19  1  0  0  0  0
 17 22  1  0  0  0  0
 17 38  1  0  0  0  0
 18 23  2  0  0  0  0
 18 39  1  0  0  0  0
 19 24  2  0  0  0  0
 19 40  1  0  0  0  0
 20 41  1  0  0  0  0
 21 22  2  0  0  0  0
 21 23  1  0  0  0  0
 21 25  1  0  0  0  0
 22 42  1  0  0  0  0
 23 43  1  0  0  0  0
 24 44  1  0  0  0  0
 25 45  1  0  0  0  0
 25 46  1  0  0  0  0
M  END
> <PUBCHEM_COMPOUND_CID>
42618143

> <PUBCHEM_CONFORMER_RMSD>
0.8

> <PUBCHEM_CONFORMER_DIVERSEORDER>
1
8
4
14
13
9
11
10
15
12
7
2
5
6
3

> <PUBCHEM_MMFF94_PARTIAL_CHARGES>
31
1 -0.36
10 0.08
12 -0.15
15 -0.15
17 -0.15
18 -0.15
19 -0.15
2 -0.9
20 0.16
21 -0.14
22 -0.15
23 -0.15
24 0.16
25 0.41
3 -0.62
35 0.36
36 0.15
37 0.15
38 0.15
39 0.15
4 -0.99
40 0.15
41 0.15
42 0.15
43 0.15
44 0.15
47 0.36
48 0.36
5 0.28
8 0.27
9 0.27

> <PUBCHEM_EFFECTIVE_ROTOR_COUNT>
5.2

> <PUBCHEM_PHARMACOPHORE_FEATURES>
10
1 1 acceptor
1 2 cation
1 2 donor
1 3 acceptor
1 4 cation
1 4 donor
6 10 11 12 14 15 16 rings
6 13 17 18 21 22 23 rings
6 2 5 6 7 8 9 rings
6 3 14 16 19 20 24 rings

> <PUBCHEM_HEAVY_ATOM_COUNT>
25

> <PUBCHEM_ATOM_DEF_STEREO_COUNT>
0

> <PUBCHEM_ATOM_UDEF_STEREO_COUNT>
0

> <PUBCHEM_BOND_DEF_STEREO_COUNT>
0

> <PUBCHEM_BOND_UDEF_STEREO_COUNT>
0

> <PUBCHEM_ISOTOPIC_ATOM_COUNT>
0

> <PUBCHEM_COMPONENT_COUNT>
1

> <PUBCHEM_CACTVS_TAUTO_COUNT>
1

> <PUBCHEM_CONFORMER_ID>
028A4D1F00000001

> <PUBCHEM_MMFF94_ENERGY>
70.8408

> <PUBCHEM_FEATURE_SELFOVERLAP>
50.774

> <PUBCHEM_SHAPE_FINGERPRINT>
10050765 1 18338517423098320362
10411042 1 18338517555171551419
10688039 33 18261111910753225663
1100329 8 18409450267779779989
11045515 52 18336825415587689927
11578080 2 17702643549794689088
12160290 23 18049125965770173996
12166972 35 17986109837101660091
12236239 1 17845661476537359387
12516196 113 18337953518665354738
12553582 1 18267013037315881942
12643181 29 17835529216055247166
12741549 16 17605539149432061077
12788726 201 18333724719550894050
13004483 165 18340760524564001258
13134695 92 18194120952427446647
13140716 1 18265043627781357658
13540713 4 18129940067235191274
13540713 5 18114747011251856050
13590594 115 18337678606988938297
13692114 37 17981586201113912177
138480 1 15816501317330686833
13911987 19 17322133555332277444
13965767 371 17769133113854753875
14028597 1 17676752215465774090
14363568 33 17904212772892189849
14713325 29 18339643317586485311
14866123 147 18120091684680222866
14931854 50 18118937275829697621
15042514 8 18338235968403832556
15420108 30 16972782495628008608
15775530 1 17770522849313143838
15927050 60 17833552288872057458
16087824 20 18338235965291091917
17138139 8 17765106702669743525
17357779 13 18336814398764259639
17980427 23 17773895228069987699
1813 80 18198360613334903454
18335252 114 18339067307819334559
19427546 62 17762059843663080785
21041028 32 18336270153556819055
21049683 271 17827931941722410430
21307412 95 17338454281055333006
21478907 32 18410009948576585202
21641784 216 18041576818272104500
22182313 1 18195502978372125984
23175994 123 18187928455685024879
23419403 2 17702928340196138137
23557571 272 18410859850017554142
23558518 356 18189061906423773482
23559900 14 18049717714234436195
23845131 108 17688879635927350769
283562 15 18334295362154739178
3091708 16 9206180614209042088
350125 39 18411423934253921456
38695281 34 17545034905714598188
3886686 26 17614528495178107794
4144715 1 17899419976923835355
4409770 3 18337668603588014999
469060 322 16515975769878239493
5104073 3 18263915567764467434
5969126 39 18412819201260540678
6004065 56 18049715514672947795
6443956 14 18192992840448883605
7164475 11 18408892828289732142
7237137 82 18335714823376573668
79837 15 17980481165699303392
81228 2 18259983777553228808
84936 182 17119452931931600737
9709674 26 18198060266741171670
9925002 15 18041860423231132764

> <PUBCHEM_SHAPE_MULTIPOLES>
493.68
9.5
5.24
0.97
6.46
6.28
0.02
-8.17
-0.49
-6.22
-0.06
-0.68
-0.01
0.23

> <PUBCHEM_SHAPE_SELFOVERLAP>
1081.231

> <PUBCHEM_SHAPE_VOLUME>
266.8

> <PUBCHEM_COORDINATE_TYPE>
2
5
10

$$$$
