44364044
  -OEChem-10062121593D

 63 70  0     1  0  0  0  0  0999 V2000
   -5.2966   -1.3267    0.7579 O   0  0  0  0  0  0  0  0  0  0  0  0
   -3.5574    2.6508    1.9889 O   0  0  0  0  0  0  0  0  0  0  0  0
    4.3726   -2.7255    1.0586 O   0  0  0  0  0  0  0  0  0  0  0  0
    4.8252    1.8407    0.7420 O   0  0  0  0  0  0  0  0  0  0  0  0
   -2.0119    0.0645   -1.8894 N   0  0  0  0  0  0  0  0  0  0  0  0
   -0.6892   -1.5289   -0.7192 N   0  0  0  0  0  0  0  0  0  0  0  0
   -0.4245    1.4355   -0.8348 N   0  0  0  0  0  0  0  0  0  0  0  0
    4.9614   -0.4709    1.0070 N   0  0  0  0  0  0  0  0  0  0  0  0
   -2.0387   -1.1553   -1.1093 C   0  0  1  0  0  0  0  0  0  0  0  0
   -1.8389    1.2678   -1.0976 C   0  0  2  0  0  0  0  0  0  0  0  0
   -3.0099   -1.1456    0.0903 C   0  0  1  0  0  0  0  0  0  0  0  0
   -2.7810    1.3668    0.1300 C   0  0  1  0  0  0  0  0  0  0  0  0
   -2.7760    0.0871    0.9686 C   0  0  0  0  0  0  0  0  0  0  0  0
    0.4421   -0.8361   -0.3833 C   0  0  0  0  0  0  0  0  0  0  0  0
    0.5746    0.5803   -0.4543 C   0  0  0  0  0  0  0  0  0  0  0  0
    1.6337   -1.5489    0.0481 C   0  0  0  0  0  0  0  0  0  0  0  0
    1.8929    1.0958   -0.1266 C   0  0  0  0  0  0  0  0  0  0  0  0
   -4.4671   -1.2338   -0.3824 C   0  0  0  0  0  0  0  0  0  0  0  0
   -2.5255    2.5819    1.0239 C   0  0  0  0  0  0  0  0  0  0  0  0
   -0.2816   -2.8546   -0.5093 C   0  0  0  0  0  0  0  0  0  0  0  0
    0.2567    2.6610   -0.8768 C   0  0  0  0  0  0  0  0  0  0  0  0
    1.0697   -2.8976   -0.0559 C   0  0  0  0  0  0  0  0  0  0  0  0
    1.6043    2.4985   -0.4356 C   0  0  0  0  0  0  0  0  0  0  0  0
    2.8590   -0.9987    0.4059 C   0  0  0  0  0  0  0  0  0  0  0  0
    2.9950    0.3701    0.3101 C   0  0  0  0  0  0  0  0  0  0  0  0
   -1.0247   -4.0436   -0.6779 C   0  0  0  0  0  0  0  0  0  0  0  0
   -0.2232    3.9323   -1.2622 C   0  0  0  0  0  0  0  0  0  0  0  0
    1.6278   -4.1759    0.2024 C   0  0  0  0  0  0  0  0  0  0  0  0
    2.4202    3.6586   -0.3921 C   0  0  0  0  0  0  0  0  0  0  0  0
    4.1269   -1.5532    0.8579 C   0  0  0  0  0  0  0  0  0  0  0  0
    4.3530    0.7227    0.6985 C   0  0  0  0  0  0  0  0  0  0  0  0
   -0.4314   -5.2759   -0.4075 C   0  0  0  0  0  0  0  0  0  0  0  0
    0.6190    5.0421   -1.2022 C   0  0  0  0  0  0  0  0  0  0  0  0
    0.8806   -5.3435    0.0266 C   0  0  0  0  0  0  0  0  0  0  0  0
    1.9260    4.9093   -0.7696 C   0  0  0  0  0  0  0  0  0  0  0  0
   -6.6738   -1.4129    0.4058 C   0  0  0  0  0  0  0  0  0  0  0  0
   -3.3897    3.7616    2.8635 C   0  0  0  0  0  0  0  0  0  0  0  0
   -2.3638   -1.9359   -1.8074 H   0  0  0  0  0  0  0  0  0  0  0  0
   -2.1204    2.0856   -1.7698 H   0  0  0  0  0  0  0  0  0  0  0  0
   -2.8264   -2.0216    0.7276 H   0  0  0  0  0  0  0  0  0  0  0  0
   -3.8022    1.4850   -0.2594 H   0  0  0  0  0  0  0  0  0  0  0  0
   -3.5304    0.1362    1.7623 H   0  0  0  0  0  0  0  0  0  0  0  0
   -1.8123   -0.0124    1.4841 H   0  0  0  0  0  0  0  0  0  0  0  0
   -1.3489    0.0123   -2.6612 H   0  0  0  0  0  0  0  0  0  0  0  0
   -4.5989   -2.1356   -0.9929 H   0  0  0  0  0  0  0  0  0  0  0  0
   -4.7552   -0.3698   -0.9904 H   0  0  0  0  0  0  0  0  0  0  0  0
   -2.5440    3.4976    0.4239 H   0  0  0  0  0  0  0  0  0  0  0  0
   -1.5563    2.5021    1.5294 H   0  0  0  0  0  0  0  0  0  0  0  0
   -2.0575   -4.0172   -1.0133 H   0  0  0  0  0  0  0  0  0  0  0  0
   -1.2449    4.0689   -1.6038 H   0  0  0  0  0  0  0  0  0  0  0  0
    2.6516   -4.2770    0.5443 H   0  0  0  0  0  0  0  0  0  0  0  0
    3.4540    3.5992   -0.0709 H   0  0  0  0  0  0  0  0  0  0  0  0
    5.9240   -0.5447    1.3169 H   0  0  0  0  0  0  0  0  0  0  0  0
   -1.0059   -6.1888   -0.5388 H   0  0  0  0  0  0  0  0  0  0  0  0
    0.2429    6.0179   -1.4972 H   0  0  0  0  0  0  0  0  0  0  0  0
    1.3346   -6.3086    0.2337 H   0  0  0  0  0  0  0  0  0  0  0  0
    2.5750    5.7795   -0.7271 H   0  0  0  0  0  0  0  0  0  0  0  0
   -7.2594   -1.4861    1.3260 H   0  0  0  0  0  0  0  0  0  0  0  0
   -6.8588   -2.3055   -0.1994 H   0  0  0  0  0  0  0  0  0  0  0  0
   -6.9859   -0.5159   -0.1376 H   0  0  0  0  0  0  0  0  0  0  0  0
   -4.2144    3.7610    3.5813 H   0  0  0  0  0  0  0  0  0  0  0  0
   -3.4159    4.6995    2.3004 H   0  0  0  0  0  0  0  0  0  0  0  0
   -2.4472    3.6768    3.4129 H   0  0  0  0  0  0  0  0  0  0  0  0
  1 18  1  0  0  0  0
  1 36  1  0  0  0  0
  2 19  1  0  0  0  0
  2 37  1  0  0  0  0
  3 30  2  0  0  0  0
  4 31  2  0  0  0  0
  5  9  1  0  0  0  0
  5 10  1  0  0  0  0
  5 44  1  0  0  0  0
  6  9  1  0  0  0  0
  6 14  1  0  0  0  0
  6 20  1  0  0  0  0
  7 10  1  0  0  0  0
  7 15  1  0  0  0  0
  7 21  1  0  0  0  0
  8 30  1  0  0  0  0
  8 31  1  0  0  0  0
  8 53  1  0  0  0  0
  9 11  1  0  0  0  0
  9 38  1  0  0  0  0
 10 12  1  0  0  0  0
 10 39  1  0  0  0  0
 11 13  1  0  0  0  0
 11 18  1  0  0  0  0
 11 40  1  0  0  0  0
 12 13  1  0  0  0  0
 12 19  1  0  0  0  0
 12 41  1  0  0  0  0
 13 42  1  0  0  0  0
 13 43  1  0  0  0  0
 14 15  2  0  0  0  0
 14 16  1  0  0  0  0
 15 17  1  0  0  0  0
 16 22  1  0  0  0  0
 16 24  2  0  0  0  0
 17 23  1  0  0  0  0
 17 25  2  0  0  0  0
 18 45  1  0  0  0  0
 18 46  1  0  0  0  0
 19 47  1  0  0  0  0
 19 48  1  0  0  0  0
 20 22  1  0  0  0  0
 20 26  2  0  0  0  0
 21 23  1  0  0  0  0
 21 27  2  0  0  0  0
 22 28  2  0  0  0  0
 23 29  2  0  0  0  0
 24 25  1  0  0  0  0
 24 30  1  0  0  0  0
 25 31  1  0  0  0  0
 26 32  1  0  0  0  0
 26 49  1  0  0  0  0
 27 33  1  0  0  0  0
 27 50  1  0  0  0  0
 28 34  1  0  0  0  0
 28 51  1  0  0  0  0
 29 35  1  0  0  0  0
 29 52  1  0  0  0  0
 32 34  2  0  0  0  0
 32 54  1  0  0  0  0
 33 35  2  0  0  0  0
 33 55  1  0  0  0  0
 34 56  1  0  0  0  0
 35 57  1  0  0  0  0
 36 58  1  0  0  0  0
 36 59  1  0  0  0  0
 36 60  1  0  0  0  0
 37 61  1  0  0  0  0
 37 62  1  0  0  0  0
 37 63  1  0  0  0  0
M  END
> <PUBCHEM_COMPOUND_CID>
44364044

> <PUBCHEM_CONFORMER_RMSD>
0.8

> <PUBCHEM_CONFORMER_DIVERSEORDER>
1
3
5
2
4

> <PUBCHEM_MMFF94_PARTIAL_CHARGES>
42
1 -0.56
10 0.53
14 -0.05
15 -0.05
16 -0.01
17 -0.01
18 0.28
19 0.28
2 -0.56
20 -0.15
21 -0.15
24 0.09
25 0.09
26 -0.15
27 -0.15
28 -0.15
29 -0.15
3 -0.57
30 0.54
31 0.54
32 -0.15
33 -0.15
34 -0.15
35 -0.15
36 0.28
37 0.28
4 -0.57
44 0.36
49 0.15
5 -0.9
50 0.15
51 0.15
52 0.15
53 0.37
54 0.15
55 0.15
56 0.15
57 0.15
6 -0.04
7 -0.04
8 -0.49
9 0.53

> <PUBCHEM_EFFECTIVE_ROTOR_COUNT>
5

> <PUBCHEM_PHARMACOPHORE_FEATURES>
17
1 1 acceptor
1 2 acceptor
1 3 acceptor
1 4 acceptor
1 5 cation
1 5 donor
1 6 cation
1 7 cation
1 8 donor
5 6 14 16 20 22 rings
5 7 15 17 21 23 rings
5 8 24 25 30 31 rings
6 14 15 16 17 24 25 rings
6 20 22 26 28 32 34 rings
6 21 23 27 29 33 35 rings
6 5 9 10 11 12 13 rings
7 5 6 7 9 10 14 15 rings

> <PUBCHEM_HEAVY_ATOM_COUNT>
37

> <PUBCHEM_ATOM_DEF_STEREO_COUNT>
2

> <PUBCHEM_ATOM_UDEF_STEREO_COUNT>
2

> <PUBCHEM_BOND_DEF_STEREO_COUNT>
0

> <PUBCHEM_BOND_UDEF_STEREO_COUNT>
0

> <PUBCHEM_ISOTOPIC_ATOM_COUNT>
0

> <PUBCHEM_COMPONENT_COUNT>
1

> <PUBCHEM_CACTVS_TAUTO_COUNT>
2

> <PUBCHEM_CONFORMER_ID>
02A4F10C00000001

> <PUBCHEM_MMFF94_ENERGY>
146.5245

> <PUBCHEM_FEATURE_SELFOVERLAP>
87.601

> <PUBCHEM_SHAPE_FINGERPRINT>
1100329 8 18121777502319384078
11578080 2 16043018502185348835
12788726 201 17915197921010233745
13140716 1 18267861688451225876
13911987 19 18189599602037781172
140371 6 18336557049362882843
14068700 675 18057297622556539343
14178342 30 18270407070733486289
14400156 413 18409722973250690293
14790565 3 18338807719526251140
14955137 171 18334299794518816286
15351339 4 17183618235795298256
15420108 30 17771622348182176199
15927050 60 17760936537926359310
16728300 4 17606930981029995474
19319366 153 17763188338173087101
19591789 44 18338227164343874774
20028762 73 18271804691783981159
20642791 105 16968002927187779389
20739085 24 18336552616608350080
21033648 29 18129360713699172816
21796203 349 18117025297474423352
3380486 145 18046352929290260229
350125 39 18336826523351772309
469060 322 18337959991196290449
5171179 24 17115497446870814173
5309563 4 18335134233275536043

> <PUBCHEM_SHAPE_MULTIPOLES>
718.04
8.47
7.9
1.44
5.46
1.6
0.6
0.11
3.87
-2.02
-0.52
0.95
-1.61
-2.91

> <PUBCHEM_SHAPE_SELFOVERLAP>
1645.327

> <PUBCHEM_SHAPE_VOLUME>
370.5

> <PUBCHEM_COORDINATE_TYPE>
2
5
10

$$$$
