5057999
  -OEChem-10062121533D

 36 38  0     0  0  0  0  0  0999 V2000
   -7.7248    0.9750   -0.3794 Cl  0  0  0  0  0  0  0  0  0  0  0  0
   -2.2441    1.6562   -0.5959 S   0  0  0  0  0  0  0  0  0  0  0  0
    3.0264   -2.4356   -0.1305 O   0  0  0  0  0  0  0  0  0  0  0  0
    6.2900    1.0354   -0.1091 O   0  0  0  0  0  0  0  0  0  0  0  0
    0.7025   -1.6815    0.8276 O   0  0  0  0  0  0  0  0  0  0  0  0
   -0.0247    0.3856   -0.0412 N   0  0  0  0  0  0  0  0  0  0  0  0
   -2.1167   -0.7202    0.3984 N   0  0  0  0  0  0  0  0  0  0  0  0
    2.3625   -0.1611    0.2409 C   0  0  0  0  0  0  0  0  0  0  0  0
   -3.7334    0.8484   -0.2760 C   0  0  0  0  0  0  0  0  0  0  0  0
   -3.4627   -0.4161    0.2556 C   0  0  0  0  0  0  0  0  0  0  0  0
    3.3309   -1.1134   -0.0014 C   0  0  0  0  0  0  0  0  0  0  0  0
   -1.3909    0.2918   -0.0160 C   0  0  0  0  0  0  0  0  0  0  0  0
    0.9389   -0.5699    0.3667 C   0  0  0  0  0  0  0  0  0  0  0  0
    2.6657    1.1795    0.3690 C   0  0  0  0  0  0  0  0  0  0  0  0
    4.6604   -0.7084   -0.1204 C   0  0  0  0  0  0  0  0  0  0  0  0
    4.9924    0.6405    0.0052 C   0  0  0  0  0  0  0  0  0  0  0  0
   -5.0468    1.3010   -0.4807 C   0  0  0  0  0  0  0  0  0  0  0  0
   -4.5466   -1.2553    0.5934 C   0  0  0  0  0  0  0  0  0  0  0  0
    3.9950    1.5845    0.2500 C   0  0  0  0  0  0  0  0  0  0  0  0
   -6.1011    0.4509   -0.1379 C   0  0  0  0  0  0  0  0  0  0  0  0
   -5.8566   -0.8111    0.3923 C   0  0  0  0  0  0  0  0  0  0  0  0
    2.7244   -2.9055   -1.4425 C   0  0  0  0  0  0  0  0  0  0  0  0
    6.5593    2.4294    0.0319 C   0  0  0  0  0  0  0  0  0  0  0  0
    1.9234    1.9383    0.5947 H   0  0  0  0  0  0  0  0  0  0  0  0
    0.3035    1.2597   -0.4418 H   0  0  0  0  0  0  0  0  0  0  0  0
    5.4390   -1.4431   -0.3106 H   0  0  0  0  0  0  0  0  0  0  0  0
   -5.2321    2.2879   -0.8958 H   0  0  0  0  0  0  0  0  0  0  0  0
   -4.3666   -2.2431    1.0081 H   0  0  0  0  0  0  0  0  0  0  0  0
    4.1843    2.6462    0.3663 H   0  0  0  0  0  0  0  0  0  0  0  0
   -6.6796   -1.4705    0.6576 H   0  0  0  0  0  0  0  0  0  0  0  0
    3.6014   -2.8133   -2.0909 H   0  0  0  0  0  0  0  0  0  0  0  0
    1.8820   -2.3538   -1.8715 H   0  0  0  0  0  0  0  0  0  0  0  0
    2.4508   -3.9619   -1.3732 H   0  0  0  0  0  0  0  0  0  0  0  0
    6.0738    3.0149   -0.7563 H   0  0  0  0  0  0  0  0  0  0  0  0
    7.6392    2.5639   -0.0894 H   0  0  0  0  0  0  0  0  0  0  0  0
    6.3030    2.7893    1.0341 H   0  0  0  0  0  0  0  0  0  0  0  0
  1 20  1  0  0  0  0
  2  9  1  0  0  0  0
  2 12  1  0  0  0  0
  3 11  1  0  0  0  0
  3 22  1  0  0  0  0
  4 16  1  0  0  0  0
  4 23  1  0  0  0  0
  5 13  2  0  0  0  0
  6 12  1  0  0  0  0
  6 13  1  0  0  0  0
  6 25  1  0  0  0  0
  7 10  1  0  0  0  0
  7 12  2  0  0  0  0
  8 11  2  0  0  0  0
  8 13  1  0  0  0  0
  8 14  1  0  0  0  0
  9 10  2  0  0  0  0
  9 17  1  0  0  0  0
 10 18  1  0  0  0  0
 11 15  1  0  0  0  0
 14 19  2  0  0  0  0
 14 24  1  0  0  0  0
 15 16  2  0  0  0  0
 15 26  1  0  0  0  0
 16 19  1  0  0  0  0
 17 20  2  0  0  0  0
 17 27  1  0  0  0  0
 18 21  2  0  0  0  0
 18 28  1  0  0  0  0
 19 29  1  0  0  0  0
 20 21  1  0  0  0  0
 21 30  1  0  0  0  0
 22 31  1  0  0  0  0
 22 32  1  0  0  0  0
 22 33  1  0  0  0  0
 23 34  1  0  0  0  0
 23 35  1  0  0  0  0
 23 36  1  0  0  0  0
M  END
> <PUBCHEM_COMPOUND_CID>
5057999

> <PUBCHEM_CONFORMER_RMSD>
0.8

> <PUBCHEM_CONFORMER_DIVERSEORDER>
2
5
9
6
1
10
3
7
8
4

> <PUBCHEM_MMFF94_PARTIAL_CHARGES>
30
1 -0.18
10 0.23
11 0.08
12 0.44
13 0.54
14 -0.15
15 -0.15
16 0.08
17 -0.15
18 -0.15
19 -0.15
2 -0.08
20 0.18
21 -0.15
22 0.28
23 0.28
24 0.15
25 0.37
26 0.15
27 0.15
28 0.15
29 0.15
3 -0.36
30 0.15
4 -0.36
5 -0.57
6 -0.49
7 -0.57
8 0.09
9 0.04

> <PUBCHEM_EFFECTIVE_ROTOR_COUNT>
5

> <PUBCHEM_PHARMACOPHORE_FEATURES>
7
1 3 acceptor
1 4 acceptor
1 5 acceptor
1 6 donor
5 2 7 9 10 12 rings
6 8 11 14 15 16 19 rings
6 9 10 17 18 20 21 rings

> <PUBCHEM_HEAVY_ATOM_COUNT>
23

> <PUBCHEM_ATOM_DEF_STEREO_COUNT>
0

> <PUBCHEM_ATOM_UDEF_STEREO_COUNT>
0

> <PUBCHEM_BOND_DEF_STEREO_COUNT>
0

> <PUBCHEM_BOND_UDEF_STEREO_COUNT>
0

> <PUBCHEM_ISOTOPIC_ATOM_COUNT>
0

> <PUBCHEM_COMPONENT_COUNT>
1

> <PUBCHEM_CACTVS_TAUTO_COUNT>
3

> <PUBCHEM_CONFORMER_ID>
004D2DCF00000002

> <PUBCHEM_MMFF94_ENERGY>
78.7693

> <PUBCHEM_FEATURE_SELFOVERLAP>
35.603

> <PUBCHEM_SHAPE_FINGERPRINT>
10 15 17821728359722184296
10411042 1 17907297655651446750
10595046 47 18343300353790573161
10835480 77 18408599245705853125
10968037 39 18334856126465295365
11315181 36 18271810147030055089
11719270 70 18343297051356959114
12107183 9 17480311071640224187
12166972 35 12179843909622718230
12236239 1 17561367266255365697
12516196 113 18409729561012895773
12730499 353 18413393146446271170
12788726 201 16773805753180938115
13383665 225 17969803907499171132
13402501 40 18334012813146014864
13533116 47 17917710150323306651
14341114 176 18410297990790542913
14933364 13 18409450284737661329
15183329 4 18273215270891777089
15196674 1 18335138670224133571
15537594 2 17418369194704159127
15961568 22 18041000652572918564
17844677 252 18268154171445050865
18335252 98 18411141364150240619
19427546 62 18337673126494695030
20157964 124 18413108342331699478
20645477 70 18270963440707579678
21150785 3 17774999111900501013
220451 1 17346876741791574951
221357 26 18341612577255798080
23557571 272 18040434352449657781
23559900 14 18337386136738129353
239999 70 18339925913950911550
300161 21 17603579717185887019
3004659 81 18335139739692388122
34797466 226 18201725028621013757
3545911 37 18409448093871732721
4073 2 18113623412571927715
4325135 7 18407759248295782901
4340502 62 16588018027036340112
46194498 28 18200033928567424974
5104073 3 18187929426415803689
542803 24 17060340721120536881
59755656 215 18409451375680232790
59755656 520 17313379062877962730
6025842 7 18201439147477765022
6327066 14 18267868475138357428
67856867 119 17822580537395424557

> <PUBCHEM_SHAPE_MULTIPOLES>
451.48
18.49
2.32
0.81
10.48
0.81
-0.12
-7.55
-0.92
-3.15
-0.51
0.02
0.27
1.35

> <PUBCHEM_SHAPE_SELFOVERLAP>
962.95

> <PUBCHEM_SHAPE_VOLUME>
254.5

> <PUBCHEM_COORDINATE_TYPE>
2
5
10

$$$$
