9811611
  -OEChem-10052120443D

 56 58  0     0  0  0  0  0  0999 V2000
    9.3389   -1.5285    1.0808 Br  0  0  0  0  0  0  0  0  0  0  0  0
   -0.2789    1.0108   -1.8439 S   0  0  0  0  0  0  0  0  0  0  0  0
    4.4767   -2.6926   -0.4041 F   0  0  0  0  0  0  0  0  0  0  0  0
    5.8445    1.8327   -0.8407 F   0  0  0  0  0  0  0  0  0  0  0  0
   -2.9722    1.7805   -1.8008 O   0  0  0  0  0  0  0  0  0  0  0  0
    2.9159    0.2992   -0.1051 O   0  0  0  0  0  0  0  0  0  0  0  0
   -0.1624    1.4634    2.6829 O   0  0  0  0  0  0  0  0  0  0  0  0
   -6.9312   -1.4980    0.0330 N   0  0  0  0  0  0  0  0  0  0  0  0
   -4.0234    2.3006    0.1893 N   0  0  0  0  0  0  0  0  0  0  0  0
   -1.8109    1.6791    0.2426 N   0  0  0  0  0  0  0  0  0  0  0  0
    1.3186    0.5733   -1.7047 N   0  0  0  0  0  0  0  0  0  0  0  0
    2.0215    0.8427    2.4795 N   0  0  0  0  0  0  0  0  0  0  0  0
   -5.6594   -2.0210    0.5314 C   0  0  0  0  0  0  0  0  0  0  0  0
   -7.8248   -2.6549   -0.0145 C   0  0  0  0  0  0  0  0  0  0  0  0
   -5.5117   -3.3347   -0.2221 C   0  0  0  0  0  0  0  0  0  0  0  0
   -6.9346   -3.7494   -0.5840 C   0  0  0  0  0  0  0  0  0  0  0  0
   -7.4551   -0.4252    0.8652 C   0  0  0  0  0  0  0  0  0  0  0  0
   -6.5029    0.7712    0.9229 C   0  0  0  0  0  0  0  0  0  0  0  0
   -6.2161    1.3770   -0.4566 C   0  0  0  0  0  0  0  0  0  0  0  0
   -5.3096    2.6020   -0.3767 C   0  0  0  0  0  0  0  0  0  0  0  0
   -2.9188    1.9013   -0.5796 C   0  0  0  0  0  0  0  0  0  0  0  0
   -0.5407    1.2725   -0.1715 C   0  0  0  0  0  0  0  0  0  0  0  0
    0.6335    1.0150    0.5022 C   0  0  0  0  0  0  0  0  0  0  0  0
    1.6491    0.6239   -0.4164 C   0  0  0  0  0  0  0  0  0  0  0  0
    3.7782   -0.0665   -1.1864 C   0  0  0  0  0  0  0  0  0  0  0  0
    5.1287   -0.4216   -0.6372 C   0  0  0  0  0  0  0  0  0  0  0  0
    0.7743    1.1347    1.9288 C   0  0  0  0  0  0  0  0  0  0  0  0
    5.4081   -1.7380   -0.2702 C   0  0  0  0  0  0  0  0  0  0  0  0
    6.1041    0.5649   -0.4921 C   0  0  0  0  0  0  0  0  0  0  0  0
    6.6630   -2.0679    0.2416 C   0  0  0  0  0  0  0  0  0  0  0  0
    7.3589    0.2350    0.0198 C   0  0  0  0  0  0  0  0  0  0  0  0
    7.6384   -1.0814    0.3867 C   0  0  0  0  0  0  0  0  0  0  0  0
   -5.6922   -2.2160    1.6111 H   0  0  0  0  0  0  0  0  0  0  0  0
   -4.8112   -1.3630    0.3181 H   0  0  0  0  0  0  0  0  0  0  0  0
   -8.6990   -2.4760   -0.6484 H   0  0  0  0  0  0  0  0  0  0  0  0
   -8.1715   -2.9436    0.9861 H   0  0  0  0  0  0  0  0  0  0  0  0
   -4.9225   -3.1962   -1.1363 H   0  0  0  0  0  0  0  0  0  0  0  0
   -5.0114   -4.0933    0.3883 H   0  0  0  0  0  0  0  0  0  0  0  0
   -7.1890   -4.7304   -0.1699 H   0  0  0  0  0  0  0  0  0  0  0  0
   -7.0378   -3.8075   -1.6740 H   0  0  0  0  0  0  0  0  0  0  0  0
   -7.6488   -0.7726    1.8885 H   0  0  0  0  0  0  0  0  0  0  0  0
   -8.4159   -0.0870    0.4574 H   0  0  0  0  0  0  0  0  0  0  0  0
   -6.9662    1.5410    1.5536 H   0  0  0  0  0  0  0  0  0  0  0  0
   -5.5703    0.4949    1.4275 H   0  0  0  0  0  0  0  0  0  0  0  0
   -5.7460    0.6300   -1.1068 H   0  0  0  0  0  0  0  0  0  0  0  0
   -7.1615    1.6671   -0.9306 H   0  0  0  0  0  0  0  0  0  0  0  0
   -5.1714    3.0226   -1.3787 H   0  0  0  0  0  0  0  0  0  0  0  0
   -5.7678    3.3750    0.2495 H   0  0  0  0  0  0  0  0  0  0  0  0
   -3.9110    2.3765    1.1955 H   0  0  0  0  0  0  0  0  0  0  0  0
   -1.9227    1.8223    1.2424 H   0  0  0  0  0  0  0  0  0  0  0  0
    3.3715   -0.9293   -1.7308 H   0  0  0  0  0  0  0  0  0  0  0  0
    3.8794    0.7665   -1.8948 H   0  0  0  0  0  0  0  0  0  0  0  0
    6.8642   -3.0982    0.5231 H   0  0  0  0  0  0  0  0  0  0  0  0
    8.1075    1.0158    0.1266 H   0  0  0  0  0  0  0  0  0  0  0  0
    2.1686    0.9051    3.4816 H   0  0  0  0  0  0  0  0  0  0  0  0
    2.8223    0.5616    1.9239 H   0  0  0  0  0  0  0  0  0  0  0  0
  1 32  1  0  0  0  0
  2 11  1  0  0  0  0
  2 22  1  0  0  0  0
  3 28  1  0  0  0  0
  4 29  1  0  0  0  0
  5 21  2  0  0  0  0
  6 24  1  0  0  0  0
  6 25  1  0  0  0  0
  7 27  2  0  0  0  0
  8 13  1  0  0  0  0
  8 14  1  0  0  0  0
  8 17  1  0  0  0  0
  9 20  1  0  0  0  0
  9 21  1  0  0  0  0
  9 49  1  0  0  0  0
 10 21  1  0  0  0  0
 10 22  1  0  0  0  0
 10 50  1  0  0  0  0
 11 24  2  0  0  0  0
 12 27  1  0  0  0  0
 12 55  1  0  0  0  0
 12 56  1  0  0  0  0
 13 15  1  0  0  0  0
 13 33  1  0  0  0  0
 13 34  1  0  0  0  0
 14 16  1  0  0  0  0
 14 35  1  0  0  0  0
 14 36  1  0  0  0  0
 15 16  1  0  0  0  0
 15 37  1  0  0  0  0
 15 38  1  0  0  0  0
 16 39  1  0  0  0  0
 16 40  1  0  0  0  0
 17 18  1  0  0  0  0
 17 41  1  0  0  0  0
 17 42  1  0  0  0  0
 18 19  1  0  0  0  0
 18 43  1  0  0  0  0
 18 44  1  0  0  0  0
 19 20  1  0  0  0  0
 19 45  1  0  0  0  0
 19 46  1  0  0  0  0
 20 47  1  0  0  0  0
 20 48  1  0  0  0  0
 22 23  2  0  0  0  0
 23 24  1  0  0  0  0
 23 27  1  0  0  0  0
 25 26  1  0  0  0  0
 25 51  1  0  0  0  0
 25 52  1  0  0  0  0
 26 28  2  0  0  0  0
 26 29  1  0  0  0  0
 28 30  1  0  0  0  0
 29 31  2  0  0  0  0
 30 32  2  0  0  0  0
 30 53  1  0  0  0  0
 31 32  1  0  0  0  0
 31 54  1  0  0  0  0
M  END
> <PUBCHEM_COMPOUND_CID>
9811611

> <PUBCHEM_CONFORMER_RMSD>
1.2

> <PUBCHEM_CONFORMER_DIVERSEORDER>
1
74
55
86
18
49
102
105
54
44
34
50
64
85
83
3
35
24
31
79
84
87
67
17
98
95
56
72
23
27
61
22
6
65
82
29
25
77
93
89
42
5
43
99
78
45
19
108
28
103
30
36
14
12
62
107
66
37
68
75
11
33
48
92
4
53
109
57
7
8
70
40
104
88
90
101
9
41
26
106
71
81
91
94
96
10
20
100
69
58
80
15
13
76
21
52
46
47
16
38
32
39
63
97
2
59
51
73
60

> <PUBCHEM_MMFF94_PARTIAL_CHARGES>
34
1 -0.11
10 -0.49
11 -0.51
12 -0.8
13 0.27
14 0.27
17 0.27
2 0.18
20 0.3
21 0.69
22 0.1
23 -0.09
24 0.35
25 0.42
26 -0.14
27 0.72
28 0.19
29 0.19
3 -0.19
30 -0.15
31 -0.15
32 0.11
4 -0.19
49 0.37
5 -0.57
50 0.37
53 0.15
54 0.15
55 0.37
56 0.37
6 -0.34
7 -0.57
8 -0.81
9 -0.73

> <PUBCHEM_EFFECTIVE_ROTOR_COUNT>
13

> <PUBCHEM_PHARMACOPHORE_FEATURES>
10
1 1 hydrophobe
1 10 donor
1 12 donor
1 5 acceptor
1 7 acceptor
1 8 cation
1 9 donor
5 2 11 22 23 24 rings
5 8 13 14 15 16 rings
6 26 28 29 30 31 32 rings

> <PUBCHEM_HEAVY_ATOM_COUNT>
32

> <PUBCHEM_ATOM_DEF_STEREO_COUNT>
0

> <PUBCHEM_ATOM_UDEF_STEREO_COUNT>
0

> <PUBCHEM_BOND_DEF_STEREO_COUNT>
0

> <PUBCHEM_BOND_UDEF_STEREO_COUNT>
0

> <PUBCHEM_ISOTOPIC_ATOM_COUNT>
0

> <PUBCHEM_COMPONENT_COUNT>
1

> <PUBCHEM_CACTVS_TAUTO_COUNT>
16

> <PUBCHEM_CONFORMER_ID>
0095B69B00000001

> <PUBCHEM_MMFF94_ENERGY>
55.9686

> <PUBCHEM_FEATURE_SELFOVERLAP>
50.797

> <PUBCHEM_SHAPE_FINGERPRINT>
10100884 174 18261393394710910907
10670039 82 18259982700418472115
11756154 5 17917709098309312761
11991303 11 13046243696095633105
12498461 61 18187357689682546258
12522641 68 16954761062690136157
12643181 29 18410573969121588605
1361 4 18338800013706420014
13782708 43 18343022203134328435
13947920 75 17894912953800652833
14178184 131 18130503132857863959
15183329 4 16877940563983213187
15352257 5 18413109459361007883
18608769 82 18413388739725429375
19841028 212 18195526992336625154
208703 8 17822860905029785859
20982279 24 17059234561538048262
21781051 124 17703522029974172310
23576562 1 12613906949345966466
2747138 104 16845299323840215824
3178227 256 17203611488355791892
335352 9 15358273593826447352
3711267 37 12751231528213603162
397830 11 18271235118600222249
4149490 64 18341608180369953466
4169191 19 10735880547693921041
4173938 188 18410848868593391282
439807 62 18411701010487723743
54039377 194 17822582698633886091
59682541 35 17632571639924189426
68570916 9 18335710463442124853
8863177 126 18201435917793752801
9962374 69 17748547035785281772
999808 66 18131632270937159229

> <PUBCHEM_SHAPE_MULTIPOLES>
611.28
28.49
3.5
1.6
9.79
2.74
-0.64
22.13
-3.07
-7.54
0.43
0.47
-0.79
-0.74

> <PUBCHEM_SHAPE_SELFOVERLAP>
1258.873

> <PUBCHEM_SHAPE_VOLUME>
355.1

> <PUBCHEM_COORDINATE_TYPE>
2
5
10

$$$$
