44352860
  -OEChem-10062121583D

 72 80  0     1  0  0  0  0  0999 V2000
    0.0303   -0.1163    2.4295 O   0  0  0  0  0  0  0  0  0  0  0  0
   -1.1698    0.5591   -0.6081 O   0  0  0  0  0  0  0  0  0  0  0  0
    6.0288   -1.8260   -1.4679 O   0  0  0  0  0  0  0  0  0  0  0  0
   -4.5669    1.3523    0.9176 O   0  0  0  0  0  0  0  0  0  0  0  0
    0.8026    1.4786    0.9230 N   0  0  0  0  0  0  0  0  0  0  0  0
    1.0954   -1.5074    0.8994 N   0  0  0  0  0  0  0  0  0  0  0  0
   -3.5429   -0.6929    0.4300 N   0  0  0  0  0  0  0  0  0  0  0  0
    6.1871    0.5015   -1.6472 N   0  0  0  0  0  0  0  0  0  0  0  0
   -7.9892   -0.9921   -0.5692 N   0  0  0  0  0  0  0  0  0  0  0  0
   -0.3649    1.0259    1.6644 C   0  0  1  0  0  0  0  0  0  0  0  0
   -1.5939    0.7743    0.7453 C   0  0  2  0  0  0  0  0  0  0  0  0
   -0.0442   -1.3590    1.7753 C   0  0  2  0  0  0  0  0  0  0  0  0
   -2.3518   -0.4656    1.2114 C   0  0  2  0  0  0  0  0  0  0  0  0
   -1.4103   -1.6647    1.1444 C   0  0  0  0  0  0  0  0  0  0  0  0
    1.8958    0.7909    0.4497 C   0  0  0  0  0  0  0  0  0  0  0  0
    2.0312   -0.6284    0.4288 C   0  0  0  0  0  0  0  0  0  0  0  0
    2.9968    1.5078   -0.1527 C   0  0  0  0  0  0  0  0  0  0  0  0
    3.2525   -1.1231   -0.1856 C   0  0  0  0  0  0  0  0  0  0  0  0
    1.0813    2.7776    0.4733 C   0  0  0  0  0  0  0  0  0  0  0  0
   -0.7646    1.9817    2.8132 C   0  0  0  0  0  0  0  0  0  0  0  0
    1.6577   -2.7393    0.5494 C   0  0  0  0  0  0  0  0  0  0  0  0
    2.4004    2.8362   -0.0705 C   0  0  0  0  0  0  0  0  0  0  0  0
    4.1902    1.0181   -0.6735 C   0  0  0  0  0  0  0  0  0  0  0  0
    4.3076   -0.3631   -0.6858 C   0  0  0  0  0  0  0  0  0  0  0  0
    2.9245   -2.5499   -0.0785 C   0  0  0  0  0  0  0  0  0  0  0  0
    5.3828    1.6553   -1.3039 C   0  0  0  0  0  0  0  0  0  0  0  0
    0.2781    3.9370    0.4777 C   0  0  0  0  0  0  0  0  0  0  0  0
    5.5876   -0.7058   -1.3022 C   0  0  0  0  0  0  0  0  0  0  0  0
    1.1393   -4.0339    0.7642 C   0  0  0  0  0  0  0  0  0  0  0  0
    2.8943    4.0917   -0.5078 C   0  0  0  0  0  0  0  0  0  0  0  0
   -3.6176   -1.9770   -0.2762 C   0  0  0  0  0  0  0  0  0  0  0  0
    3.6249   -3.7144   -0.4853 C   0  0  0  0  0  0  0  0  0  0  0  0
   -4.5724    0.2607    0.3496 C   0  0  0  0  0  0  0  0  0  0  0  0
   -2.2264    0.7913   -1.5308 C   0  0  0  0  0  0  0  0  0  0  0  0
    0.8002    5.1524    0.0279 C   0  0  0  0  0  0  0  0  0  0  0  0
    2.0988    5.2351   -0.4442 C   0  0  0  0  0  0  0  0  0  0  0  0
    1.8680   -5.1468    0.3472 C   0  0  0  0  0  0  0  0  0  0  0  0
    3.0964   -4.9907   -0.2714 C   0  0  0  0  0  0  0  0  0  0  0  0
   -5.7659   -0.0494   -0.4535 C   0  0  0  0  0  0  0  0  0  0  0  0
   -5.8275    0.2800   -1.8031 C   0  0  0  0  0  0  0  0  0  0  0  0
   -6.8635   -0.6791    0.1110 C   0  0  0  0  0  0  0  0  0  0  0  0
   -6.9686   -0.0259   -2.5363 C   0  0  0  0  0  0  0  0  0  0  0  0
   -8.0125   -0.6565   -1.8786 C   0  0  0  0  0  0  0  0  0  0  0  0
   -2.2049    1.6825    0.7641 H   0  0  0  0  0  0  0  0  0  0  0  0
    0.1179   -2.0971    2.5715 H   0  0  0  0  0  0  0  0  0  0  0  0
   -2.6838   -0.3127    2.2465 H   0  0  0  0  0  0  0  0  0  0  0  0
   -1.8502   -2.5101    1.6895 H   0  0  0  0  0  0  0  0  0  0  0  0
   -1.2168   -2.0176    0.1270 H   0  0  0  0  0  0  0  0  0  0  0  0
   -1.4355    1.4770    3.5203 H   0  0  0  0  0  0  0  0  0  0  0  0
   -1.2850    2.8810    2.4824 H   0  0  0  0  0  0  0  0  0  0  0  0
    0.1152    2.2891    3.3919 H   0  0  0  0  0  0  0  0  0  0  0  0
    5.1325    2.1972   -2.2190 H   0  0  0  0  0  0  0  0  0  0  0  0
    5.9390    2.2833   -0.6039 H   0  0  0  0  0  0  0  0  0  0  0  0
   -0.7543    3.9118    0.8053 H   0  0  0  0  0  0  0  0  0  0  0  0
    0.1775   -4.1781    1.2479 H   0  0  0  0  0  0  0  0  0  0  0  0
    3.8961    4.1712   -0.9225 H   0  0  0  0  0  0  0  0  0  0  0  0
   -2.8235   -2.0811   -1.0182 H   0  0  0  0  0  0  0  0  0  0  0  0
   -4.5512   -2.0973   -0.8277 H   0  0  0  0  0  0  0  0  0  0  0  0
   -3.5954   -2.7978    0.4468 H   0  0  0  0  0  0  0  0  0  0  0  0
    4.5886   -3.6415   -0.9763 H   0  0  0  0  0  0  0  0  0  0  0  0
    7.0953    0.5648   -2.0963 H   0  0  0  0  0  0  0  0  0  0  0  0
   -1.7485    1.1576   -2.4470 H   0  0  0  0  0  0  0  0  0  0  0  0
   -2.9122    1.5847   -1.2242 H   0  0  0  0  0  0  0  0  0  0  0  0
   -2.7258   -0.1244   -1.8336 H   0  0  0  0  0  0  0  0  0  0  0  0
    0.1751    6.0414    0.0450 H   0  0  0  0  0  0  0  0  0  0  0  0
    2.4918    6.1863   -0.7917 H   0  0  0  0  0  0  0  0  0  0  0  0
    1.4668   -6.1432    0.5101 H   0  0  0  0  0  0  0  0  0  0  0  0
    3.6558   -5.8645   -0.5939 H   0  0  0  0  0  0  0  0  0  0  0  0
   -5.0015    0.7814   -2.2971 H   0  0  0  0  0  0  0  0  0  0  0  0
   -6.8738   -0.9612    1.1594 H   0  0  0  0  0  0  0  0  0  0  0  0
   -7.0395    0.2231   -3.5889 H   0  0  0  0  0  0  0  0  0  0  0  0
   -8.9247   -0.9161   -2.4055 H   0  0  0  0  0  0  0  0  0  0  0  0
  1 10  1  0  0  0  0
  1 12  1  0  0  0  0
  2 11  1  0  0  0  0
  2 34  1  0  0  0  0
  3 28  2  0  0  0  0
  4 33  2  0  0  0  0
  5 10  1  0  0  0  0
  5 15  1  0  0  0  0
  5 19  1  0  0  0  0
  6 12  1  0  0  0  0
  6 16  1  0  0  0  0
  6 21  1  0  0  0  0
  7 13  1  0  0  0  0
  7 31  1  0  0  0  0
  7 33  1  0  0  0  0
  8 26  1  0  0  0  0
  8 28  1  0  0  0  0
  8 61  1  0  0  0  0
  9 41  1  0  0  0  0
  9 43  2  0  0  0  0
 10 11  1  0  0  0  0
 10 20  1  0  0  0  0
 11 13  1  0  0  0  0
 11 44  1  0  0  0  0
 12 14  1  0  0  0  0
 12 45  1  0  0  0  0
 13 14  1  0  0  0  0
 13 46  1  0  0  0  0
 14 47  1  0  0  0  0
 14 48  1  0  0  0  0
 15 16  2  0  0  0  0
 15 17  1  0  0  0  0
 16 18  1  0  0  0  0
 17 22  1  0  0  0  0
 17 23  2  0  0  0  0
 18 24  2  0  0  0  0
 18 25  1  0  0  0  0
 19 22  1  0  0  0  0
 19 27  2  0  0  0  0
 20 49  1  0  0  0  0
 20 50  1  0  0  0  0
 20 51  1  0  0  0  0
 21 25  1  0  0  0  0
 21 29  2  0  0  0  0
 22 30  2  0  0  0  0
 23 24  1  0  0  0  0
 23 26  1  0  0  0  0
 24 28  1  0  0  0  0
 25 32  2  0  0  0  0
 26 52  1  0  0  0  0
 26 53  1  0  0  0  0
 27 35  1  0  0  0  0
 27 54  1  0  0  0  0
 29 37  1  0  0  0  0
 29 55  1  0  0  0  0
 30 36  1  0  0  0  0
 30 56  1  0  0  0  0
 31 57  1  0  0  0  0
 31 58  1  0  0  0  0
 31 59  1  0  0  0  0
 32 38  1  0  0  0  0
 32 60  1  0  0  0  0
 33 39  1  0  0  0  0
 34 62  1  0  0  0  0
 34 63  1  0  0  0  0
 34 64  1  0  0  0  0
 35 36  2  0  0  0  0
 35 65  1  0  0  0  0
 36 66  1  0  0  0  0
 37 38  2  0  0  0  0
 37 67  1  0  0  0  0
 38 68  1  0  0  0  0
 39 40  1  0  0  0  0
 39 41  2  0  0  0  0
 40 42  2  0  0  0  0
 40 69  1  0  0  0  0
 41 70  1  0  0  0  0
 42 43  1  0  0  0  0
 42 71  1  0  0  0  0
 43 72  1  0  0  0  0
M  END
> <PUBCHEM_COMPOUND_CID>
44352860

> <PUBCHEM_CONFORMER_RMSD>
1

> <PUBCHEM_CONFORMER_DIVERSEORDER>
1
6
4
5
3
7
2

> <PUBCHEM_MMFF94_PARTIAL_CHARGES>
52
1 -0.56
10 0.54
11 0.28
12 0.54
13 0.3
15 -0.05
16 -0.05
17 -0.01
18 -0.01
19 -0.15
2 -0.56
21 -0.15
23 -0.14
24 0.09
26 0.44
27 -0.15
28 0.54
29 -0.15
3 -0.57
30 -0.15
31 0.3
32 -0.15
33 0.54
34 0.28
35 -0.15
36 -0.15
37 -0.15
38 -0.15
39 0.09
4 -0.57
40 -0.15
41 0.16
42 -0.15
43 0.16
5 -0.04
54 0.15
55 0.15
56 0.15
6 -0.04
60 0.15
61 0.37
65 0.15
66 0.15
67 0.15
68 0.15
69 0.15
7 -0.66
70 0.15
71 0.15
72 0.15
8 -0.73
9 -0.62

> <PUBCHEM_EFFECTIVE_ROTOR_COUNT>
5.2

> <PUBCHEM_PHARMACOPHORE_FEATURES>
17
1 1 acceptor
1 2 acceptor
1 3 acceptor
1 4 acceptor
1 5 cation
1 6 cation
1 8 donor
1 9 acceptor
5 5 15 17 19 22 rings
5 6 16 18 21 25 rings
5 8 23 24 26 28 rings
6 1 10 11 12 13 14 rings
6 15 16 17 18 23 24 rings
6 19 22 27 30 35 36 rings
6 21 25 29 32 37 38 rings
6 9 39 40 41 42 43 rings
7 1 5 6 10 12 15 16 rings

> <PUBCHEM_HEAVY_ATOM_COUNT>
43

> <PUBCHEM_ATOM_DEF_STEREO_COUNT>
4

> <PUBCHEM_ATOM_UDEF_STEREO_COUNT>
0

> <PUBCHEM_BOND_DEF_STEREO_COUNT>
0

> <PUBCHEM_BOND_UDEF_STEREO_COUNT>
0

> <PUBCHEM_ISOTOPIC_ATOM_COUNT>
0

> <PUBCHEM_COMPONENT_COUNT>
1

> <PUBCHEM_CACTVS_TAUTO_COUNT>
2

> <PUBCHEM_CONFORMER_ID>
02A4C55C00000001

> <PUBCHEM_MMFF94_ENERGY>
205.4881

> <PUBCHEM_FEATURE_SELFOVERLAP>
87.234

> <PUBCHEM_SHAPE_FINGERPRINT>
10622 236 18056755434602049387
10675989 125 18339924921676303585
10693767 8 18201721717539423430
10930396 42 18268409366535126416
11115154 58 17917715682642377729
11135926 11 18337686251471919634
11377469 6 17917992737549133345
11445158 3 17321881659230968104
11513181 2 17764605226577915542
12608794 3 17904729483834656116
1361 2 18411138077608384256
13636023 20 18342172215979013600
13911987 19 18190203298567628156
14068700 675 18060142011903862424
14117953 113 18410295839840115900
14415360 78 18192708075807371292
15082195 135 18338790213049934363
15183329 4 18411136935853900281
15324884 4 17608388052779462488
15328829 1 17703249342606024891
15439362 3 18123190379304872812
15444296 8 17550679815733921286
15484559 13 18410853283013097646
15927050 60 17544493959833111228
15950262 2 15358846567716580558
19319366 153 18128526249220140573
20775438 99 17912630599665403276
21133410 171 17392165474820572075
22121540 332 17459164375236271949
23522609 53 17916607353514782201
23559900 14 18339360893791293625
23569914 152 17472383610759249927
24771293 8 18272370897739097416
24771750 20 17972050389953192445
3388396 114 18265350417179279606
3504750 166 16460220359715933650
376196 1 17898279765499614609
3882209 13 17828184520734913762
4015057 19 18335144142492926451
4353968 344 18124042231151111174
45266715 3 18271804666430024800
46194498 28 18260817182040215607
57527452 28 15985116214449383876
6004065 56 18411981403438760936
6058803 2 17840040541515458202

> <PUBCHEM_SHAPE_MULTIPOLES>
836.54
15.11
6.28
1.84
29.9
0.65
-0.2
-4.32
12.35
-9.67
-0.32
1.45
0.28
-0.4

> <PUBCHEM_SHAPE_SELFOVERLAP>
1926.28

> <PUBCHEM_SHAPE_VOLUME>
426.6

> <PUBCHEM_COORDINATE_TYPE>
2
5
10

$$$$
