49830500
  -OEChem-10052115193D

 45 47  0     1  0  0  0  0  0999 V2000
   -3.8739    4.2608   -0.7556 O   0  0  0  0  0  0  0  0  0  0  0  0
   -1.2647    0.8565    2.2818 O   0  0  0  0  0  0  0  0  0  0  0  0
   -1.8375    0.4666    0.0692 N   0  0  0  0  0  0  0  0  0  0  0  0
    7.2670   -0.5750   -0.7904 N   0  0  0  0  0  0  0  0  0  0  0  0
   -3.2627    0.6601    0.2293 C   0  0  1  0  0  0  0  0  0  0  0  0
   -3.7308    1.8753   -0.5870 C   0  0  0  0  0  0  0  0  0  0  0  0
   -4.0064   -0.6166   -0.1027 C   0  0  0  0  0  0  0  0  0  0  0  0
   -3.3816    3.2091    0.0649 C   0  0  0  0  0  0  0  0  0  0  0  0
   -0.9505    0.5838    1.1262 C   0  0  0  0  0  0  0  0  0  0  0  0
   -4.1868   -1.5940    0.8759 C   0  0  0  0  0  0  0  0  0  0  0  0
   -4.5116   -0.8148   -1.3877 C   0  0  0  0  0  0  0  0  0  0  0  0
    0.4827    0.3815    0.7922 C   0  0  0  0  0  0  0  0  0  0  0  0
   -4.8724   -2.7696    0.5697 C   0  0  0  0  0  0  0  0  0  0  0  0
   -5.1973   -1.9903   -1.6939 C   0  0  0  0  0  0  0  0  0  0  0  0
    3.1743    0.0012    0.1648 C   0  0  0  0  0  0  0  0  0  0  0  0
    1.3680   -0.0778    1.7674 C   0  0  0  0  0  0  0  0  0  0  0  0
    0.9432    0.6508   -0.4967 C   0  0  0  0  0  0  0  0  0  0  0  0
   -5.3775   -2.9676   -0.7152 C   0  0  0  0  0  0  0  0  0  0  0  0
    2.7137   -0.2679    1.4537 C   0  0  0  0  0  0  0  0  0  0  0  0
    2.2890    0.4607   -0.8103 C   0  0  0  0  0  0  0  0  0  0  0  0
    4.5701   -0.1956   -0.1605 C   0  0  0  0  0  0  0  0  0  0  0  0
    5.3101   -1.1717    0.4977 C   0  0  0  0  0  0  0  0  0  0  0  0
    5.1770    0.5909   -1.1333 C   0  0  0  0  0  0  0  0  0  0  0  0
    6.6428   -1.3202    0.1493 C   0  0  0  0  0  0  0  0  0  0  0  0
    6.5159    0.3636   -1.4089 C   0  0  0  0  0  0  0  0  0  0  0  0
   -3.4776    0.8828    1.2830 H   0  0  0  0  0  0  0  0  0  0  0  0
   -4.8225    1.8565   -0.7104 H   0  0  0  0  0  0  0  0  0  0  0  0
   -3.3132    1.8584   -1.6027 H   0  0  0  0  0  0  0  0  0  0  0  0
   -1.5141    0.1783   -0.8483 H   0  0  0  0  0  0  0  0  0  0  0  0
   -2.2983    3.3267    0.1650 H   0  0  0  0  0  0  0  0  0  0  0  0
   -3.8435    3.2945    1.0536 H   0  0  0  0  0  0  0  0  0  0  0  0
   -3.7964   -1.4527    1.8802 H   0  0  0  0  0  0  0  0  0  0  0  0
   -4.3744   -0.0858   -2.1801 H   0  0  0  0  0  0  0  0  0  0  0  0
   -5.0121   -3.5309    1.3315 H   0  0  0  0  0  0  0  0  0  0  0  0
   -5.5871   -2.1470   -2.6955 H   0  0  0  0  0  0  0  0  0  0  0  0
    1.0276   -0.2911    2.7774 H   0  0  0  0  0  0  0  0  0  0  0  0
    0.2932    1.0339   -1.2778 H   0  0  0  0  0  0  0  0  0  0  0  0
   -5.9102   -3.8835   -0.9540 H   0  0  0  0  0  0  0  0  0  0  0  0
    3.3715   -0.5999    2.2523 H   0  0  0  0  0  0  0  0  0  0  0  0
    2.5977    0.6618   -1.8325 H   0  0  0  0  0  0  0  0  0  0  0  0
   -3.6393    5.0969   -0.3181 H   0  0  0  0  0  0  0  0  0  0  0  0
    4.8927   -1.8377    1.2449 H   0  0  0  0  0  0  0  0  0  0  0  0
    4.6675    1.3878   -1.6639 H   0  0  0  0  0  0  0  0  0  0  0  0
    7.2620   -2.0719    0.6278 H   0  0  0  0  0  0  0  0  0  0  0  0
    7.0381    0.9547   -2.1540 H   0  0  0  0  0  0  0  0  0  0  0  0
  1  8  1  0  0  0  0
  1 41  1  0  0  0  0
  2  9  2  0  0  0  0
  3  5  1  0  0  0  0
  3  9  1  0  0  0  0
  3 29  1  0  0  0  0
  4 24  2  0  0  0  0
  4 25  1  0  0  0  0
  5  6  1  0  0  0  0
  5  7  1  0  0  0  0
  5 26  1  0  0  0  0
  6  8  1  0  0  0  0
  6 27  1  0  0  0  0
  6 28  1  0  0  0  0
  7 10  2  0  0  0  0
  7 11  1  0  0  0  0
  8 30  1  0  0  0  0
  8 31  1  0  0  0  0
  9 12  1  0  0  0  0
 10 13  1  0  0  0  0
 10 32  1  0  0  0  0
 11 14  2  0  0  0  0
 11 33  1  0  0  0  0
 12 16  2  0  0  0  0
 12 17  1  0  0  0  0
 13 18  2  0  0  0  0
 13 34  1  0  0  0  0
 14 18  1  0  0  0  0
 14 35  1  0  0  0  0
 15 19  2  0  0  0  0
 15 20  1  0  0  0  0
 15 21  1  0  0  0  0
 16 19  1  0  0  0  0
 16 36  1  0  0  0  0
 17 20  2  0  0  0  0
 17 37  1  0  0  0  0
 18 38  1  0  0  0  0
 19 39  1  0  0  0  0
 20 40  1  0  0  0  0
 21 22  2  0  0  0  0
 21 23  1  0  0  0  0
 22 24  1  0  0  0  0
 22 42  1  0  0  0  0
 23 25  2  0  0  0  0
 23 43  1  0  0  0  0
 24 44  1  0  0  0  0
 25 45  1  0  0  0  0
M  END
> <PUBCHEM_COMPOUND_CID>
49830500

> <PUBCHEM_CONFORMER_RMSD>
0.8

> <PUBCHEM_CONFORMER_DIVERSEORDER>
3
30
16
23
9
15
34
18
24
19
35
17
21
26
28
13
20
29
25
32
14
5
2
31
12
7
11
27
8
22
6
33
10
4
1

> <PUBCHEM_MMFF94_PARTIAL_CHARGES>
37
1 -0.68
10 -0.15
11 -0.15
12 0.09
13 -0.15
14 -0.15
16 -0.15
17 -0.15
18 -0.15
19 -0.15
2 -0.57
20 -0.15
22 -0.15
23 -0.15
24 0.16
25 0.16
29 0.37
3 -0.73
32 0.15
33 0.15
34 0.15
35 0.15
36 0.15
37 0.15
38 0.15
39 0.15
4 -0.62
40 0.15
41 0.4
42 0.15
43 0.15
44 0.15
45 0.15
5 0.44
7 -0.14
8 0.28
9 0.54

> <PUBCHEM_EFFECTIVE_ROTOR_COUNT>
7

> <PUBCHEM_PHARMACOPHORE_FEATURES>
8
1 1 acceptor
1 1 donor
1 2 acceptor
1 3 donor
1 4 acceptor
6 12 15 16 17 19 20 rings
6 4 21 22 23 24 25 rings
6 7 10 11 13 14 18 rings

> <PUBCHEM_HEAVY_ATOM_COUNT>
25

> <PUBCHEM_ATOM_DEF_STEREO_COUNT>
0

> <PUBCHEM_ATOM_UDEF_STEREO_COUNT>
1

> <PUBCHEM_BOND_DEF_STEREO_COUNT>
0

> <PUBCHEM_BOND_UDEF_STEREO_COUNT>
0

> <PUBCHEM_ISOTOPIC_ATOM_COUNT>
0

> <PUBCHEM_COMPONENT_COUNT>
1

> <PUBCHEM_CACTVS_TAUTO_COUNT>
2

> <PUBCHEM_CONFORMER_ID>
02F85A6400000003

> <PUBCHEM_MMFF94_ENERGY>
74.8014

> <PUBCHEM_FEATURE_SELFOVERLAP>
40.597

> <PUBCHEM_SHAPE_FINGERPRINT>
10595046 47 18260552229871062780
10763959 59 13695870333705692278
11056379 131 18410289207962152809
11101153 10 18261681492247584748
11135609 201 10882218940345619791
11545043 162 18060695083084063840
11796584 16 18127690440100087802
11809386 21 18411131416394040483
12166972 35 18340492257044378780
12788726 201 18262786399260885545
13540713 4 17916562337435772689
13631057 29 18343020003958514363
13673619 4 17988645250505694491
13690498 29 18412259558495013325
13782708 43 18131068242989514694
14294032 229 18265893554760599181
14849402 71 12462986888871478082
14950920 106 14836122225665282147
15183329 4 17530960276911851834
15250474 111 18115012009790125058
15876981 60 18260836981497183085
16990350 14 16829532038919569937
16992828 155 17243010155724203053
17780758 139 15913335710437942947
17844677 252 18272087214674176080
18643901 69 18202005443421433679
18927931 339 18343303682559299351
20281389 69 10809338953731261830
20505436 4 17824544063663173025
21054139 6 18335419071834177362
21130935 74 10375865248505060524
21150785 3 18187931724666405086
21623969 137 16487260980300571590
2303208 19 17704069603707302666
23081809 10 17895197675967785112
23402539 116 18260270715965625636
23522609 53 17486524707985797920
23559900 14 18264199387171010641
24771293 8 17967535697332898156
2838139 119 13190331409339392878
3610482 184 17896341154379608196
3663271 9 10447919560818091782
3737641 26 15912786998031842702
4015057 19 17604161427288023028
4169191 19 16371590197117294052
484985 159 17203327802383449459
497634 4 18040712563293109861
531348 171 18337111137944009194
59755656 520 16298394530813323465
6700243 42 17771380596957755780
7495541 125 17775566481148449152
8863177 126 17559951198395526094
999808 66 16845300440600349750

> <PUBCHEM_SHAPE_MULTIPOLES>
492.79
17.86
2.98
1.56
19.89
2.14
0.29
-9.18
-6.97
-7.87
-0.64
-0.09
-0.1
-0.73

> <PUBCHEM_SHAPE_SELFOVERLAP>
1063.437

> <PUBCHEM_SHAPE_VOLUME>
268.4

> <PUBCHEM_COORDINATE_TYPE>
2
5
10

$$$$
