44460390
  -OEChem-10062122043D

 50 53  0     1  0  0  0  0  0999 V2000
    2.2254   -0.8779   -0.5737 O   0  0  0  0  0  0  0  0  0  0  0  0
   -0.0456    0.2034    0.8296 O   0  0  0  0  0  0  0  0  0  0  0  0
    3.6579    3.0835    1.8197 O   0  0  0  0  0  0  0  0  0  0  0  0
    5.1962    2.2046   -2.5963 O   0  0  0  0  0  0  0  0  0  0  0  0
   -1.6037   -3.6545   -2.1467 O   0  0  0  0  0  0  0  0  0  0  0  0
   -1.1314    0.6071    2.8188 O   0  0  0  0  0  0  0  0  0  0  0  0
   -1.6707   -5.8259   -0.4127 O   0  0  0  0  0  0  0  0  0  0  0  0
   -2.8651    1.7881   -2.7879 O   0  0  0  0  0  0  0  0  0  0  0  0
   -5.4276    2.7880    1.1334 O   0  0  0  0  0  0  0  0  0  0  0  0
   -5.1543    2.8260   -1.6225 O   0  0  0  0  0  0  0  0  0  0  0  0
    1.0551   -0.3722    1.5349 C   0  0  1  0  0  0  0  0  0  0  0  0
    1.7441   -1.4297    0.6625 C   0  0  1  0  0  0  0  0  0  0  0  0
    2.0559    0.7267    1.8863 C   0  0  0  0  0  0  0  0  0  0  0  0
    2.8893    1.1025    0.6910 C   0  0  0  0  0  0  0  0  0  0  0  0
    2.9334    0.2894   -0.4486 C   0  0  0  0  0  0  0  0  0  0  0  0
    0.8291   -2.6046    0.3715 C   0  0  0  0  0  0  0  0  0  0  0  0
    3.6538    2.2769    0.7197 C   0  0  0  0  0  0  0  0  0  0  0  0
    3.6979    0.6667   -1.5557 C   0  0  0  0  0  0  0  0  0  0  0  0
    0.0218   -2.5955   -0.7662 C   0  0  0  0  0  0  0  0  0  0  0  0
    0.7952   -3.6940    1.2420 C   0  0  0  0  0  0  0  0  0  0  0  0
    4.4276    2.6448   -0.3815 C   0  0  0  0  0  0  0  0  0  0  0  0
    4.4461    1.8423   -1.5199 C   0  0  0  0  0  0  0  0  0  0  0  0
   -1.0704    0.6521    1.5999 C   0  0  0  0  0  0  0  0  0  0  0  0
   -0.8195   -3.6757   -1.0330 C   0  0  0  0  0  0  0  0  0  0  0  0
   -0.0464   -4.7740    0.9754 C   0  0  0  0  0  0  0  0  0  0  0  0
   -0.8536   -4.7649   -0.1623 C   0  0  0  0  0  0  0  0  0  0  0  0
   -2.1461    1.2241    0.7513 C   0  0  0  0  0  0  0  0  0  0  0  0
   -3.2978    1.7448    1.3414 C   0  0  0  0  0  0  0  0  0  0  0  0
   -2.0050    1.2406   -0.6364 C   0  0  0  0  0  0  0  0  0  0  0  0
   -3.0156    1.7776   -1.4339 C   0  0  0  0  0  0  0  0  0  0  0  0
   -4.3086    2.2816    0.5439 C   0  0  0  0  0  0  0  0  0  0  0  0
   -4.1675    2.2981   -0.8438 C   0  0  0  0  0  0  0  0  0  0  0  0
    0.7029   -0.8498    2.4589 H   0  0  0  0  0  0  0  0  0  0  0  0
    2.6243   -1.8249    1.1909 H   0  0  0  0  0  0  0  0  0  0  0  0
    2.7334    0.3660    2.6699 H   0  0  0  0  0  0  0  0  0  0  0  0
    1.5271    1.6097    2.2632 H   0  0  0  0  0  0  0  0  0  0  0  0
    3.7114    0.0360   -2.4415 H   0  0  0  0  0  0  0  0  0  0  0  0
    0.0337   -1.7470   -1.4457 H   0  0  0  0  0  0  0  0  0  0  0  0
    1.4176   -3.7119    2.1327 H   0  0  0  0  0  0  0  0  0  0  0  0
    5.0178    3.5578   -0.3603 H   0  0  0  0  0  0  0  0  0  0  0  0
   -0.0635   -5.6159    1.6623 H   0  0  0  0  0  0  0  0  0  0  0  0
    4.2409    3.8445    1.6560 H   0  0  0  0  0  0  0  0  0  0  0  0
    5.0915    1.5348   -3.2938 H   0  0  0  0  0  0  0  0  0  0  0  0
   -3.4135    1.7352    2.4225 H   0  0  0  0  0  0  0  0  0  0  0  0
   -1.1194    0.8429   -1.1250 H   0  0  0  0  0  0  0  0  0  0  0  0
   -1.4497   -2.8235   -2.6280 H   0  0  0  0  0  0  0  0  0  0  0  0
   -1.5613   -6.4838    0.2953 H   0  0  0  0  0  0  0  0  0  0  0  0
   -2.0092    1.3871   -3.0169 H   0  0  0  0  0  0  0  0  0  0  0  0
   -5.3498    2.6919    2.0981 H   0  0  0  0  0  0  0  0  0  0  0  0
   -4.8828    2.7520   -2.5540 H   0  0  0  0  0  0  0  0  0  0  0  0
  1 12  1  0  0  0  0
  1 15  1  0  0  0  0
  2 11  1  0  0  0  0
  2 23  1  0  0  0  0
  3 17  1  0  0  0  0
  3 42  1  0  0  0  0
  4 22  1  0  0  0  0
  4 43  1  0  0  0  0
  5 24  1  0  0  0  0
  5 46  1  0  0  0  0
  6 23  2  0  0  0  0
  7 26  1  0  0  0  0
  7 47  1  0  0  0  0
  8 30  1  0  0  0  0
  8 48  1  0  0  0  0
  9 31  1  0  0  0  0
  9 49  1  0  0  0  0
 10 32  1  0  0  0  0
 10 50  1  0  0  0  0
 11 12  1  0  0  0  0
 11 13  1  0  0  0  0
 11 33  1  0  0  0  0
 12 16  1  0  0  0  0
 12 34  1  0  0  0  0
 13 14  1  0  0  0  0
 13 35  1  0  0  0  0
 13 36  1  0  0  0  0
 14 15  1  0  0  0  0
 14 17  2  0  0  0  0
 15 18  2  0  0  0  0
 16 19  2  0  0  0  0
 16 20  1  0  0  0  0
 17 21  1  0  0  0  0
 18 22  1  0  0  0  0
 18 37  1  0  0  0  0
 19 24  1  0  0  0  0
 19 38  1  0  0  0  0
 20 25  2  0  0  0  0
 20 39  1  0  0  0  0
 21 22  2  0  0  0  0
 21 40  1  0  0  0  0
 23 27  1  0  0  0  0
 24 26  2  0  0  0  0
 25 26  1  0  0  0  0
 25 41  1  0  0  0  0
 27 28  2  0  0  0  0
 27 29  1  0  0  0  0
 28 31  1  0  0  0  0
 28 44  1  0  0  0  0
 29 30  2  0  0  0  0
 29 45  1  0  0  0  0
 30 32  1  0  0  0  0
 31 32  2  0  0  0  0
M  END
> <PUBCHEM_COMPOUND_CID>
44460390

> <PUBCHEM_CONFORMER_RMSD>
0.8

> <PUBCHEM_CONFORMER_DIVERSEORDER>
1
129
39
74
63
136
111
119
21
114
31
160
166
8
56
100
104
150
163
113
134
91
92
158
34
7
46
88
36
54
138
24
132
32
35
151
107
126
85
76
130
157
154
108
86
103
156
96
10
67
152
165
128
120
117
2
89
82
109
87
45
80
13
123
77
50
159
29
140
147
94
161
90
133
75
112
40
58
14
52
41
164
127
121
28
65
142
42
139
37
60
33
83
79
11
141
59
125
162
47
48
15
69
105
148
155
38
135
23
9
51
68
16
118
110
93
30
149
22
153
64
122
57
131
43
4
81
78
98
144
116
99
17
61
53
145
55
19
66
115
73
146
106
12
49
102
124
27
44
18
137
84
72
101
20
26
143
71
3
97
25
6
95
70
5
62

> <PUBCHEM_MMFF94_PARTIAL_CHARGES>
46
1 -0.36
10 -0.53
11 0.28
12 0.42
13 0.14
14 -0.14
15 0.08
16 -0.14
17 0.08
18 -0.15
19 -0.15
2 -0.43
20 -0.15
21 -0.15
22 0.08
23 0.63
24 0.08
25 -0.15
26 0.08
27 0.09
28 -0.15
29 -0.15
3 -0.53
30 0.08
31 0.08
32 0.08
37 0.15
38 0.15
39 0.15
4 -0.53
40 0.15
41 0.15
42 0.45
43 0.45
44 0.15
45 0.15
46 0.45
47 0.45
48 0.45
49 0.45
5 -0.53
50 0.45
6 -0.57
7 -0.53
8 -0.53
9 -0.53

> <PUBCHEM_EFFECTIVE_ROTOR_COUNT>
4.8

> <PUBCHEM_PHARMACOPHORE_FEATURES>
13
1 1 acceptor
1 10 donor
1 3 donor
1 4 donor
1 5 donor
1 6 acceptor
1 7 donor
1 8 donor
1 9 donor
6 1 11 12 13 14 15 rings
6 14 15 17 18 21 22 rings
6 16 19 20 24 25 26 rings
6 27 28 29 30 31 32 rings

> <PUBCHEM_HEAVY_ATOM_COUNT>
32

> <PUBCHEM_ATOM_DEF_STEREO_COUNT>
1

> <PUBCHEM_ATOM_UDEF_STEREO_COUNT>
1

> <PUBCHEM_BOND_DEF_STEREO_COUNT>
0

> <PUBCHEM_BOND_UDEF_STEREO_COUNT>
0

> <PUBCHEM_ISOTOPIC_ATOM_COUNT>
0

> <PUBCHEM_COMPONENT_COUNT>
1

> <PUBCHEM_CACTVS_TAUTO_COUNT>
998

> <PUBCHEM_CONFORMER_ID>
02A6696600000001

> <PUBCHEM_MMFF94_ENERGY>
91.3642

> <PUBCHEM_FEATURE_SELFOVERLAP>
66.019

> <PUBCHEM_SHAPE_FINGERPRINT>
11477941 20 17326645955432202604
11991303 11 18264508319551904318
12160290 23 18198908208869951690
12741549 16 17117192344188066995
12788726 201 17977649124446759786
12977781 61 16987986315580070158
13681431 1 17544764430317762458
13911987 19 17688630106965029822
151778 21 18266740173664002493
15484559 13 18200594696271290621
17357779 13 17410216535481615194
17974551 9 10967720056175521366
1813 80 17189831567319012786
19319366 153 18129361736513058205
21120745 212 17543933637492638885
21285901 2 17338163339679849046
21304303 282 18193533774648099418
21641784 216 17328607509724028852
22182313 1 17343794961260501840
238 59 18268998583094454026
26353 1 17260469691581373974
27425 322 18131346436321684301
3388396 114 16531199943011470468
376196 1 17968102971189232169
437795 70 17627217194301740767
44802255 64 17031125602582552094
46194498 28 17826796932569812541
469060 322 17755027728142594139
5080951 261 17844532313203769570
5252454 2 18335426781015539540
59025328 239 16898726565123756959
6677587 24 16671270761930972573
9658208 31 18270408303431499864

> <PUBCHEM_SHAPE_MULTIPOLES>
599.85
8.93
6.93
2.32
1.33
12.81
-0.38
-15.08
-3.37
3.28
-1.1
-0.03
-1.09
-0.78

> <PUBCHEM_SHAPE_SELFOVERLAP>
1333.964

> <PUBCHEM_SHAPE_VOLUME>
316.9

> <PUBCHEM_COORDINATE_TYPE>
2
5
10

$$$$
