24811794
  -OEChem-10062122023D

 47 49  0     1  0  0  0  0  0999 V2000
    3.6403   -3.9189    1.0758 O   0  0  0  0  0  0  0  0  0  0  0  0
    5.6290   -2.8828    0.6559 O   0  0  0  0  0  0  0  0  0  0  0  0
   -3.1901    0.3508   -0.1216 N   0  0  0  0  0  0  0  0  0  0  0  0
   -3.5208   -2.7268   -0.8604 N   0  0  1  0  0  0  0  0  0  0  0  0
   -0.9536    1.1489   -0.1682 N   0  0  0  0  0  0  0  0  0  0  0  0
   -1.7420    3.2788    1.4773 N   0  0  0  0  0  0  0  0  0  0  0  0
   -5.0300   -1.2551    0.5020 C   0  0  0  0  0  0  0  0  0  0  0  0
   -4.3163    0.0706    0.7704 C   0  0  0  0  0  0  0  0  0  0  0  0
   -4.1056   -2.4774    0.4655 C   0  0  0  0  0  0  0  0  0  0  0  0
   -3.1213   -0.3153   -1.4204 C   0  0  0  0  0  0  0  0  0  0  0  0
   -2.5326   -1.7200   -1.2737 C   0  0  0  0  0  0  0  0  0  0  0  0
   -2.2245    1.2884    0.2585 C   0  0  0  0  0  0  0  0  0  0  0  0
   -2.9085   -4.0591   -0.8922 C   0  0  0  0  0  0  0  0  0  0  0  0
   -2.6117    2.3347    1.0668 C   0  0  0  0  0  0  0  0  0  0  0  0
   -0.0840    2.0933    0.2421 C   0  0  0  0  0  0  0  0  0  0  0  0
    1.2737    1.9419   -0.2159 C   0  0  0  0  0  0  0  0  0  0  0  0
   -0.4712    3.1394    1.0505 C   0  0  0  0  0  0  0  0  0  0  0  0
    1.9980    0.7957    0.1120 C   0  0  0  0  0  0  0  0  0  0  0  0
    1.8642    2.9435   -0.9866 C   0  0  0  0  0  0  0  0  0  0  0  0
    3.3128    0.6511   -0.3307 C   0  0  0  0  0  0  0  0  0  0  0  0
    3.1789    2.7989   -1.4293 C   0  0  0  0  0  0  0  0  0  0  0  0
    3.9033    1.6527   -1.1013 C   0  0  0  0  0  0  0  0  0  0  0  0
    4.0683   -0.5438    0.0110 C   0  0  0  0  0  0  0  0  0  0  0  0
    3.5327   -1.7218    0.4011 C   0  0  0  0  0  0  0  0  0  0  0  0
    4.4109   -2.8676    0.7115 C   0  0  0  0  0  0  0  0  0  0  0  0
   -5.7613   -1.4019    1.3079 H   0  0  0  0  0  0  0  0  0  0  0  0
   -5.6222   -1.1975   -0.4200 H   0  0  0  0  0  0  0  0  0  0  0  0
   -3.9668    0.0475    1.8112 H   0  0  0  0  0  0  0  0  0  0  0  0
   -5.0579    0.8747    0.6884 H   0  0  0  0  0  0  0  0  0  0  0  0
   -3.3309   -2.4045    1.2397 H   0  0  0  0  0  0  0  0  0  0  0  0
   -4.7316   -3.3402    0.7295 H   0  0  0  0  0  0  0  0  0  0  0  0
   -2.4875    0.2637   -2.1051 H   0  0  0  0  0  0  0  0  0  0  0  0
   -4.1056   -0.3396   -1.9040 H   0  0  0  0  0  0  0  0  0  0  0  0
   -2.1528   -2.0053   -2.2635 H   0  0  0  0  0  0  0  0  0  0  0  0
   -1.6719   -1.7122   -0.5921 H   0  0  0  0  0  0  0  0  0  0  0  0
   -2.5228   -4.2848   -1.8928 H   0  0  0  0  0  0  0  0  0  0  0  0
   -3.6514   -4.8325   -0.6667 H   0  0  0  0  0  0  0  0  0  0  0  0
   -2.0848   -4.1506   -0.1748 H   0  0  0  0  0  0  0  0  0  0  0  0
   -3.6249    2.4905    1.4162 H   0  0  0  0  0  0  0  0  0  0  0  0
    0.2173    3.9040    1.3925 H   0  0  0  0  0  0  0  0  0  0  0  0
    1.5217    0.0419    0.7343 H   0  0  0  0  0  0  0  0  0  0  0  0
    1.3155    3.8425   -1.2577 H   0  0  0  0  0  0  0  0  0  0  0  0
    3.6382    3.5780   -2.0306 H   0  0  0  0  0  0  0  0  0  0  0  0
    4.9265    1.5574   -1.4569 H   0  0  0  0  0  0  0  0  0  0  0  0
    5.1493   -0.4536   -0.0749 H   0  0  0  0  0  0  0  0  0  0  0  0
    2.4643   -1.8862    0.4820 H   0  0  0  0  0  0  0  0  0  0  0  0
    4.1776   -4.7101    1.2941 H   0  0  0  0  0  0  0  0  0  0  0  0
  1 25  1  0  0  0  0
  1 47  1  0  0  0  0
  2 25  2  0  0  0  0
  3  8  1  0  0  0  0
  3 10  1  0  0  0  0
  3 12  1  0  0  0  0
  4  9  1  0  0  0  0
  4 11  1  0  0  0  0
  4 13  1  0  0  0  0
  5 12  2  0  0  0  0
  5 15  1  0  0  0  0
  6 14  2  0  0  0  0
  6 17  1  0  0  0  0
  7  8  1  0  0  0  0
  7  9  1  0  0  0  0
  7 26  1  0  0  0  0
  7 27  1  0  0  0  0
  8 28  1  0  0  0  0
  8 29  1  0  0  0  0
  9 30  1  0  0  0  0
  9 31  1  0  0  0  0
 10 11  1  0  0  0  0
 10 32  1  0  0  0  0
 10 33  1  0  0  0  0
 11 34  1  0  0  0  0
 11 35  1  0  0  0  0
 12 14  1  0  0  0  0
 13 36  1  0  0  0  0
 13 37  1  0  0  0  0
 13 38  1  0  0  0  0
 14 39  1  0  0  0  0
 15 16  1  0  0  0  0
 15 17  2  0  0  0  0
 16 18  1  0  0  0  0
 16 19  2  0  0  0  0
 17 40  1  0  0  0  0
 18 20  2  0  0  0  0
 18 41  1  0  0  0  0
 19 21  1  0  0  0  0
 19 42  1  0  0  0  0
 20 22  1  0  0  0  0
 20 23  1  0  0  0  0
 21 22  2  0  0  0  0
 21 43  1  0  0  0  0
 22 44  1  0  0  0  0
 23 24  2  0  0  0  0
 23 45  1  0  0  0  0
 24 25  1  0  0  0  0
 24 46  1  0  0  0  0
M  END
> <PUBCHEM_COMPOUND_CID>
24811794

> <PUBCHEM_CONFORMER_RMSD>
0.8

> <PUBCHEM_CONFORMER_DIVERSEORDER>
1
103
124
42
179
93
163
138
28
115
105
146
96
132
155
148
55
62
60
80
88
152
174
37
141
58
109
111
129
50
7
178
36
71
26
114
106
101
45
139
74
134
136
171
67
44
116
57
91
157
153
87
81
107
82
77
94
64
41
92
83
162
154
19
118
176
127
38
102
149
126
76
6
95
120
164
160
32
52
173
143
84
175
11
40
161
104
21
16
169
68
113
75
140
39
145
135
79
23
33
46
121
35
167
24
180
18
168
137
20
30
8
131
112
17
98
110
3
156
49
70
123
128
108
130
142
25
15
144
31
13
61
14
51
12
89
59
72
66
27
159
170
177
97
86
29
47
5
99
34
65
182
147
2
85
22
69
181
78
119
133
4
9
150
48
117
73
158
56
43
53
166
172
151
63
54
90
165
10
122
100
125

> <PUBCHEM_MMFF94_PARTIAL_CHARGES>
32
1 -0.65
10 0.37
11 0.27
12 0.41
13 0.27
14 0.16
15 0.31
17 0.16
18 -0.15
19 -0.15
2 -0.57
20 0.03
21 -0.15
22 -0.15
23 -0.18
24 -0.14
25 0.71
3 -0.84
39 0.15
4 -0.81
40 0.15
41 0.15
42 0.15
43 0.15
44 0.15
45 0.15
46 0.15
47 0.5
5 -0.62
6 -0.62
8 0.37
9 0.27

> <PUBCHEM_EFFECTIVE_ROTOR_COUNT>
5.4

> <PUBCHEM_PHARMACOPHORE_FEATURES>
9
1 1 acceptor
1 2 acceptor
1 4 cation
1 6 acceptor
3 1 2 25 anion
3 3 5 12 cation
6 16 18 19 20 21 22 rings
6 5 6 12 14 15 17 rings
7 3 4 7 8 9 10 11 rings

> <PUBCHEM_HEAVY_ATOM_COUNT>
25

> <PUBCHEM_ATOM_DEF_STEREO_COUNT>
0

> <PUBCHEM_ATOM_UDEF_STEREO_COUNT>
0

> <PUBCHEM_BOND_DEF_STEREO_COUNT>
1

> <PUBCHEM_BOND_UDEF_STEREO_COUNT>
0

> <PUBCHEM_ISOTOPIC_ATOM_COUNT>
0

> <PUBCHEM_COMPONENT_COUNT>
1

> <PUBCHEM_CACTVS_TAUTO_COUNT>
1

> <PUBCHEM_CONFORMER_ID>
017A991200000001

> <PUBCHEM_MMFF94_ENERGY>
85.9863

> <PUBCHEM_FEATURE_SELFOVERLAP>
45.727

> <PUBCHEM_SHAPE_FINGERPRINT>
10042902 136 18194691359087821518
10319688 45 17975687295903831546
10622 236 18335976480794353698
10928967 22 18054235598484819439
114674 6 17117751995737881919
12107183 9 18193846950957997537
12174731 88 17757540859795348010
12553582 1 17987521570923227813
12788726 201 18129962146770809089
12969540 37 18051966219338329801
13009979 54 18270123409813711336
14117953 113 17978508629022451101
14480069 147 18187373150646732011
15099037 8 18410014308216823832
15250474 111 18339359794000149255
15403338 16 18335696144348194535
15537594 2 18124894587998763901
16728300 4 18336846203914965483
17492 89 18408325475430570290
19141452 34 17905609896179729960
19319366 153 17905889536941038020
20775530 9 18336535045791815942
21049683 118 15477361542979171849
21054139 6 18265340693378959948
21421861 104 18340225027914519623
21703447 108 17053009405910967571
229767 44 17836082273664140306
235170 7 17096918273220734613
23598288 3 18202562895326235933
3246872 21 18336259038409317394
345986 75 17988372584559571339
3680242 22 18339935865458350979
3729539 64 18339060680442190951
4017518 198 17480291271603905142
463206 1 18267025152996669994
56633871 153 17833275216230764850
7808743 9 8214131967476896732
88748 71 18335140894769428875

> <PUBCHEM_SHAPE_MULTIPOLES>
482.83
11
5.51
1.29
1.24
3.39
0.17
9.95
-0.41
2.53
-1.01
-0.16
-0.23
-3.82

> <PUBCHEM_SHAPE_SELFOVERLAP>
1026.379

> <PUBCHEM_SHAPE_VOLUME>
265.2

> <PUBCHEM_COORDINATE_TYPE>
2
5
10

$$$$
