49830937
  -OEChem-10062121533D

 36 38  0     0  0  0  0  0  0999 V2000
    2.4228    3.3085   -0.4370 O   0  0  0  0  0  0  0  0  0  0  0  0
    1.8445   -1.2874    0.5759 N   0  0  0  0  0  0  0  0  0  0  0  0
    3.4670    0.0778   -0.5992 N   0  0  0  0  0  0  0  0  0  0  0  0
    3.6835    1.3836   -0.8756 N   0  0  0  0  0  0  0  0  0  0  0  0
   -1.9083    1.2947    1.2090 N   0  0  0  0  0  0  0  0  0  0  0  0
    2.5484   -2.5311    0.3927 C   0  0  0  0  0  0  0  0  0  0  0  0
    2.3004   -0.0907    0.1102 C   0  0  0  0  0  0  0  0  0  0  0  0
    1.7051    1.1112    0.2765 C   0  0  0  0  0  0  0  0  0  0  0  0
    0.4829    1.4604    0.9415 C   0  0  0  0  0  0  0  0  0  0  0  0
    2.0799   -3.5390    1.4342 C   0  0  0  0  0  0  0  0  0  0  0  0
    2.3059   -3.0414   -1.0216 C   0  0  0  0  0  0  0  0  0  0  0  0
   -0.7139    0.9810    0.5917 C   0  0  0  0  0  0  0  0  0  0  0  0
    2.6152    2.1061   -0.3770 C   0  0  0  0  0  0  0  0  0  0  0  0
   -2.2688   -0.2083   -0.5516 C   0  0  0  0  0  0  0  0  0  0  0  0
   -2.7973    0.6125    0.5528 C   0  0  0  0  0  0  0  0  0  0  0  0
   -0.9652    0.0539   -0.4888 C   0  0  0  0  0  0  0  0  0  0  0  0
   -3.1137   -1.0147   -1.3683 C   0  0  0  0  0  0  0  0  0  0  0  0
   -4.2589    0.5597    0.7760 C   0  0  0  0  0  0  0  0  0  0  0  0
   -4.4317   -1.0156   -1.1103 C   0  0  0  0  0  0  0  0  0  0  0  0
   -4.9978   -0.2210   -0.0309 C   0  0  0  0  0  0  0  0  0  0  0  0
    3.6254   -2.3892    0.5454 H   0  0  0  0  0  0  0  0  0  0  0  0
    0.9642   -1.2924    1.0802 H   0  0  0  0  0  0  0  0  0  0  0  0
    0.5610    2.1892    1.7437 H   0  0  0  0  0  0  0  0  0  0  0  0
    4.1852   -0.6249   -0.6926 H   0  0  0  0  0  0  0  0  0  0  0  0
    2.6143   -4.4887    1.3273 H   0  0  0  0  0  0  0  0  0  0  0  0
    2.2579   -3.1627    2.4477 H   0  0  0  0  0  0  0  0  0  0  0  0
    1.0067   -3.7411    1.3414 H   0  0  0  0  0  0  0  0  0  0  0  0
    2.8068   -4.0028   -1.1773 H   0  0  0  0  0  0  0  0  0  0  0  0
    2.6854   -2.3458   -1.7770 H   0  0  0  0  0  0  0  0  0  0  0  0
    1.2363   -3.1834   -1.2150 H   0  0  0  0  0  0  0  0  0  0  0  0
    4.5017    1.6889   -1.3853 H   0  0  0  0  0  0  0  0  0  0  0  0
   -0.2301   -0.3571   -1.1626 H   0  0  0  0  0  0  0  0  0  0  0  0
   -2.6911   -1.6058   -2.1714 H   0  0  0  0  0  0  0  0  0  0  0  0
   -4.6930    1.1458    1.5757 H   0  0  0  0  0  0  0  0  0  0  0  0
   -5.1128   -1.6141   -1.7056 H   0  0  0  0  0  0  0  0  0  0  0  0
   -6.0727   -0.2800    0.1084 H   0  0  0  0  0  0  0  0  0  0  0  0
  1 13  2  0  0  0  0
  2  6  1  0  0  0  0
  2  7  1  0  0  0  0
  2 22  1  0  0  0  0
  3  4  1  0  0  0  0
  3  7  1  0  0  0  0
  3 24  1  0  0  0  0
  4 13  1  0  0  0  0
  4 31  1  0  0  0  0
  5 12  1  0  0  0  0
  5 15  2  0  0  0  0
  6 10  1  0  0  0  0
  6 11  1  0  0  0  0
  6 21  1  0  0  0  0
  7  8  2  0  0  0  0
  8  9  1  0  0  0  0
  8 13  1  0  0  0  0
  9 12  2  3  0  0  0
  9 23  1  0  0  0  0
 10 25  1  0  0  0  0
 10 26  1  0  0  0  0
 10 27  1  0  0  0  0
 11 28  1  0  0  0  0
 11 29  1  0  0  0  0
 11 30  1  0  0  0  0
 12 16  1  0  0  0  0
 14 15  1  0  0  0  0
 14 16  2  0  0  0  0
 14 17  1  0  0  0  0
 15 18  1  0  0  0  0
 16 32  1  0  0  0  0
 17 19  2  0  0  0  0
 17 33  1  0  0  0  0
 18 20  2  0  0  0  0
 18 34  1  0  0  0  0
 19 20  1  0  0  0  0
 19 35  1  0  0  0  0
 20 36  1  0  0  0  0
M  END
> <PUBCHEM_COMPOUND_CID>
49830937

> <PUBCHEM_CONFORMER_RMSD>
0.6

> <PUBCHEM_CONFORMER_DIVERSEORDER>
1
16
10
2
4
6
9
8
12
7
5
13
15
14
11
3

> <PUBCHEM_MMFF94_PARTIAL_CHARGES>
27
1 -0.57
12 0.17
13 0.62
14 0.01
15 0.42
16 -0.15
17 -0.15
18 -0.14
19 -0.15
2 -0.87
20 -0.15
22 0.4
23 0.15
24 0.4
3 -0.52
31 0.37
32 0.15
33 0.15
34 0.15
35 0.15
36 0.15
4 -0.41
5 -0.62
6 0.37
7 0.2
8 0.01
9 -0.15

> <PUBCHEM_EFFECTIVE_ROTOR_COUNT>
3

> <PUBCHEM_PHARMACOPHORE_FEATURES>
10
1 1 acceptor
1 2 cation
1 2 donor
1 3 donor
1 4 donor
1 5 acceptor
3 6 10 11 hydrophobe
5 3 4 7 8 13 rings
5 5 12 14 15 16 rings
6 14 15 17 18 19 20 rings

> <PUBCHEM_HEAVY_ATOM_COUNT>
20

> <PUBCHEM_ATOM_DEF_STEREO_COUNT>
0

> <PUBCHEM_ATOM_UDEF_STEREO_COUNT>
0

> <PUBCHEM_BOND_DEF_STEREO_COUNT>
0

> <PUBCHEM_BOND_UDEF_STEREO_COUNT>
1

> <PUBCHEM_ISOTOPIC_ATOM_COUNT>
0

> <PUBCHEM_COMPONENT_COUNT>
1

> <PUBCHEM_CACTVS_TAUTO_COUNT>
35

> <PUBCHEM_CONFORMER_ID>
02F85C1900000001

> <PUBCHEM_MMFF94_ENERGY>
58.9754

> <PUBCHEM_FEATURE_SELFOVERLAP>
52.512

> <PUBCHEM_SHAPE_FINGERPRINT>
10062212 137 17988636368724290159
10616163 171 18200876287586885591
12107183 9 17908148672949540761
12403259 327 15266196043739306439
12553582 1 18271238322603321415
12730499 353 18187374276080715459
12788726 201 17775297032275242577
13009979 54 17844251713936391298
13083527 12 17971174960271108218
13533116 47 18411978071082189955
13583140 156 18263385641361281033
13760787 19 18272091638706456933
14848160 33 18189608358986090595
14863182 85 18342731915112086418
15099037 8 18270399365335109249
15375462 189 18272933825736906355
16752209 62 17346878949320342861
17818456 19 17700138699293491441
1813 80 18122909733214132534
20281475 54 18343294877870859535
20291156 8 18125157134817756954
20645477 70 18408601453054915695
21054139 6 18197769106075170766
21421861 104 18270976630588744163
21452121 199 18044642110719406266
2255824 54 18411419557233795372
23419403 2 14279857208472160768
235170 7 17677035950070269447
23559900 14 18341887463973878571
23598291 2 18126298453614585112
23728640 28 15882911845481751146
238 59 18335425698504173306
3060560 45 18261674891325481524
474 4 18263927820262170460
59682541 52 18122309516604386391
7097593 13 18199750245739815499
8272917 22 18410016528730291861
9709674 26 18408328769886965603

> <PUBCHEM_SHAPE_MULTIPOLES>
385.8
8.44
3.34
1.21
7.88
1.61
0.03
1.25
-1.37
-5.13
0.26
0.19
0.44
-1.65

> <PUBCHEM_SHAPE_SELFOVERLAP>
842.656

> <PUBCHEM_SHAPE_VOLUME>
210.3

> <PUBCHEM_COORDINATE_TYPE>
2
5
10

$$$$
