49830623
  -OEChem-10052115183D

 81 87  0     0  0  0  0  0  0999 V2000
  -10.3130    4.7421   -1.0038 O   0  0  0  0  0  0  0  0  0  0  0  0
    5.4798    0.4316   -1.8545 O   0  0  0  0  0  0  0  0  0  0  0  0
   -7.1985    0.9997    0.0124 N   0  0  0  0  0  0  0  0  0  0  0  0
   -2.3726   -2.1605    0.0027 N   0  0  0  0  0  0  0  0  0  0  0  0
   -9.3204    2.9243    0.0478 N   0  0  0  0  0  0  0  0  0  0  0  0
   -1.3332   -1.3102    0.0948 N   0  0  0  0  0  0  0  0  0  0  0  0
   -2.8119   -4.5357   -0.1645 N   0  0  0  0  0  0  0  0  0  0  0  0
   -0.7482   -5.8363   -0.1715 N   0  0  0  0  0  0  0  0  0  0  0  0
    1.4112   -4.8299   -0.0276 N   0  0  0  0  0  0  0  0  0  0  0  0
    4.9047    0.0723    0.3971 N   0  0  0  0  0  0  0  0  0  0  0  0
    7.7335    2.0002   -0.9574 N   0  0  0  0  0  0  0  0  0  0  0  0
   -5.8051    0.5585    0.0399 C   0  0  0  0  0  0  0  0  0  0  0  0
   -3.7880   -1.6128   -0.0187 C   0  0  0  0  0  0  0  0  0  0  0  0
   -5.5675   -0.3375    1.2597 C   0  0  0  0  0  0  0  0  0  0  0  0
   -5.4670   -0.1766   -1.2612 C   0  0  0  0  0  0  0  0  0  0  0  0
   -4.1364   -0.8757    1.2861 C   0  0  0  0  0  0  0  0  0  0  0  0
   -4.0353   -0.7138   -1.2423 C   0  0  0  0  0  0  0  0  0  0  0  0
   -7.5404    1.7078    1.2547 C   0  0  0  0  0  0  0  0  0  0  0  0
   -7.4448    1.8599   -1.1541 C   0  0  0  0  0  0  0  0  0  0  0  0
   -9.0060    2.1467    1.2498 C   0  0  0  0  0  0  0  0  0  0  0  0
   -8.9088    2.2953   -1.2062 C   0  0  0  0  0  0  0  0  0  0  0  0
   -2.0009   -3.4702   -0.0670 C   0  0  0  0  0  0  0  0  0  0  0  0
   -0.6180   -3.4780   -0.0168 C   0  0  0  0  0  0  0  0  0  0  0  0
   -0.2676   -2.1186    0.0825 C   0  0  0  0  0  0  0  0  0  0  0  0
  -10.0613    4.1050    0.0221 C   0  0  0  0  0  0  0  0  0  0  0  0
    0.0099   -4.7179   -0.0726 C   0  0  0  0  0  0  0  0  0  0  0  0
    1.0577   -1.5580    0.1628 C   0  0  0  0  0  0  0  0  0  0  0  0
  -10.5688    4.6115    1.3487 C   0  0  0  0  0  0  0  0  0  0  0  0
   -2.0928   -5.6779   -0.2106 C   0  0  0  0  0  0  0  0  0  0  0  0
    1.7393   -1.2091   -1.0030 C   0  0  0  0  0  0  0  0  0  0  0  0
    1.6584   -1.3637    1.4067 C   0  0  0  0  0  0  0  0  0  0  0  0
    3.0217   -0.6661   -0.9252 C   0  0  0  0  0  0  0  0  0  0  0  0
    2.9408   -0.8207    1.4846 C   0  0  0  0  0  0  0  0  0  0  0  0
    3.6224   -0.4719    0.3186 C   0  0  0  0  0  0  0  0  0  0  0  0
    5.7347    0.4802   -0.6559 C   0  0  0  0  0  0  0  0  0  0  0  0
    7.0452    1.0518   -0.2494 C   0  0  0  0  0  0  0  0  0  0  0  0
    8.9089    2.3139   -0.3129 C   0  0  0  0  0  0  0  0  0  0  0  0
    8.9636    1.5344    0.8446 C   0  0  0  0  0  0  0  0  0  0  0  0
    7.7812    0.7430    0.8713 C   0  0  0  0  0  0  0  0  0  0  0  0
    7.2892    2.5890   -2.2039 C   0  0  0  0  0  0  0  0  0  0  0  0
    9.9174    3.2189   -0.6623 C   0  0  0  0  0  0  0  0  0  0  0  0
   10.0784    1.6627    1.6967 C   0  0  0  0  0  0  0  0  0  0  0  0
   11.0137    3.3289    0.1978 C   0  0  0  0  0  0  0  0  0  0  0  0
   11.0950    2.5637    1.3597 C   0  0  0  0  0  0  0  0  0  0  0  0
   -5.1388    1.4300    0.1220 H   0  0  0  0  0  0  0  0  0  0  0  0
   -4.4283   -2.5006   -0.1011 H   0  0  0  0  0  0  0  0  0  0  0  0
   -6.2717   -1.1796    1.2639 H   0  0  0  0  0  0  0  0  0  0  0  0
   -5.6894    0.2010    2.2042 H   0  0  0  0  0  0  0  0  0  0  0  0
   -5.5164    0.4780   -2.1363 H   0  0  0  0  0  0  0  0  0  0  0  0
   -6.1642   -1.0080   -1.4280 H   0  0  0  0  0  0  0  0  0  0  0  0
   -4.0143   -1.5538    2.1397 H   0  0  0  0  0  0  0  0  0  0  0  0
   -3.4388   -0.0437    1.4474 H   0  0  0  0  0  0  0  0  0  0  0  0
   -3.3318    0.1287   -1.2403 H   0  0  0  0  0  0  0  0  0  0  0  0
   -3.8422   -1.2780   -2.1629 H   0  0  0  0  0  0  0  0  0  0  0  0
   -6.8935    2.5835    1.3969 H   0  0  0  0  0  0  0  0  0  0  0  0
   -7.4492    1.0693    2.1369 H   0  0  0  0  0  0  0  0  0  0  0  0
   -7.2805    1.3380   -2.1000 H   0  0  0  0  0  0  0  0  0  0  0  0
   -6.7954    2.7449   -1.1330 H   0  0  0  0  0  0  0  0  0  0  0  0
   -9.2130    2.7127    2.1605 H   0  0  0  0  0  0  0  0  0  0  0  0
   -9.6701    1.2735    1.2495 H   0  0  0  0  0  0  0  0  0  0  0  0
   -9.5636    1.4289   -1.3624 H   0  0  0  0  0  0  0  0  0  0  0  0
   -9.0639    2.9761   -2.0496 H   0  0  0  0  0  0  0  0  0  0  0  0
  -11.1989    5.4912    1.1853 H   0  0  0  0  0  0  0  0  0  0  0  0
  -11.1753    3.8473    1.8421 H   0  0  0  0  0  0  0  0  0  0  0  0
   -9.7291    4.9043    1.9846 H   0  0  0  0  0  0  0  0  0  0  0  0
   -2.6694   -6.5933   -0.2899 H   0  0  0  0  0  0  0  0  0  0  0  0
    1.2838   -1.3551   -1.9798 H   0  0  0  0  0  0  0  0  0  0  0  0
    1.1404   -1.6307    2.3249 H   0  0  0  0  0  0  0  0  0  0  0  0
    1.8269   -5.7507   -0.0707 H   0  0  0  0  0  0  0  0  0  0  0  0
    2.0019   -4.0148    0.0460 H   0  0  0  0  0  0  0  0  0  0  0  0
    3.4835   -0.4222   -1.8714 H   0  0  0  0  0  0  0  0  0  0  0  0
    3.3968   -0.6749    2.4606 H   0  0  0  0  0  0  0  0  0  0  0  0
    5.2592    0.1932    1.3429 H   0  0  0  0  0  0  0  0  0  0  0  0
    7.5147    0.0225    1.6331 H   0  0  0  0  0  0  0  0  0  0  0  0
    7.8574    3.4940   -2.4245 H   0  0  0  0  0  0  0  0  0  0  0  0
    6.2356    2.8656   -2.1110 H   0  0  0  0  0  0  0  0  0  0  0  0
    7.4370    1.8564   -3.0012 H   0  0  0  0  0  0  0  0  0  0  0  0
    9.8722    3.8188   -1.5643 H   0  0  0  0  0  0  0  0  0  0  0  0
   10.1545    1.0725    2.6054 H   0  0  0  0  0  0  0  0  0  0  0  0
   11.8153    4.0218   -0.0448 H   0  0  0  0  0  0  0  0  0  0  0  0
   11.9575    2.6666    2.0129 H   0  0  0  0  0  0  0  0  0  0  0  0
  1 25  2  0  0  0  0
  2 35  2  0  0  0  0
  3 12  1  0  0  0  0
  3 18  1  0  0  0  0
  3 19  1  0  0  0  0
  4  6  1  0  0  0  0
  4 13  1  0  0  0  0
  4 22  1  0  0  0  0
  5 20  1  0  0  0  0
  5 21  1  0  0  0  0
  5 25  1  0  0  0  0
  6 24  2  0  0  0  0
  7 22  2  0  0  0  0
  7 29  1  0  0  0  0
  8 26  1  0  0  0  0
  8 29  2  0  0  0  0
  9 26  1  0  0  0  0
  9 69  1  0  0  0  0
  9 70  1  0  0  0  0
 10 34  1  0  0  0  0
 10 35  1  0  0  0  0
 10 73  1  0  0  0  0
 11 36  1  0  0  0  0
 11 37  1  0  0  0  0
 11 40  1  0  0  0  0
 12 14  1  0  0  0  0
 12 15  1  0  0  0  0
 12 45  1  0  0  0  0
 13 16  1  0  0  0  0
 13 17  1  0  0  0  0
 13 46  1  0  0  0  0
 14 16  1  0  0  0  0
 14 47  1  0  0  0  0
 14 48  1  0  0  0  0
 15 17  1  0  0  0  0
 15 49  1  0  0  0  0
 15 50  1  0  0  0  0
 16 51  1  0  0  0  0
 16 52  1  0  0  0  0
 17 53  1  0  0  0  0
 17 54  1  0  0  0  0
 18 20  1  0  0  0  0
 18 55  1  0  0  0  0
 18 56  1  0  0  0  0
 19 21  1  0  0  0  0
 19 57  1  0  0  0  0
 19 58  1  0  0  0  0
 20 59  1  0  0  0  0
 20 60  1  0  0  0  0
 21 61  1  0  0  0  0
 21 62  1  0  0  0  0
 22 23  1  0  0  0  0
 23 24  1  0  0  0  0
 23 26  2  0  0  0  0
 24 27  1  0  0  0  0
 25 28  1  0  0  0  0
 27 30  2  0  0  0  0
 27 31  1  0  0  0  0
 28 63  1  0  0  0  0
 28 64  1  0  0  0  0
 28 65  1  0  0  0  0
 29 66  1  0  0  0  0
 30 32  1  0  0  0  0
 30 67  1  0  0  0  0
 31 33  2  0  0  0  0
 31 68  1  0  0  0  0
 32 34  2  0  0  0  0
 32 71  1  0  0  0  0
 33 34  1  0  0  0  0
 33 72  1  0  0  0  0
 35 36  1  0  0  0  0
 36 39  2  0  0  0  0
 37 38  1  0  0  0  0
 37 41  2  0  0  0  0
 38 39  1  0  0  0  0
 38 42  2  0  0  0  0
 39 74  1  0  0  0  0
 40 75  1  0  0  0  0
 40 76  1  0  0  0  0
 40 77  1  0  0  0  0
 41 43  1  0  0  0  0
 41 78  1  0  0  0  0
 42 44  1  0  0  0  0
 42 79  1  0  0  0  0
 43 44  2  0  0  0  0
 43 80  1  0  0  0  0
 44 81  1  0  0  0  0
M  END
> <PUBCHEM_COMPOUND_CID>
49830623

> <PUBCHEM_CONFORMER_RMSD>
1.2

> <PUBCHEM_CONFORMER_DIVERSEORDER>
1
2
49
54
11
43
28
35
29
53
51
17
6
16
37
20
30
42
34
8
14
31
27
33
40
44
52
48
10
45
12
24
9
38
39
47
15
23
18
19
26
25
5
4
3
22
46
36
7
41
32
50
21
13

> <PUBCHEM_MMFF94_PARTIAL_CHARGES>
51
1 -0.57
10 -0.55
11 0.05
12 0.27
13 0.26
18 0.27
19 0.27
2 -0.57
20 0.3
21 0.3
22 0.11
24 0.23
25 0.57
26 0.41
27 0.05
28 0.06
29 0.47
3 -0.81
30 -0.15
31 -0.15
32 -0.15
33 -0.15
34 0.12
35 0.71
36 -0.24
37 -0.15
39 -0.15
4 0.31
40 0.26
41 -0.15
42 -0.15
43 -0.15
44 -0.15
5 -0.66
6 -0.71
66 0.15
67 0.15
68 0.15
69 0.4
7 -0.57
70 0.4
71 0.15
72 0.15
73 0.37
74 0.15
78 0.15
79 0.15
8 -0.62
80 0.15
81 0.15
9 -0.9

> <PUBCHEM_EFFECTIVE_ROTOR_COUNT>
9.4

> <PUBCHEM_PHARMACOPHORE_FEATURES>
17
1 1 acceptor
1 10 donor
1 11 cation
1 2 acceptor
1 3 cation
1 6 acceptor
1 9 cation
1 9 donor
3 4 7 22 cation
3 7 8 29 cation
5 11 36 37 38 39 rings
5 4 6 22 23 24 rings
6 12 13 14 15 16 17 rings
6 27 30 31 32 33 34 rings
6 3 5 18 19 20 21 rings
6 37 38 41 42 43 44 rings
6 7 8 22 23 26 29 rings

> <PUBCHEM_HEAVY_ATOM_COUNT>
44

> <PUBCHEM_ATOM_DEF_STEREO_COUNT>
0

> <PUBCHEM_ATOM_UDEF_STEREO_COUNT>
0

> <PUBCHEM_BOND_DEF_STEREO_COUNT>
0

> <PUBCHEM_BOND_UDEF_STEREO_COUNT>
0

> <PUBCHEM_ISOTOPIC_ATOM_COUNT>
0

> <PUBCHEM_COMPONENT_COUNT>
1

> <PUBCHEM_CACTVS_TAUTO_COUNT>
24

> <PUBCHEM_CONFORMER_ID>
02F85ADF00000001

> <PUBCHEM_MMFF94_ENERGY>
111.3545

> <PUBCHEM_FEATURE_SELFOVERLAP>
86.649

> <PUBCHEM_SHAPE_FINGERPRINT>
10029044 110 18272090482796440593
10533779 1 18410008811054655117
10533779 47 16298378038734999432
10952577 141 18343302570036045645
11421887 45 18340473530681916241
11578821 258 18264771137702988316
11607047 141 18042965377410829626
11672396 167 8574415519401034769
12522641 68 18131632305144989263
12539745 222 12107773108391933471
12838863 1 8790878588999743793
13553643 46 18334851775843909564
13974486 7 8790592689964463105
14359421 15 11815894540444596941
15152005 290 18410291424018026399
15419008 91 17630039598211569984
15439362 3 18411421674484744446
15455200 26 17752472163443591613
15685185 35 18413671306146137745
15890870 6 18412825772739949145
16991971 28 10015578394172889591
16992752 21 9799426520013104614
19302320 297 17313107479981113748
19304671 126 18058738996074673847
2026 5 9871744681681237013
20609170 114 17895202151999234251
20721686 146 18342177782773665852
21057499 1 18338797789557724739
21362267 313 18409723003626756472
22002106 203 8358250437082223317
22899556 56 17677629720773110203
23516275 100 18116992183810503389
23522609 53 17388550569310511566
23523766 6 10231741302437571707
23523787 8 15985097505588147839
23523788 1 12757426107777884147
23569943 247 9367047988603068901
24771293 8 18260267422506269637
25242607 90 7997680974830657269
2835820 83 9295281747275866633
2851757 41 9799401240263388029
3918712 181 18413107238747053465
406291 66 9439399125689610861
4330586 98 11455884806741170006
44802255 64 16916790737809078150
44880568 143 18122915480734404132
4516262 110 18269835329504041615
6204607 403 18127415558721824561
636775 8 9511471030568839400

> <PUBCHEM_SHAPE_MULTIPOLES>
848.93
43.12
7.53
1.48
21.78
7.28
0.08
-89.56
-4.99
-12.9
0.32
0.77
-0.99
-0.89

> <PUBCHEM_SHAPE_SELFOVERLAP>
1867.615

> <PUBCHEM_SHAPE_VOLUME>
453.7

> <PUBCHEM_COORDINATE_TYPE>
2
5
10

$$$$
