24905330
  -OEChem-10052115143D

 45 47  0     0  0  0  0  0  0999 V2000
   -3.9004   -0.3675    2.0042 O   0  0  0  0  0  0  0  0  0  0  0  0
   -5.1292   -0.6034   -0.4776 O   0  0  0  0  0  0  0  0  0  0  0  0
    2.4405   -0.8296    0.0333 N   0  0  0  0  0  0  0  0  0  0  0  0
    1.1810   -1.3016   -0.0202 N   0  0  0  0  0  0  0  0  0  0  0  0
    3.6305    1.2786   -0.0094 N   0  0  0  0  0  0  0  0  0  0  0  0
    2.1053    3.1714   -0.2127 N   0  0  0  0  0  0  0  0  0  0  0  0
   -0.2635    2.9105   -0.3474 N   0  0  0  0  0  0  0  0  0  0  0  0
    3.6142   -1.8143    0.1634 C   0  0  0  0  0  0  0  0  0  0  0  0
    2.5167    0.5296   -0.0382 C   0  0  0  0  0  0  0  0  0  0  0  0
    4.3985   -1.5198    1.4604 C   0  0  0  0  0  0  0  0  0  0  0  0
    4.5593   -1.6589   -1.0477 C   0  0  0  0  0  0  0  0  0  0  0  0
    3.1828   -3.2974    0.2180 C   0  0  0  0  0  0  0  0  0  0  0  0
    1.2127    0.9801   -0.1464 C   0  0  0  0  0  0  0  0  0  0  0  0
    0.4382   -0.1947   -0.1296 C   0  0  0  0  0  0  0  0  0  0  0  0
   -0.9966   -0.3006   -0.2150 C   0  0  0  0  0  0  0  0  0  0  0  0
    1.0242    2.3553   -0.2356 C   0  0  0  0  0  0  0  0  0  0  0  0
   -1.7688   -0.2832    0.9465 C   0  0  0  0  0  0  0  0  0  0  0  0
   -1.6132   -0.4197   -1.4607 C   0  0  0  0  0  0  0  0  0  0  0  0
    3.3239    2.5906   -0.1027 C   0  0  0  0  0  0  0  0  0  0  0  0
   -3.1574   -0.3847    0.8625 C   0  0  0  0  0  0  0  0  0  0  0  0
   -3.0018   -0.5211   -1.5447 C   0  0  0  0  0  0  0  0  0  0  0  0
   -3.7739   -0.5036   -0.3831 C   0  0  0  0  0  0  0  0  0  0  0  0
   -4.3426    0.9058    2.4705 C   0  0  0  0  0  0  0  0  0  0  0  0
   -5.6806   -0.7218   -1.7877 C   0  0  0  0  0  0  0  0  0  0  0  0
    3.7407   -1.5785    2.3353 H   0  0  0  0  0  0  0  0  0  0  0  0
    5.2137   -2.2384    1.6031 H   0  0  0  0  0  0  0  0  0  0  0  0
    4.8471   -0.5216    1.4539 H   0  0  0  0  0  0  0  0  0  0  0  0
    4.0179   -1.8176   -1.9875 H   0  0  0  0  0  0  0  0  0  0  0  0
    5.0112   -0.6631   -1.0938 H   0  0  0  0  0  0  0  0  0  0  0  0
    5.3806   -2.3835   -1.0057 H   0  0  0  0  0  0  0  0  0  0  0  0
    2.6368   -3.5832   -0.6885 H   0  0  0  0  0  0  0  0  0  0  0  0
    4.0469   -3.9652    0.3104 H   0  0  0  0  0  0  0  0  0  0  0  0
    2.5239   -3.4854    1.0735 H   0  0  0  0  0  0  0  0  0  0  0  0
   -1.2963   -0.1910    1.9223 H   0  0  0  0  0  0  0  0  0  0  0  0
   -1.0245   -0.4339   -2.3750 H   0  0  0  0  0  0  0  0  0  0  0  0
    4.1674    3.2724   -0.0873 H   0  0  0  0  0  0  0  0  0  0  0  0
   -3.4116   -0.6104   -2.5449 H   0  0  0  0  0  0  0  0  0  0  0  0
   -1.0876    2.3280   -0.3657 H   0  0  0  0  0  0  0  0  0  0  0  0
   -0.3558    3.9156   -0.4088 H   0  0  0  0  0  0  0  0  0  0  0  0
   -4.9243    0.7533    3.3837 H   0  0  0  0  0  0  0  0  0  0  0  0
   -4.9818    1.3887    1.7246 H   0  0  0  0  0  0  0  0  0  0  0  0
   -3.4866    1.5471    2.7036 H   0  0  0  0  0  0  0  0  0  0  0  0
   -6.7676   -0.7903   -1.6747 H   0  0  0  0  0  0  0  0  0  0  0  0
   -5.3536   -1.6433   -2.2814 H   0  0  0  0  0  0  0  0  0  0  0  0
   -5.4795    0.1693   -2.3921 H   0  0  0  0  0  0  0  0  0  0  0  0
  1 20  1  0  0  0  0
  1 23  1  0  0  0  0
  2 22  1  0  0  0  0
  2 24  1  0  0  0  0
  3  4  1  0  0  0  0
  3  8  1  0  0  0  0
  3  9  1  0  0  0  0
  4 14  2  0  0  0  0
  5  9  2  0  0  0  0
  5 19  1  0  0  0  0
  6 16  1  0  0  0  0
  6 19  2  0  0  0  0
  7 16  1  0  0  0  0
  7 38  1  0  0  0  0
  7 39  1  0  0  0  0
  8 10  1  0  0  0  0
  8 11  1  0  0  0  0
  8 12  1  0  0  0  0
  9 13  1  0  0  0  0
 10 25  1  0  0  0  0
 10 26  1  0  0  0  0
 10 27  1  0  0  0  0
 11 28  1  0  0  0  0
 11 29  1  0  0  0  0
 11 30  1  0  0  0  0
 12 31  1  0  0  0  0
 12 32  1  0  0  0  0
 12 33  1  0  0  0  0
 13 14  1  0  0  0  0
 13 16  2  0  0  0  0
 14 15  1  0  0  0  0
 15 17  2  0  0  0  0
 15 18  1  0  0  0  0
 17 20  1  0  0  0  0
 17 34  1  0  0  0  0
 18 21  2  0  0  0  0
 18 35  1  0  0  0  0
 19 36  1  0  0  0  0
 20 22  2  0  0  0  0
 21 22  1  0  0  0  0
 21 37  1  0  0  0  0
 23 40  1  0  0  0  0
 23 41  1  0  0  0  0
 23 42  1  0  0  0  0
 24 43  1  0  0  0  0
 24 44  1  0  0  0  0
 24 45  1  0  0  0  0
M  END
> <PUBCHEM_COMPOUND_CID>
24905330

> <PUBCHEM_CONFORMER_RMSD>
0.8

> <PUBCHEM_CONFORMER_DIVERSEORDER>
1
5
3
4
2

> <PUBCHEM_MMFF94_PARTIAL_CHARGES>
26
1 -0.36
14 0.23
15 0.05
16 0.41
17 -0.15
18 -0.15
19 0.47
2 -0.36
20 0.08
21 -0.15
22 0.08
23 0.28
24 0.28
3 0.31
34 0.15
35 0.15
36 0.15
37 0.15
38 0.4
39 0.4
4 -0.71
5 -0.57
6 -0.62
7 -0.9
8 0.26
9 0.11

> <PUBCHEM_EFFECTIVE_ROTOR_COUNT>
4

> <PUBCHEM_PHARMACOPHORE_FEATURES>
11
1 1 acceptor
1 2 acceptor
1 4 acceptor
1 7 cation
1 7 donor
3 3 5 9 cation
3 5 6 19 cation
4 8 10 11 12 hydrophobe
5 3 4 9 13 14 rings
6 15 17 18 20 21 22 rings
6 5 6 9 13 16 19 rings

> <PUBCHEM_HEAVY_ATOM_COUNT>
24

> <PUBCHEM_ATOM_DEF_STEREO_COUNT>
0

> <PUBCHEM_ATOM_UDEF_STEREO_COUNT>
0

> <PUBCHEM_BOND_DEF_STEREO_COUNT>
0

> <PUBCHEM_BOND_UDEF_STEREO_COUNT>
0

> <PUBCHEM_ISOTOPIC_ATOM_COUNT>
0

> <PUBCHEM_COMPONENT_COUNT>
1

> <PUBCHEM_CACTVS_TAUTO_COUNT>
5

> <PUBCHEM_CONFORMER_ID>
017C067200000001

> <PUBCHEM_MMFF94_ENERGY>
88.5308

> <PUBCHEM_FEATURE_SELFOVERLAP>
56.104

> <PUBCHEM_SHAPE_FINGERPRINT>
10366900 7 17749104461714655191
10411042 1 18265888061101314614
11049842 53 16557375685362130829
11370993 144 18187097152290978201
11796584 16 16226043349853779746
12107183 9 18126854785561421729
12236239 1 17846779632838940423
12422481 6 17842570552046182657
12553582 1 18337958879190624502
12616971 3 18202569484407213667
12633257 1 18336275569537505451
12644460 14 18335985350281127936
12670546 56 17917992793209199713
12730499 353 18189898801743173815
13009979 54 17846225444523961507
13134695 92 18408035230083402508
13140716 1 18265047110899815738
13533116 47 18271524299354669715
13544653 18 18261394382384057326
13583140 156 18264211498931286639
13782708 43 17530969107607329651
14739800 52 16916211316951222304
14790565 3 18048332320846031476
15042514 8 17616818734748078834
15842332 3 17988362680053788911
17349148 13 17632576063440031887
17818456 19 17416138182606150161
1813 80 18200320909802978686
18222031 100 18342735179060384630
20511986 3 17774991440524829961
20642791 268 18060421292189084688
20645477 70 18334564767830080310
20739085 24 18338254694767536104
21033648 29 17458341970708941181
21041028 32 18337962181698617968
21065201 7 16153421766559140659
21344244 78 18129644379230439145
221357 26 18261660503158458629
22182313 1 18336812105958923524
2255824 54 18412545444482550630
23175994 123 18261112920149628855
23557571 272 14404915729681917369
23559900 14 18261106413147490395
23598291 2 18131355219296799871
25147074 1 17989495125949642097
2748010 2 18266443327426698364
312423 11 18202571700146069231
314173 85 18339643326614224314
341906 21 16200437957193332915
3633792 109 18342726417590429447
474 4 18196371652582226520
5104073 3 18412548730026823331
6049 1 17676207982974566109
7471813 234 18130776867801891785
7615 1 17989489645239108433
77492 1 17846219998605474829
7970288 3 18266737991821583990
9841814 1 18333732395321830210
9981440 41 17263823176039157825

> <PUBCHEM_SHAPE_MULTIPOLES>
457.27
10.64
2.95
1.59
7.3
1.58
-0.62
-4.66
-0.19
-4.66
0.18
2.53
-0.22
-1.29

> <PUBCHEM_SHAPE_SELFOVERLAP>
988.311

> <PUBCHEM_SHAPE_VOLUME>
252.4

> <PUBCHEM_COORDINATE_TYPE>
2
5
10

$$$$
