24905143
  -OEChem-10052115143D

 35 37  0     0  0  0  0  0  0999 V2000
    4.4701    0.4778   -1.8788 O   0  0  0  0  0  0  0  0  0  0  0  0
   -1.9067    0.9810   -0.0196 N   0  0  0  0  0  0  0  0  0  0  0  0
   -0.6344    1.4035    0.1012 N   0  0  0  0  0  0  0  0  0  0  0  0
   -3.1648   -1.0814   -0.1811 N   0  0  0  0  0  0  0  0  0  0  0  0
   -1.7068   -3.0357   -0.1051 N   0  0  0  0  0  0  0  0  0  0  0  0
    0.6649   -2.8682    0.1052 N   0  0  0  0  0  0  0  0  0  0  0  0
   -2.9751    1.9496   -0.0870 C   0  0  0  0  0  0  0  0  0  0  0  0
   -2.0284   -0.3761   -0.0649 C   0  0  0  0  0  0  0  0  0  0  0  0
   -0.7427   -0.8784    0.0333 C   0  0  0  0  0  0  0  0  0  0  0  0
    0.0695    0.2666    0.1328 C   0  0  0  0  0  0  0  0  0  0  0  0
   -2.8423    2.8495   -1.3182 C   0  0  0  0  0  0  0  0  0  0  0  0
   -3.0588    2.7854    1.1926 C   0  0  0  0  0  0  0  0  0  0  0  0
    1.5044    0.3159    0.2578 C   0  0  0  0  0  0  0  0  0  0  0  0
   -0.6008   -2.2619    0.0102 C   0  0  0  0  0  0  0  0  0  0  0  0
    2.3023    0.3727   -0.8849 C   0  0  0  0  0  0  0  0  0  0  0  0
    2.0954    0.3089    1.5213 C   0  0  0  0  0  0  0  0  0  0  0  0
   -2.9030   -2.4063   -0.1924 C   0  0  0  0  0  0  0  0  0  0  0  0
    3.6910    0.4227   -0.7642 C   0  0  0  0  0  0  0  0  0  0  0  0
    3.4840    0.3587    1.6422 C   0  0  0  0  0  0  0  0  0  0  0  0
    4.2818    0.4156    0.4994 C   0  0  0  0  0  0  0  0  0  0  0  0
   -3.9152    1.3932   -0.1823 H   0  0  0  0  0  0  0  0  0  0  0  0
   -1.9384    3.4673   -1.2731 H   0  0  0  0  0  0  0  0  0  0  0  0
   -3.7040    3.5202   -1.4013 H   0  0  0  0  0  0  0  0  0  0  0  0
   -2.7907    2.2511   -2.2345 H   0  0  0  0  0  0  0  0  0  0  0  0
   -2.1634    3.4007    1.3342 H   0  0  0  0  0  0  0  0  0  0  0  0
   -3.1622    2.1411    2.0728 H   0  0  0  0  0  0  0  0  0  0  0  0
   -3.9251    3.4548    1.1610 H   0  0  0  0  0  0  0  0  0  0  0  0
    1.8443    0.3781   -1.8720 H   0  0  0  0  0  0  0  0  0  0  0  0
    1.4875    0.2647    2.4220 H   0  0  0  0  0  0  0  0  0  0  0  0
   -3.7673   -3.0554   -0.2835 H   0  0  0  0  0  0  0  0  0  0  0  0
    3.9442    0.3531    2.6259 H   0  0  0  0  0  0  0  0  0  0  0  0
    1.5066   -2.3178    0.1916 H   0  0  0  0  0  0  0  0  0  0  0  0
    0.7232   -3.8775    0.0842 H   0  0  0  0  0  0  0  0  0  0  0  0
    5.3630    0.4541    0.5999 H   0  0  0  0  0  0  0  0  0  0  0  0
    3.8972    0.4741   -2.6648 H   0  0  0  0  0  0  0  0  0  0  0  0
  1 18  1  0  0  0  0
  1 35  1  0  0  0  0
  2  3  1  0  0  0  0
  2  7  1  0  0  0  0
  2  8  1  0  0  0  0
  3 10  2  0  0  0  0
  4  8  2  0  0  0  0
  4 17  1  0  0  0  0
  5 14  1  0  0  0  0
  5 17  2  0  0  0  0
  6 14  1  0  0  0  0
  6 32  1  0  0  0  0
  6 33  1  0  0  0  0
  7 11  1  0  0  0  0
  7 12  1  0  0  0  0
  7 21  1  0  0  0  0
  8  9  1  0  0  0  0
  9 10  1  0  0  0  0
  9 14  2  0  0  0  0
 10 13  1  0  0  0  0
 11 22  1  0  0  0  0
 11 23  1  0  0  0  0
 11 24  1  0  0  0  0
 12 25  1  0  0  0  0
 12 26  1  0  0  0  0
 12 27  1  0  0  0  0
 13 15  2  0  0  0  0
 13 16  1  0  0  0  0
 15 18  1  0  0  0  0
 15 28  1  0  0  0  0
 16 19  2  0  0  0  0
 16 29  1  0  0  0  0
 17 30  1  0  0  0  0
 18 20  2  0  0  0  0
 19 20  1  0  0  0  0
 19 31  1  0  0  0  0
 20 34  1  0  0  0  0
M  END
> <PUBCHEM_COMPOUND_CID>
24905143

> <PUBCHEM_CONFORMER_RMSD>
0.6

> <PUBCHEM_CONFORMER_DIVERSEORDER>
2
3
6
5
4
1

> <PUBCHEM_MMFF94_PARTIAL_CHARGES>
25
1 -0.53
10 0.23
13 0.05
14 0.41
15 -0.15
16 -0.15
17 0.47
18 0.08
19 -0.15
2 0.31
20 -0.15
28 0.15
29 0.15
3 -0.71
30 0.15
31 0.15
32 0.4
33 0.4
34 0.15
35 0.45
4 -0.57
5 -0.62
6 -0.9
7 0.26
8 0.11

> <PUBCHEM_EFFECTIVE_ROTOR_COUNT>
2

> <PUBCHEM_PHARMACOPHORE_FEATURES>
10
1 1 donor
1 3 acceptor
1 6 cation
1 6 donor
3 2 4 8 cation
3 4 5 17 cation
3 7 11 12 hydrophobe
5 2 3 8 9 10 rings
6 13 15 16 18 19 20 rings
6 4 5 8 9 14 17 rings

> <PUBCHEM_HEAVY_ATOM_COUNT>
20

> <PUBCHEM_ATOM_DEF_STEREO_COUNT>
0

> <PUBCHEM_ATOM_UDEF_STEREO_COUNT>
0

> <PUBCHEM_BOND_DEF_STEREO_COUNT>
0

> <PUBCHEM_BOND_UDEF_STEREO_COUNT>
0

> <PUBCHEM_ISOTOPIC_ATOM_COUNT>
0

> <PUBCHEM_COMPONENT_COUNT>
1

> <PUBCHEM_CACTVS_TAUTO_COUNT>
15

> <PUBCHEM_CONFORMER_ID>
017C05B700000002

> <PUBCHEM_MMFF94_ENERGY>
47.0232

> <PUBCHEM_FEATURE_SELFOVERLAP>
51.025

> <PUBCHEM_SHAPE_FINGERPRINT>
10165383 225 18196390129579162649
10319926 262 18198596974845296432
11582403 64 16479874400823567328
11725454 13 16841302581787938296
12173636 292 18409441466710971044
12236239 1 17676759964019285242
12500047 106 18340197514813015840
12553582 1 18120373408923142491
12788726 201 18262521531925858299
13140716 1 18122624122489546515
13878862 14 17041196836882774505
14022347 108 17974283523686086771
14178342 30 18337658772534475258
15042514 8 18265334087355521299
15842332 3 17822002125738481208
16752209 62 18336816580591931787
16945 1 18338792416125102827
1741750 31 18341610361131632417
18186145 218 17917434198584744720
19049666 15 17989491801254694690
20510252 161 18271522104103993033
20693207 138 17774178919165225812
20871999 31 18340781424270307844
21524375 3 18188768332265649241
22112679 90 17967806167859168548
22907989 373 18261100915890188573
2334 1 18339074879102560043
23366157 5 17898005724784803995
23402539 116 18270104842685882623
23419403 2 16985158453002989625
23526113 38 17489577970366346944
23557571 272 18200313346539903320
23559900 14 18201723904315352638
23598291 2 17676482844139373684
2748010 2 18266465291625523975
283562 15 18339918320474735883
3091708 16 9416173063407191619
350125 39 18267026046787463971
458136 41 17980493269365516745
559249 180 18335981961890060930
57527295 17 17202768068669456236
6049 1 17917714664281155088
633830 44 17774153487978843232
7615 1 17822280323586910724
77492 1 17676480675091244480
81228 2 18338515373564970513
84936 182 17624402091872438289
88987 49 18409722976548378240
90525 40 18260267455810946526
9862522 239 17896871076150671581

> <PUBCHEM_SHAPE_MULTIPOLES>
380.82
7.26
3.23
1.26
5.64
1.26
0.02
-3.18
0.78
-4.67
0.13
1.15
-0.68
-0.15

> <PUBCHEM_SHAPE_SELFOVERLAP>
836.615

> <PUBCHEM_SHAPE_VOLUME>
205.1

> <PUBCHEM_COORDINATE_TYPE>
2
5
10

$$$$
