49830335
  -OEChem-10062121553D

 49 52  0     0  0  0  0  0  0999 V2000
   -3.0135    4.8923   -0.7716 Cl  0  0  0  0  0  0  0  0  0  0  0  0
    5.9420   -1.3049   -0.6843 S   0  0  0  0  0  0  0  0  0  0  0  0
    5.6708   -0.9258   -2.0572 O   0  0  0  0  0  0  0  0  0  0  0  0
    6.1283   -2.6969   -0.3221 O   0  0  0  0  0  0  0  0  0  0  0  0
    4.7634   -0.6448    0.3479 N   0  0  0  0  0  0  0  0  0  0  0  0
    0.7640    1.8849    0.7500 N   0  0  0  0  0  0  0  0  0  0  0  0
   -1.3255    0.9178    0.2745 N   0  0  0  0  0  0  0  0  0  0  0  0
   -3.1428    2.3242   -0.4514 N   0  0  0  0  0  0  0  0  0  0  0  0
   -5.2975   -1.1835   -0.5871 N   0  0  0  0  0  0  0  0  0  0  0  0
   -4.5375   -3.4058   -0.0510 N   0  0  0  0  0  0  0  0  0  0  0  0
    4.1351    0.6513   -0.0200 C   0  0  0  0  0  0  0  0  0  0  0  0
    1.3653    0.6137    1.1026 C   0  0  0  0  0  0  0  0  0  0  0  0
    3.7774    1.4344    1.2431 C   0  0  0  0  0  0  0  0  0  0  0  0
    2.9221    0.4003   -0.9155 C   0  0  0  0  0  0  0  0  0  0  0  0
    2.5839    0.8440    1.9979 C   0  0  0  0  0  0  0  0  0  0  0  0
    1.7205   -0.1744   -0.1602 C   0  0  0  0  0  0  0  0  0  0  0  0
   -0.5506    2.0199    0.3471 C   0  0  0  0  0  0  0  0  0  0  0  0
    7.3869   -0.4186   -0.1471 C   0  0  0  0  0  0  0  0  0  0  0  0
   -0.9938    3.2904    0.0408 C   0  0  0  0  0  0  0  0  0  0  0  0
   -2.5921    1.1393   -0.1256 C   0  0  0  0  0  0  0  0  0  0  0  0
   -2.3121    3.3831   -0.3567 C   0  0  0  0  0  0  0  0  0  0  0  0
   -3.4448   -0.0086   -0.2146 C   0  0  0  0  0  0  0  0  0  0  0  0
   -3.1683   -1.3743    0.0596 C   0  0  0  0  0  0  0  0  0  0  0  0
   -4.7621    0.0781   -0.6107 C   0  0  0  0  0  0  0  0  0  0  0  0
   -4.3435   -2.0798   -0.1825 C   0  0  0  0  0  0  0  0  0  0  0  0
   -2.0506   -2.1084    0.4885 C   0  0  0  0  0  0  0  0  0  0  0  0
   -2.1962   -3.4860    0.6412 C   0  0  0  0  0  0  0  0  0  0  0  0
   -3.4289   -4.0619    0.3644 C   0  0  0  0  0  0  0  0  0  0  0  0
    4.8705    1.2439   -0.5777 H   0  0  0  0  0  0  0  0  0  0  0  0
    0.6460    0.0314    1.6930 H   0  0  0  0  0  0  0  0  0  0  0  0
    3.5504    2.4710    0.9653 H   0  0  0  0  0  0  0  0  0  0  0  0
    4.6412    1.4798    1.9180 H   0  0  0  0  0  0  0  0  0  0  0  0
    3.1709   -0.2700   -1.7451 H   0  0  0  0  0  0  0  0  0  0  0  0
    2.6227    1.3533   -1.3705 H   0  0  0  0  0  0  0  0  0  0  0  0
    2.3233    1.5070    2.8323 H   0  0  0  0  0  0  0  0  0  0  0  0
    2.8820   -0.1134    2.4434 H   0  0  0  0  0  0  0  0  0  0  0  0
    1.9563   -1.2064    0.1307 H   0  0  0  0  0  0  0  0  0  0  0  0
    0.8674   -0.2394   -0.8451 H   0  0  0  0  0  0  0  0  0  0  0  0
    4.7996   -0.8737    1.3487 H   0  0  0  0  0  0  0  0  0  0  0  0
    1.3902    2.6482    0.5153 H   0  0  0  0  0  0  0  0  0  0  0  0
    7.5440   -0.6085    0.9164 H   0  0  0  0  0  0  0  0  0  0  0  0
    7.2487    0.6465   -0.3392 H   0  0  0  0  0  0  0  0  0  0  0  0
    8.2406   -0.7889   -0.7189 H   0  0  0  0  0  0  0  0  0  0  0  0
   -0.3528    4.1618    0.1073 H   0  0  0  0  0  0  0  0  0  0  0  0
   -5.3796    0.9150   -0.9087 H   0  0  0  0  0  0  0  0  0  0  0  0
   -6.2498   -1.4178   -0.8309 H   0  0  0  0  0  0  0  0  0  0  0  0
   -1.0949   -1.6424    0.7002 H   0  0  0  0  0  0  0  0  0  0  0  0
   -1.3616   -4.0958    0.9702 H   0  0  0  0  0  0  0  0  0  0  0  0
   -3.5602   -5.1348    0.4782 H   0  0  0  0  0  0  0  0  0  0  0  0
  1 21  1  0  0  0  0
  2  3  2  0  0  0  0
  2  4  2  0  0  0  0
  2  5  1  0  0  0  0
  2 18  1  0  0  0  0
  5 11  1  0  0  0  0
  5 39  1  0  0  0  0
  6 12  1  0  0  0  0
  6 17  1  0  0  0  0
  6 40  1  0  0  0  0
  7 17  1  0  0  0  0
  7 20  2  0  0  0  0
  8 20  1  0  0  0  0
  8 21  2  0  0  0  0
  9 24  1  0  0  0  0
  9 25  1  0  0  0  0
  9 46  1  0  0  0  0
 10 25  1  0  0  0  0
 10 28  2  0  0  0  0
 11 13  1  0  0  0  0
 11 14  1  0  0  0  0
 11 29  1  0  0  0  0
 12 15  1  0  0  0  0
 12 16  1  0  0  0  0
 12 30  1  0  0  0  0
 13 15  1  0  0  0  0
 13 31  1  0  0  0  0
 13 32  1  0  0  0  0
 14 16  1  0  0  0  0
 14 33  1  0  0  0  0
 14 34  1  0  0  0  0
 15 35  1  0  0  0  0
 15 36  1  0  0  0  0
 16 37  1  0  0  0  0
 16 38  1  0  0  0  0
 17 19  2  0  0  0  0
 18 41  1  0  0  0  0
 18 42  1  0  0  0  0
 18 43  1  0  0  0  0
 19 21  1  0  0  0  0
 19 44  1  0  0  0  0
 20 22  1  0  0  0  0
 22 23  1  0  0  0  0
 22 24  2  0  0  0  0
 23 25  2  0  0  0  0
 23 26  1  0  0  0  0
 24 45  1  0  0  0  0
 26 27  2  0  0  0  0
 26 47  1  0  0  0  0
 27 28  1  0  0  0  0
 27 48  1  0  0  0  0
 28 49  1  0  0  0  0
M  END
> <PUBCHEM_COMPOUND_CID>
49830335

> <PUBCHEM_CONFORMER_RMSD>
1

> <PUBCHEM_CONFORMER_DIVERSEORDER>
1
111
51
21
70
6
57
43
87
84
64
110
26
62
24
126
132
17
11
40
103
83
59
123
114
47
112
116
38
128
8
115
75
35
18
96
106
98
7
27
125
95
131
60
33
99
73
122
56
31
36
124
76
20
91
78
44
54
49
32
129
89
58
53
4
34
130
22
15
71
63
46
127
37
9
107
90
97
105
45
118
19
80
77
102
100
55
121
67
48
82
104
109
101
92
72
86
29
41
74
93
113
5
14
94
39
16
120
68
66
13
117
50
25
108
65
69
61
30
28
85
52
3
42
81
88
79
10
23
2
12
119

> <PUBCHEM_MMFF94_PARTIAL_CHARGES>
31
1 -0.18
10 -0.57
11 0.36
12 0.37
17 0.41
18 0.11
19 -0.15
2 1.33
20 0.67
21 0.49
22 -0.05
24 -0.3
25 0.11
26 -0.15
27 -0.15
28 0.16
3 -0.65
39 0.42
4 -0.65
40 0.4
44 0.15
45 0.15
46 0.27
47 0.15
48 0.15
49 0.15
5 -0.91
6 -0.87
7 -0.62
8 -0.62
9 0.03

> <PUBCHEM_EFFECTIVE_ROTOR_COUNT>
6.2

> <PUBCHEM_PHARMACOPHORE_FEATURES>
14
1 10 acceptor
1 3 acceptor
1 4 acceptor
1 5 donor
1 6 cation
1 6 donor
1 8 acceptor
1 9 cation
1 9 donor
3 7 8 20 cation
5 9 22 23 24 25 rings
6 10 23 25 26 27 28 rings
6 11 12 13 14 15 16 rings
6 7 8 17 19 20 21 rings

> <PUBCHEM_HEAVY_ATOM_COUNT>
28

> <PUBCHEM_ATOM_DEF_STEREO_COUNT>
0

> <PUBCHEM_ATOM_UDEF_STEREO_COUNT>
0

> <PUBCHEM_BOND_DEF_STEREO_COUNT>
0

> <PUBCHEM_BOND_UDEF_STEREO_COUNT>
0

> <PUBCHEM_ISOTOPIC_ATOM_COUNT>
0

> <PUBCHEM_COMPONENT_COUNT>
1

> <PUBCHEM_CACTVS_TAUTO_COUNT>
9

> <PUBCHEM_CONFORMER_ID>
02F859BF00000001

> <PUBCHEM_MMFF94_ENERGY>
55.2396

> <PUBCHEM_FEATURE_SELFOVERLAP>
71.177

> <PUBCHEM_SHAPE_FINGERPRINT>
107951 10 18124874560703906933
10940486 97 18260836947243056404
11056379 131 18409162178152474321
11186622 123 18334850607074325962
117089 54 18193565690244945819
11796584 16 18196371417134011034
12553582 1 18263070167391254249
12788726 201 18187917379227911953
13402501 40 18272934929206411006
1361 4 18412546475702456838
13782708 43 17918274276918412950
138480 1 16249117396184783137
14251751 18 18413393133793549278
14251757 5 18334294283932960891
14444916 359 18124887763686562457
14461889 52 18272359881553632306
14866123 147 18341337713114380105
14910302 57 18340759407919620000
15230672 131 17975977562373434474
15250474 111 18188199893703057978
15361156 5 18202559600902112501
15439362 3 17110154924694900397
15927050 60 17981317890649943741
17627616 140 18047474426560699866
17909252 39 18123193660812484856
19958102 18 18262512568444961478
20505436 4 17533502218355862617
20771845 38 17060052584550077943
21033650 10 17967248684950761440
21307412 95 18340479050251955423
21623969 137 17346882243834585326
22393880 68 18338792304725050048
23379529 103 18339363092402897322
23559900 14 18411974788956880096
3004659 81 18041554840528693998
4058900 60 17620476805175492513
4280585 95 18335417997754431364
4435113 14 17845670135824041806
508706 21 18341335500336135438
57307002 85 18201452354370279790
58902169 19 17604161324825428502
59755656 215 18410289190281734534
59755656 520 18056203470974868929
613672 6 18121758785184353963
6823239 73 18342449379061682736
7970288 3 18267303325244049023
9709674 26 17542216205342334203
9862886 166 18412546509713502694

> <PUBCHEM_SHAPE_MULTIPOLES>
540.32
14.63
5.26
1.15
23.82
1.44
0.11
-10.09
-4.17
-8.81
-0.32
1.39
0.15
1.99

> <PUBCHEM_SHAPE_SELFOVERLAP>
1148.298

> <PUBCHEM_SHAPE_VOLUME>
305.4

> <PUBCHEM_COORDINATE_TYPE>
2
5
10

$$$$
