71568837
  -OEChem-10062121573D

 41 44  0     1  0  0  0  0  0999 V2000
   -4.1601    0.5249   -0.6154 S   0  0  0  0  0  0  0  0  0  0  0  0
   -3.9287    0.5863   -2.0449 O   0  0  0  0  0  0  0  0  0  0  0  0
   -5.4902    0.5672   -0.0469 O   0  0  0  0  0  0  0  0  0  0  0  0
   -3.0798    1.6239    0.2072 N   0  0  2  0  0  0  0  0  0  0  0  0
   -2.0655   -2.4779    0.3525 N   0  0  0  0  0  0  0  0  0  0  0  0
   -3.2107   -3.1869    0.2379 N   0  0  0  0  0  0  0  0  0  0  0  0
   -1.2168   -0.0799    0.1165 C   0  0  0  0  0  0  0  0  0  0  0  0
   -1.6567    1.2706    0.0665 C   0  0  0  0  0  0  0  0  0  0  0  0
   -2.2162   -1.1429    0.1011 C   0  0  0  0  0  0  0  0  0  0  0  0
   -3.5469   -1.0040   -0.2002 C   0  0  0  0  0  0  0  0  0  0  0  0
    0.1550   -0.3543    0.1346 C   0  0  0  0  0  0  0  0  0  0  0  0
    1.0794    0.6920    0.1200 C   0  0  0  0  0  0  0  0  0  0  0  0
   -0.7185    2.3084    0.0823 C   0  0  0  0  0  0  0  0  0  0  0  0
   -3.4595    1.9512    1.6159 C   0  0  0  0  0  0  0  0  0  0  0  0
    0.6450    2.0170    0.0946 C   0  0  0  0  0  0  0  0  0  0  0  0
   -4.1205   -2.2684   -0.1094 C   0  0  0  0  0  0  0  0  0  0  0  0
    2.4971    0.4009    0.1267 C   0  0  0  0  0  0  0  0  0  0  0  0
    2.9695   -0.7522    0.7534 C   0  0  0  0  0  0  0  0  0  0  0  0
    3.3913    1.2738   -0.4932 C   0  0  0  0  0  0  0  0  0  0  0  0
    5.2299   -0.1598    0.1401 C   0  0  0  0  0  0  0  0  0  0  0  0
    4.3358   -1.0327    0.7600 C   0  0  0  0  0  0  0  0  0  0  0  0
    4.7577    0.9936   -0.4866 C   0  0  0  0  0  0  0  0  0  0  0  0
    6.6906   -0.4596    0.1469 C   0  0  0  0  0  0  0  0  0  0  0  0
    7.1187   -1.2911   -1.0598 C   0  0  0  0  0  0  0  0  0  0  0  0
    0.4775   -1.3923    0.1189 H   0  0  0  0  0  0  0  0  0  0  0  0
   -1.0422    3.3460    0.0949 H   0  0  0  0  0  0  0  0  0  0  0  0
   -4.4720    2.3647    1.6393 H   0  0  0  0  0  0  0  0  0  0  0  0
   -2.7918    2.7158    2.0257 H   0  0  0  0  0  0  0  0  0  0  0  0
   -3.4114    1.0616    2.2511 H   0  0  0  0  0  0  0  0  0  0  0  0
    1.3328    2.8579    0.1253 H   0  0  0  0  0  0  0  0  0  0  0  0
   -1.2221   -2.9755    0.6097 H   0  0  0  0  0  0  0  0  0  0  0  0
   -5.1419   -2.5772   -0.2773 H   0  0  0  0  0  0  0  0  0  0  0  0
    2.3158   -1.4447    1.2766 H   0  0  0  0  0  0  0  0  0  0  0  0
    3.0675    2.1669   -1.0206 H   0  0  0  0  0  0  0  0  0  0  0  0
    4.6923   -1.9316    1.2561 H   0  0  0  0  0  0  0  0  0  0  0  0
    5.4437    1.6768   -0.9804 H   0  0  0  0  0  0  0  0  0  0  0  0
    7.2646    0.4753    0.1665 H   0  0  0  0  0  0  0  0  0  0  0  0
    6.9595   -0.9908    1.0685 H   0  0  0  0  0  0  0  0  0  0  0  0
    6.5954   -2.2529   -1.0837 H   0  0  0  0  0  0  0  0  0  0  0  0
    6.9044   -0.7675   -1.9976 H   0  0  0  0  0  0  0  0  0  0  0  0
    8.1943   -1.4898   -1.0190 H   0  0  0  0  0  0  0  0  0  0  0  0
  1  2  2  0  0  0  0
  1  3  2  0  0  0  0
  1  4  1  0  0  0  0
  1 10  1  0  0  0  0
  4  8  1  0  0  0  0
  4 14  1  0  0  0  0
  5  6  1  0  0  0  0
  5  9  1  0  0  0  0
  5 31  1  0  0  0  0
  6 16  2  0  0  0  0
  7  8  2  0  0  0  0
  7  9  1  0  0  0  0
  7 11  1  0  0  0  0
  8 13  1  0  0  0  0
  9 10  2  0  0  0  0
 10 16  1  0  0  0  0
 11 12  2  0  0  0  0
 11 25  1  0  0  0  0
 12 15  1  0  0  0  0
 12 17  1  0  0  0  0
 13 15  2  0  0  0  0
 13 26  1  0  0  0  0
 14 27  1  0  0  0  0
 14 28  1  0  0  0  0
 14 29  1  0  0  0  0
 15 30  1  0  0  0  0
 16 32  1  0  0  0  0
 17 18  2  0  0  0  0
 17 19  1  0  0  0  0
 18 21  1  0  0  0  0
 18 33  1  0  0  0  0
 19 22  2  0  0  0  0
 19 34  1  0  0  0  0
 20 21  2  0  0  0  0
 20 22  1  0  0  0  0
 20 23  1  0  0  0  0
 21 35  1  0  0  0  0
 22 36  1  0  0  0  0
 23 24  1  0  0  0  0
 23 37  1  0  0  0  0
 23 38  1  0  0  0  0
 24 39  1  0  0  0  0
 24 40  1  0  0  0  0
 24 41  1  0  0  0  0
M  END
> <PUBCHEM_COMPOUND_CID>
71568837

> <PUBCHEM_CONFORMER_RMSD>
0.6

> <PUBCHEM_CONFORMER_DIVERSEORDER>
4
2
5
7
6
8
1
3

> <PUBCHEM_MMFF94_PARTIAL_CHARGES>
30
1 1.5
10 -0.06
11 -0.15
13 -0.15
14 0.36
15 -0.15
16 0.14
18 -0.15
19 -0.15
2 -0.65
20 -0.14
21 -0.15
22 -0.15
23 0.14
25 0.15
26 0.15
3 -0.65
30 0.15
31 0.27
32 0.15
33 0.15
34 0.15
35 0.15
36 0.15
4 -0.69
5 0.3
6 -0.71
7 0.05
8 0.2
9 -0.2

> <PUBCHEM_EFFECTIVE_ROTOR_COUNT>
2.2

> <PUBCHEM_PHARMACOPHORE_FEATURES>
9
1 2 acceptor
1 24 hydrophobe
1 3 acceptor
1 5 donor
1 6 acceptor
5 5 6 9 10 16 rings
6 1 4 7 8 9 10 rings
6 17 18 19 20 21 22 rings
6 7 8 11 12 13 15 rings

> <PUBCHEM_HEAVY_ATOM_COUNT>
24

> <PUBCHEM_ATOM_DEF_STEREO_COUNT>
0

> <PUBCHEM_ATOM_UDEF_STEREO_COUNT>
0

> <PUBCHEM_BOND_DEF_STEREO_COUNT>
0

> <PUBCHEM_BOND_UDEF_STEREO_COUNT>
0

> <PUBCHEM_ISOTOPIC_ATOM_COUNT>
0

> <PUBCHEM_COMPONENT_COUNT>
1

> <PUBCHEM_CACTVS_TAUTO_COUNT>
2

> <PUBCHEM_CONFORMER_ID>
04440DC500000004

> <PUBCHEM_MMFF94_ENERGY>
75.3345

> <PUBCHEM_FEATURE_SELFOVERLAP>
45.772

> <PUBCHEM_SHAPE_FINGERPRINT>
10087517 78 9367339315369592890
10165383 225 18188763952290759261
10291535 26 14548465665744125579
10411042 1 18194964274089547155
10616163 171 18411138043470750642
10622 236 16693846261639662071
10693767 8 17480564380739541735
10906281 52 18200607920982029397
11315181 36 18413390947407217448
11524674 6 17132111325613013158
11545043 162 17846779607485887866
11796584 16 18411418410704452102
12107183 9 17831856846484044210
12236239 1 18113900477033469012
12555020 224 18409438194451864935
12616971 3 18041293109954804876
12788726 201 18199459974659936265
13140716 1 18342460386868228945
13167823 11 18408885170210231178
13288520 33 18413108355164009685
13583140 156 13973966489002084181
13782708 43 17346881139975431318
14790565 3 18193839237281441361
14931854 50 18188477056348071359
15183329 4 18335986381368989622
15196674 1 18337109072460274632
15250474 111 18262227812694076490
15537594 2 17968098590717910834
15788980 27 17822010917336290092
15880784 105 16415183624653656758
17349148 13 18343861117305311325
17492 89 18121780805291932299
17844677 252 18342746255891551000
17857418 61 18335134289747875378
1813 80 14908189668395094632
18681886 176 18410007776393986272
18927931 339 18343588442573925255
19489759 90 17560799905244099785
200 152 18334853939804695704
20775438 99 16401358580912766471
21033648 29 16773501210161766514
21236236 1 18342740714792746017
21267235 1 18408891754004744963
21709351 56 17821728351675094676
221490 88 18118686753621926624
22393880 68 18187637029500730254
23402539 116 18413665820480942076
23466295 7 17824555286270312171
23557571 272 18059296466092715336
23559900 14 18340197592133405664
25122255 55 18130797741759760318
2916195 48 7853571293187815326
29717793 49 18343303657031991228
3004659 81 18187361052224544318
335352 9 18410290316243109061
3545911 37 18335419054258032446
4073 2 18261678160122524546
4214541 1 18408321107332662094
5104073 3 18343580759668840952
531348 171 17532077311615376588
559249 180 18408038507048418986
59755656 215 18339925918461975102
59755656 520 18410013191915379185
67856867 119 18189052157127924228
70251023 43 17549527957503995039
7226269 152 17917149399562251961
7495541 125 17703785951593818200
7970288 3 18197776820043085190
9709674 26 18271811159898447486

> <PUBCHEM_SHAPE_MULTIPOLES>
471.08
14.33
2.54
1
19.41
0.93
0.14
4.5
2.33
-2.86
-0.33
-0.42
-0.19
-0.22

> <PUBCHEM_SHAPE_SELFOVERLAP>
1033.407

> <PUBCHEM_SHAPE_VOLUME>
256.9

> <PUBCHEM_COORDINATE_TYPE>
2
5
10

$$$$
