9981346
  -OEChem-10052115143D

 53 60  0     1  0  0  0  0  0999 V2000
    1.4574   -1.6394   -1.2715 O   0  0  0  0  0  0  0  0  0  0  0  0
    3.3096   -0.5918    1.6349 O   0  0  0  0  0  0  0  0  0  0  0  0
    3.5847   -3.2315   -0.7078 O   0  0  0  0  0  0  0  0  0  0  0  0
    5.0411   -2.3906    0.8309 O   0  0  0  0  0  0  0  0  0  0  0  0
   -5.1050    1.2288    0.1001 O   0  0  0  0  0  0  0  0  0  0  0  0
    1.4806    0.4957   -0.2997 N   0  0  0  0  0  0  0  0  0  0  0  0
   -0.5012   -1.7241   -0.1246 N   0  0  0  0  0  0  0  0  0  0  0  0
   -3.9039    3.2387    0.1212 N   0  0  0  0  0  0  0  0  0  0  0  0
    2.3098   -0.6686   -0.6390 C   0  0  1  0  0  0  0  0  0  0  0  0
    2.8294   -1.4214    0.5992 C   0  0  2  0  0  0  0  0  0  0  0  0
    0.7907   -2.3393   -0.2254 C   0  0  2  0  0  0  0  0  0  0  0  0
    1.6140   -2.2081    1.0532 C   0  0  0  0  0  0  0  0  0  0  0  0
    0.1127    0.6536   -0.1919 C   0  0  0  0  0  0  0  0  0  0  0  0
   -0.8406   -0.4044   -0.1353 C   0  0  0  0  0  0  0  0  0  0  0  0
   -0.4676    1.9718   -0.0857 C   0  0  0  0  0  0  0  0  0  0  0  0
   -2.2291   -0.0064   -0.0463 C   0  0  0  0  0  0  0  0  0  0  0  0
    3.3710   -0.3592   -1.7068 C   0  0  0  0  0  0  0  0  0  0  0  0
    1.9135    1.8200   -0.1074 C   0  0  0  0  0  0  0  0  0  0  0  0
   -1.7368   -2.3492   -0.0267 C   0  0  0  0  0  0  0  0  0  0  0  0
    0.7918    2.7045   -0.0410 C   0  0  0  0  0  0  0  0  0  0  0  0
   -1.8094    2.3422   -0.0226 C   0  0  0  0  0  0  0  0  0  0  0  0
   -2.7208    1.2951   -0.0148 C   0  0  0  0  0  0  0  0  0  0  0  0
   -2.7792   -1.3700    0.0087 C   0  0  0  0  0  0  0  0  0  0  0  0
    3.9500   -2.3790    0.2807 C   0  0  0  0  0  0  0  0  0  0  0  0
   -2.5167    3.6531    0.0729 C   0  0  0  0  0  0  0  0  0  0  0  0
    3.2178    2.3461    0.0124 C   0  0  0  0  0  0  0  0  0  0  0  0
   -4.0652    1.8575    0.0746 C   0  0  0  0  0  0  0  0  0  0  0  0
   -2.0284   -3.7263    0.0365 C   0  0  0  0  0  0  0  0  0  0  0  0
    1.0355    4.0956    0.0929 C   0  0  0  0  0  0  0  0  0  0  0  0
   -4.1110   -1.8473    0.1042 C   0  0  0  0  0  0  0  0  0  0  0  0
    3.4121    3.7226    0.1525 C   0  0  0  0  0  0  0  0  0  0  0  0
    2.3353    4.5909    0.1828 C   0  0  0  0  0  0  0  0  0  0  0  0
   -3.3562   -4.1428    0.1284 C   0  0  0  0  0  0  0  0  0  0  0  0
   -4.3858   -3.2169    0.1606 C   0  0  0  0  0  0  0  0  0  0  0  0
    0.6765   -3.3815   -0.5342 H   0  0  0  0  0  0  0  0  0  0  0  0
    1.0606   -1.7072    1.8572 H   0  0  0  0  0  0  0  0  0  0  0  0
    1.8721   -3.1993    1.4458 H   0  0  0  0  0  0  0  0  0  0  0  0
    3.6569   -1.2518   -2.2748 H   0  0  0  0  0  0  0  0  0  0  0  0
    2.9823    0.3445   -2.4532 H   0  0  0  0  0  0  0  0  0  0  0  0
    4.2849    0.0631   -1.2835 H   0  0  0  0  0  0  0  0  0  0  0  0
    2.5546   -0.1668    2.0749 H   0  0  0  0  0  0  0  0  0  0  0  0
   -2.2752    4.1916    0.9923 H   0  0  0  0  0  0  0  0  0  0  0  0
   -2.3612    4.2762   -0.8110 H   0  0  0  0  0  0  0  0  0  0  0  0
    4.0879    1.6993    0.0198 H   0  0  0  0  0  0  0  0  0  0  0  0
   -1.2366   -4.4692    0.0166 H   0  0  0  0  0  0  0  0  0  0  0  0
    0.2033    4.7935    0.1424 H   0  0  0  0  0  0  0  0  0  0  0  0
   -4.9477   -1.1584    0.1377 H   0  0  0  0  0  0  0  0  0  0  0  0
   -4.6808    3.8889    0.1856 H   0  0  0  0  0  0  0  0  0  0  0  0
    4.4225    4.1130    0.2418 H   0  0  0  0  0  0  0  0  0  0  0  0
    2.5001    5.6590    0.2916 H   0  0  0  0  0  0  0  0  0  0  0  0
   -3.5829   -5.2045    0.1762 H   0  0  0  0  0  0  0  0  0  0  0  0
    4.3018   -3.8621   -0.9316 H   0  0  0  0  0  0  0  0  0  0  0  0
   -5.4159   -3.5550    0.2334 H   0  0  0  0  0  0  0  0  0  0  0  0
  1  9  1  0  0  0  0
  1 11  1  0  0  0  0
  2 10  1  0  0  0  0
  2 41  1  0  0  0  0
  3 24  1  0  0  0  0
  3 52  1  0  0  0  0
  4 24  2  0  0  0  0
  5 27  2  0  0  0  0
  6  9  1  0  0  0  0
  6 13  1  0  0  0  0
  6 18  1  0  0  0  0
  7 11  1  0  0  0  0
  7 14  1  0  0  0  0
  7 19  1  0  0  0  0
  8 25  1  0  0  0  0
  8 27  1  0  0  0  0
  8 48  1  0  0  0  0
  9 10  1  0  0  0  0
  9 17  1  0  0  0  0
 10 12  1  0  0  0  0
 10 24  1  0  0  0  0
 11 12  1  0  0  0  0
 11 35  1  0  0  0  0
 12 36  1  0  0  0  0
 12 37  1  0  0  0  0
 13 14  2  0  0  0  0
 13 15  1  0  0  0  0
 14 16  1  0  0  0  0
 15 20  1  0  0  0  0
 15 21  2  0  0  0  0
 16 22  2  0  0  0  0
 16 23  1  0  0  0  0
 17 38  1  0  0  0  0
 17 39  1  0  0  0  0
 17 40  1  0  0  0  0
 18 20  1  0  0  0  0
 18 26  2  0  0  0  0
 19 23  1  0  0  0  0
 19 28  2  0  0  0  0
 20 29  2  0  0  0  0
 21 22  1  0  0  0  0
 21 25  1  0  0  0  0
 22 27  1  0  0  0  0
 23 30  2  0  0  0  0
 25 42  1  0  0  0  0
 25 43  1  0  0  0  0
 26 31  1  0  0  0  0
 26 44  1  0  0  0  0
 28 33  1  0  0  0  0
 28 45  1  0  0  0  0
 29 32  1  0  0  0  0
 29 46  1  0  0  0  0
 30 34  1  0  0  0  0
 30 47  1  0  0  0  0
 31 32  2  0  0  0  0
 31 49  1  0  0  0  0
 32 50  1  0  0  0  0
 33 34  2  0  0  0  0
 33 51  1  0  0  0  0
 34 53  1  0  0  0  0
M  END
> <PUBCHEM_COMPOUND_CID>
9981346

> <PUBCHEM_CONFORMER_RMSD>
0.8

> <PUBCHEM_CONFORMER_DIVERSEORDER>
1

> <PUBCHEM_MMFF94_PARTIAL_CHARGES>
41
1 -0.56
10 0.34
11 0.54
13 -0.05
14 -0.05
15 -0.01
16 -0.01
18 -0.15
19 -0.15
2 -0.68
21 -0.14
22 0.09
24 0.66
25 0.44
26 -0.15
27 0.54
28 -0.15
29 -0.15
3 -0.65
30 -0.15
31 -0.15
32 -0.15
33 -0.15
34 -0.15
4 -0.57
41 0.4
44 0.15
45 0.15
46 0.15
47 0.15
48 0.37
49 0.15
5 -0.57
50 0.15
51 0.15
52 0.5
53 0.15
6 -0.04
7 -0.04
8 -0.73
9 0.54

> <PUBCHEM_EFFECTIVE_ROTOR_COUNT>
2

> <PUBCHEM_PHARMACOPHORE_FEATURES>
18
1 1 acceptor
1 2 acceptor
1 2 donor
1 3 acceptor
1 4 acceptor
1 5 acceptor
1 6 cation
1 7 cation
1 8 donor
3 3 4 24 anion
5 1 9 10 11 12 rings
5 6 13 15 18 20 rings
5 7 14 16 19 23 rings
5 8 21 22 25 27 rings
6 13 14 15 16 21 22 rings
6 18 20 26 29 31 32 rings
6 19 23 28 30 33 34 rings
7 1 6 7 9 11 13 14 rings

> <PUBCHEM_HEAVY_ATOM_COUNT>
34

> <PUBCHEM_ATOM_DEF_STEREO_COUNT>
3

> <PUBCHEM_ATOM_UDEF_STEREO_COUNT>
0

> <PUBCHEM_BOND_DEF_STEREO_COUNT>
0

> <PUBCHEM_BOND_UDEF_STEREO_COUNT>
0

> <PUBCHEM_ISOTOPIC_ATOM_COUNT>
0

> <PUBCHEM_COMPONENT_COUNT>
1

> <PUBCHEM_CACTVS_TAUTO_COUNT>
2

> <PUBCHEM_CONFORMER_ID>
00984DA200000001

> <PUBCHEM_MMFF94_ENERGY>
141.471

> <PUBCHEM_FEATURE_SELFOVERLAP>
93.232

> <PUBCHEM_SHAPE_FINGERPRINT>
10006869 2 18196931283005748799
10675989 125 18263343911569744031
10967382 1 18050570642724345669
1100329 8 18338234856234227793
11513181 2 18130506439270220294
11534866 41 16884411392214904723
11578080 2 17460004435973183470
12553582 1 18052264998664488204
12788726 201 17615408494942796720
13140716 1 18411134727565743329
138480 1 18338234980893962682
13911987 19 17757827827681178805
140371 6 18127980697963003036
14178342 30 18338785840435714568
14223421 5 18267589185429133533
14725015 67 17836643402789285592
14790565 3 17906744600300147716
14955137 171 18049459058006557539
15320467 1 18410575110443438739
15324884 4 17846501375046449310
15484559 13 17908414759269134253
15513586 35 16535022691643029696
15815584 197 17616272698012489390
15927050 60 18339928215742003037
15950262 2 15480675552329077961
16112460 7 18270696294216405809
16728300 4 17467024904038268624
17492 89 18337669823201082163
19319366 153 17605847919021324962
19591789 44 17977950086085328447
19930381 70 17905606953873456755
20028762 73 18200589186767051999
20600515 1 18127691526647568968
20642791 35 18196104454102986927
20905425 154 18269282433166999836
21033648 29 17841972426178823513
21133410 32 16374994310850671210
21421861 104 18263645241504706307
21796203 349 17833591969979629256
22113638 7 18265893545157067877
22393880 68 18339654441757406764
23558518 356 18262242226276857945
23559900 14 18413669110716079980
283562 15 17764315328864498969
3178227 256 18193854643655998361
350125 39 18122909986633079188
3882209 13 17979594066085277503
392239 28 17977105987113677929
469060 322 17977677733730379793
484989 97 18335135376801979743
5265222 85 16826734886450808206
5309563 4 17618224348711345595
59755656 215 18121499317408980725
70251023 43 18124620783644486878
9709674 26 18412826906363200461

> <PUBCHEM_SHAPE_MULTIPOLES>
655.41
8.43
6.54
0.88
3.56
2.24
0.06
-2.03
-0.64
-1.07
-0.52
-0.73
-0.47
-0.07

> <PUBCHEM_SHAPE_SELFOVERLAP>
1543.368

> <PUBCHEM_SHAPE_VOLUME>
327.2

> <PUBCHEM_COORDINATE_TYPE>
2
5
10

$$$$
