5283727
  -OEChem-10062122023D

 73 75  0     1  0  0  0  0  0999 V2000
    0.9549    0.9556    2.3751 O   0  0  0  0  0  0  0  0  0  0  0  0
    7.0368   -1.3769   -2.3932 O   0  0  0  0  0  0  0  0  0  0  0  0
   -1.4499    1.5995   -0.3138 C   0  0  1  0  0  0  0  0  0  0  0  0
   -0.2766    0.5928   -0.3393 C   0  0  2  0  0  0  0  0  0  0  0  0
   -2.6070    0.6359   -0.6746 C   0  0  2  0  0  0  0  0  0  0  0  0
    1.0796    1.2503   -0.0578 C   0  0  1  0  0  0  0  0  0  0  0  0
   -0.4802   -0.1618   -1.6492 C   0  0  0  0  0  0  0  0  0  0  0  0
   -2.0113   -0.2467   -1.7975 C   0  0  0  0  0  0  0  0  0  0  0  0
   -1.5275    2.2043    1.0975 C   0  0  0  0  0  0  0  0  0  0  0  0
    1.0226    1.9332    1.3346 C   0  0  1  0  0  0  0  0  0  0  0  0
   -3.9313    1.2763   -1.0645 C   0  0  1  0  0  0  0  0  0  0  0  0
   -0.1943    2.8601    1.5043 C   0  0  0  0  0  0  0  0  0  0  0  0
   -1.3287    2.7372   -1.3591 C   0  0  0  0  0  0  0  0  0  0  0  0
    2.2216    0.2355   -0.1532 C   0  0  0  0  0  0  0  0  0  0  0  0
   -5.0263    0.2371   -1.3847 C   0  0  0  0  0  0  0  0  0  0  0  0
   -4.4221    2.1957    0.0611 C   0  0  0  0  0  0  0  0  0  0  0  0
    3.5620    0.8868    0.1724 C   0  0  0  0  0  0  0  0  0  0  0  0
   -5.3495   -0.7654   -0.2687 C   0  0  0  0  0  0  0  0  0  0  0  0
    4.6897   -0.1105    0.0961 C   0  0  0  0  0  0  0  0  0  0  0  0
   -6.3889   -1.8157   -0.6729 C   0  0  0  0  0  0  0  0  0  0  0  0
   -6.7651   -2.7779    0.4708 C   0  0  0  0  0  0  0  0  0  0  0  0
    5.0614   -0.8386    1.2175 C   0  0  0  0  0  0  0  0  0  0  0  0
    5.3427   -0.2823   -1.1168 C   0  0  0  0  0  0  0  0  0  0  0  0
   -5.5476   -3.6210    0.8594 C   0  0  0  0  0  0  0  0  0  0  0  0
   -7.2967   -2.0452    1.7037 C   0  0  0  0  0  0  0  0  0  0  0  0
    6.1070   -1.7572    1.1245 C   0  0  0  0  0  0  0  0  0  0  0  0
    6.3884   -1.2008   -1.2097 C   0  0  0  0  0  0  0  0  0  0  0  0
    4.3662   -0.6619    2.5273 C   0  0  0  0  0  0  0  0  0  0  0  0
    6.7705   -1.9382   -0.0890 C   0  0  0  0  0  0  0  0  0  0  0  0
   -0.4397   -0.1491    0.4603 H   0  0  0  0  0  0  0  0  0  0  0  0
   -2.7654   -0.0093    0.2004 H   0  0  0  0  0  0  0  0  0  0  0  0
    1.2700    2.0241   -0.8109 H   0  0  0  0  0  0  0  0  0  0  0  0
   -0.0429    0.3778   -2.4966 H   0  0  0  0  0  0  0  0  0  0  0  0
   -0.0293   -1.1591   -1.6226 H   0  0  0  0  0  0  0  0  0  0  0  0
   -2.3549   -1.2821   -1.6954 H   0  0  0  0  0  0  0  0  0  0  0  0
   -2.3022    0.0988   -2.7960 H   0  0  0  0  0  0  0  0  0  0  0  0
   -1.7779    1.4270    1.8305 H   0  0  0  0  0  0  0  0  0  0  0  0
   -2.2887    2.9794    1.1884 H   0  0  0  0  0  0  0  0  0  0  0  0
    1.9173    2.5388    1.5070 H   0  0  0  0  0  0  0  0  0  0  0  0
   -3.8105    1.8851   -1.9692 H   0  0  0  0  0  0  0  0  0  0  0  0
   -0.2764    3.1795    2.5508 H   0  0  0  0  0  0  0  0  0  0  0  0
   -0.0381    3.7693    0.9126 H   0  0  0  0  0  0  0  0  0  0  0  0
   -0.4026    3.3082   -1.2533 H   0  0  0  0  0  0  0  0  0  0  0  0
   -1.3484    2.3629   -2.3876 H   0  0  0  0  0  0  0  0  0  0  0  0
   -2.1439    3.4608   -1.2652 H   0  0  0  0  0  0  0  0  0  0  0  0
    2.0305   -0.6149    0.5120 H   0  0  0  0  0  0  0  0  0  0  0  0
    2.2600   -0.1779   -1.1692 H   0  0  0  0  0  0  0  0  0  0  0  0
   -5.9487    0.7641   -1.6627 H   0  0  0  0  0  0  0  0  0  0  0  0
   -4.7300   -0.3237   -2.2802 H   0  0  0  0  0  0  0  0  0  0  0  0
   -3.9381    3.1733    0.0252 H   0  0  0  0  0  0  0  0  0  0  0  0
   -5.4916    2.4088   -0.0584 H   0  0  0  0  0  0  0  0  0  0  0  0
   -4.2961    1.7504    1.0528 H   0  0  0  0  0  0  0  0  0  0  0  0
    3.7548    1.7042   -0.5359 H   0  0  0  0  0  0  0  0  0  0  0  0
    3.5754    1.3611    1.1560 H   0  0  0  0  0  0  0  0  0  0  0  0
    0.9989    1.4255    3.2252 H   0  0  0  0  0  0  0  0  0  0  0  0
   -5.7021   -0.2052    0.6022 H   0  0  0  0  0  0  0  0  0  0  0  0
   -4.4339   -1.2839    0.0252 H   0  0  0  0  0  0  0  0  0  0  0  0
   -7.2979   -1.3035   -1.0129 H   0  0  0  0  0  0  0  0  0  0  0  0
   -6.0161   -2.3902   -1.5300 H   0  0  0  0  0  0  0  0  0  0  0  0
   -7.5488   -3.4497    0.0991 H   0  0  0  0  0  0  0  0  0  0  0  0
    5.0478    0.2878   -1.9940 H   0  0  0  0  0  0  0  0  0  0  0  0
   -4.7696   -3.0305    1.3530 H   0  0  0  0  0  0  0  0  0  0  0  0
   -5.8451   -4.4109    1.5582 H   0  0  0  0  0  0  0  0  0  0  0  0
   -5.1084   -4.1069   -0.0182 H   0  0  0  0  0  0  0  0  0  0  0  0
   -8.1054   -1.3593    1.4310 H   0  0  0  0  0  0  0  0  0  0  0  0
   -7.7009   -2.7648    2.4243 H   0  0  0  0  0  0  0  0  0  0  0  0
   -6.5181   -1.4753    2.2203 H   0  0  0  0  0  0  0  0  0  0  0  0
    6.4181   -2.3394    1.9878 H   0  0  0  0  0  0  0  0  0  0  0  0
    4.5414    0.3420    2.9271 H   0  0  0  0  0  0  0  0  0  0  0  0
    3.2915   -0.8411    2.4358 H   0  0  0  0  0  0  0  0  0  0  0  0
    4.7373   -1.3716    3.2757 H   0  0  0  0  0  0  0  0  0  0  0  0
    7.5838   -2.6566   -0.1483 H   0  0  0  0  0  0  0  0  0  0  0  0
    7.7305   -2.0485   -2.2756 H   0  0  0  0  0  0  0  0  0  0  0  0
  1 10  1  0  0  0  0
  1 55  1  0  0  0  0
  2 27  1  0  0  0  0
  2 73  1  0  0  0  0
  3  4  1  0  0  0  0
  3  5  1  0  0  0  0
  3  9  1  0  0  0  0
  3 13  1  0  0  0  0
  4  6  1  0  0  0  0
  4  7  1  0  0  0  0
  4 30  1  0  0  0  0
  5  8  1  0  0  0  0
  5 11  1  0  0  0  0
  5 31  1  0  0  0  0
  6 10  1  0  0  0  0
  6 14  1  0  0  0  0
  6 32  1  0  0  0  0
  7  8  1  0  0  0  0
  7 33  1  0  0  0  0
  7 34  1  0  0  0  0
  8 35  1  0  0  0  0
  8 36  1  0  0  0  0
  9 12  1  0  0  0  0
  9 37  1  0  0  0  0
  9 38  1  0  0  0  0
 10 12  1  0  0  0  0
 10 39  1  0  0  0  0
 11 15  1  0  0  0  0
 11 16  1  0  0  0  0
 11 40  1  0  0  0  0
 12 41  1  0  0  0  0
 12 42  1  0  0  0  0
 13 43  1  0  0  0  0
 13 44  1  0  0  0  0
 13 45  1  0  0  0  0
 14 17  1  0  0  0  0
 14 46  1  0  0  0  0
 14 47  1  0  0  0  0
 15 18  1  0  0  0  0
 15 48  1  0  0  0  0
 15 49  1  0  0  0  0
 16 50  1  0  0  0  0
 16 51  1  0  0  0  0
 16 52  1  0  0  0  0
 17 19  1  0  0  0  0
 17 53  1  0  0  0  0
 17 54  1  0  0  0  0
 18 20  1  0  0  0  0
 18 56  1  0  0  0  0
 18 57  1  0  0  0  0
 19 22  2  0  0  0  0
 19 23  1  0  0  0  0
 20 21  1  0  0  0  0
 20 58  1  0  0  0  0
 20 59  1  0  0  0  0
 21 24  1  0  0  0  0
 21 25  1  0  0  0  0
 21 60  1  0  0  0  0
 22 26  1  0  0  0  0
 22 28  1  0  0  0  0
 23 27  2  0  0  0  0
 23 61  1  0  0  0  0
 24 62  1  0  0  0  0
 24 63  1  0  0  0  0
 24 64  1  0  0  0  0
 25 65  1  0  0  0  0
 25 66  1  0  0  0  0
 25 67  1  0  0  0  0
 26 29  2  0  0  0  0
 26 68  1  0  0  0  0
 27 29  1  0  0  0  0
 28 69  1  0  0  0  0
 28 70  1  0  0  0  0
 28 71  1  0  0  0  0
 29 72  1  0  0  0  0
M  END
> <PUBCHEM_COMPOUND_CID>
5283727

> <PUBCHEM_CONFORMER_RMSD>
1

> <PUBCHEM_CONFORMER_DIVERSEORDER>
3
10
16
20
7
15
18
17
21
9
6
8
14
19
1
12
4
13
5
11
2

> <PUBCHEM_MMFF94_PARTIAL_CHARGES>
16
1 -0.68
10 0.28
17 0.14
19 -0.14
2 -0.53
22 -0.14
23 -0.15
26 -0.15
27 0.08
28 0.14
29 -0.15
55 0.4
61 0.15
68 0.15
72 0.15
73 0.45

> <PUBCHEM_EFFECTIVE_ROTOR_COUNT>
9.4

> <PUBCHEM_PHARMACOPHORE_FEATURES>
9
1 1 acceptor
1 1 donor
1 16 hydrophobe
1 2 donor
3 21 24 25 hydrophobe
5 11 15 18 20 21 hydrophobe
5 3 4 5 7 8 rings
6 19 22 23 26 27 29 rings
6 3 4 6 9 10 12 rings

> <PUBCHEM_HEAVY_ATOM_COUNT>
29

> <PUBCHEM_ATOM_DEF_STEREO_COUNT>
6

> <PUBCHEM_ATOM_UDEF_STEREO_COUNT>
0

> <PUBCHEM_BOND_DEF_STEREO_COUNT>
0

> <PUBCHEM_BOND_UDEF_STEREO_COUNT>
0

> <PUBCHEM_ISOTOPIC_ATOM_COUNT>
0

> <PUBCHEM_COMPONENT_COUNT>
1

> <PUBCHEM_CACTVS_TAUTO_COUNT>
9

> <PUBCHEM_CONFORMER_ID>
00509F8F00000003

> <PUBCHEM_MMFF94_ENERGY>
87.983

> <PUBCHEM_FEATURE_SELFOVERLAP>
45.736

> <PUBCHEM_SHAPE_FINGERPRINT>
10554248 39 11963651323098422681
10692045 39 15267351733565097207
11475781 23 8358263652559202922
11646440 116 17418092122385638790
117089 54 17098635767004977587
12035758 1 17346878966014779447
12166972 35 18334296470187885900
12236239 1 18337950087561238388
12422481 6 15554459513209704705
13673619 4 18410009961973378597
13690498 29 17385715912264278103
13782708 43 18412256268365500311
14123256 34 18342459248443068615
14211702 104 18412264995423164838
14251764 30 18335416893926477323
14767858 380 14056993940963309759
14950920 106 17630893910019520259
14955137 171 18131627906955422377
15238133 3 11311768501852439194
15352257 5 18333449850424067427
15510800 12 18342457063054139447
15840311 113 12822753630334749181
16989378 47 17023177297217356215
17492 54 13984654880623209505
17686467 74 18341040870987764624
18335252 98 18335421330823061228
21267235 1 17917430904650744956
21521239 73 16370723750940067050
21585481 104 15503200203792641063
21682296 61 17917705821159569205
21781051 124 18273222997495972270
22122407 14 12534768526385187442
2260408 40 15625958542133839893
23522609 53 17751664069118907412
23559900 14 18116141355141271501
2747138 104 18131632270863345066
2748736 6 10231767677720394443
2838139 119 12468901071062743853
3004659 81 18271803493957025588
312425 54 15482665801614328966
3383291 50 18201993339523845679
3862424 121 17677343852033883107
392239 28 15123788492010724619
393628 179 8718548260006539519
4107672 100 17530956952933745341
4149490 64 18335413566318853618
439807 62 18113615699327595827
5104073 3 18131346431963031017
5470011 282 16732986457294240359
59755656 215 17773873113130270350
636775 8 18342468023937208086
8863177 126 18338512075157051363
9896288 288 18058455309848642353
999808 66 18342459257502566687

> <PUBCHEM_SHAPE_MULTIPOLES>
585.07
20.02
3.32
2.06
3.66
0.76
-0.35
22.53
1.04
-5.16
-1.08
1.54
0.07
1.97

> <PUBCHEM_SHAPE_SELFOVERLAP>
1205.146

> <PUBCHEM_SHAPE_VOLUME>
338.1

> <PUBCHEM_COORDINATE_TYPE>
2
5
10

$$$$
