2132479
  -OEChem-10052120443D

 39 41  0     0  0  0  0  0  0999 V2000
    0.0081    2.5323   -0.3224 O   0  0  0  0  0  0  0  0  0  0  0  0
   -0.0024   -1.5446    0.3098 N   0  0  0  0  0  0  0  0  0  0  0  0
   -4.1526    0.2073    1.2748 N   0  0  0  0  0  0  0  0  0  0  0  0
    3.8775   -0.5974   -0.7088 N   0  0  0  0  0  0  0  0  0  0  0  0
   -1.2003   -0.9845   -0.3309 C   0  0  0  0  0  0  0  0  0  0  0  0
    1.1976   -0.9912   -0.3332 C   0  0  0  0  0  0  0  0  0  0  0  0
   -1.2611    0.5132   -0.2066 C   0  0  0  0  0  0  0  0  0  0  0  0
    1.2668    0.5062   -0.2100 C   0  0  0  0  0  0  0  0  0  0  0  0
    0.0049    1.3073   -0.2552 C   0  0  0  0  0  0  0  0  0  0  0  0
   -0.0065   -3.0052    0.2168 C   0  0  0  0  0  0  0  0  0  0  0  0
   -2.4133    1.1762   -0.0296 C   0  0  0  0  0  0  0  0  0  0  0  0
    2.4232    1.1630   -0.0373 C   0  0  0  0  0  0  0  0  0  0  0  0
   -3.7011    0.5569    0.0378 C   0  0  0  0  0  0  0  0  0  0  0  0
    3.7077    0.5367    0.0266 C   0  0  0  0  0  0  0  0  0  0  0  0
   -4.4469    0.3287   -1.1217 C   0  0  0  0  0  0  0  0  0  0  0  0
    4.7289    1.0776    0.8125 C   0  0  0  0  0  0  0  0  0  0  0  0
   -5.6934   -0.2765   -1.0068 C   0  0  0  0  0  0  0  0  0  0  0  0
    5.9609    0.4336    0.8435 C   0  0  0  0  0  0  0  0  0  0  0  0
   -5.3687   -0.3788    1.3471 C   0  0  0  0  0  0  0  0  0  0  0  0
    5.0887   -1.1956   -0.6536 C   0  0  0  0  0  0  0  0  0  0  0  0
   -6.1705   -0.6400    0.2477 C   0  0  0  0  0  0  0  0  0  0  0  0
    6.1524   -0.7252    0.0993 C   0  0  0  0  0  0  0  0  0  0  0  0
   -2.0748   -1.4483    0.1392 H   0  0  0  0  0  0  0  0  0  0  0  0
   -1.2302   -1.2510   -1.3966 H   0  0  0  0  0  0  0  0  0  0  0  0
    1.2474   -1.2776   -1.3921 H   0  0  0  0  0  0  0  0  0  0  0  0
    2.0220   -1.4704    0.1996 H   0  0  0  0  0  0  0  0  0  0  0  0
    0.8685   -3.4272    0.7237 H   0  0  0  0  0  0  0  0  0  0  0  0
   -0.0060   -3.3554   -0.8218 H   0  0  0  0  0  0  0  0  0  0  0  0
   -0.8873   -3.4197    0.7197 H   0  0  0  0  0  0  0  0  0  0  0  0
   -2.4276    2.2569    0.0850 H   0  0  0  0  0  0  0  0  0  0  0  0
    2.4242    2.2415    0.1020 H   0  0  0  0  0  0  0  0  0  0  0  0
   -4.0719    0.6137   -2.1004 H   0  0  0  0  0  0  0  0  0  0  0  0
    4.5780    1.9820    1.3947 H   0  0  0  0  0  0  0  0  0  0  0  0
   -6.2920   -0.4645   -1.8930 H   0  0  0  0  0  0  0  0  0  0  0  0
    6.7702    0.8337    1.4468 H   0  0  0  0  0  0  0  0  0  0  0  0
   -5.6947   -0.6432    2.3477 H   0  0  0  0  0  0  0  0  0  0  0  0
    5.1860   -2.0959   -1.2512 H   0  0  0  0  0  0  0  0  0  0  0  0
   -7.1391   -1.1131    0.3611 H   0  0  0  0  0  0  0  0  0  0  0  0
    7.1042   -1.2439    0.1086 H   0  0  0  0  0  0  0  0  0  0  0  0
  1  9  2  0  0  0  0
  2  5  1  0  0  0  0
  2  6  1  0  0  0  0
  2 10  1  0  0  0  0
  3 13  1  0  0  0  0
  3 19  2  0  0  0  0
  4 14  1  0  0  0  0
  4 20  2  0  0  0  0
  5  7  1  0  0  0  0
  5 23  1  0  0  0  0
  5 24  1  0  0  0  0
  6  8  1  0  0  0  0
  6 25  1  0  0  0  0
  6 26  1  0  0  0  0
  7  9  1  0  0  0  0
  7 11  2  0  0  0  0
  8  9  1  0  0  0  0
  8 12  2  0  0  0  0
 10 27  1  0  0  0  0
 10 28  1  0  0  0  0
 10 29  1  0  0  0  0
 11 13  1  0  0  0  0
 11 30  1  0  0  0  0
 12 14  1  0  0  0  0
 12 31  1  0  0  0  0
 13 15  2  0  0  0  0
 14 16  2  0  0  0  0
 15 17  1  0  0  0  0
 15 32  1  0  0  0  0
 16 18  1  0  0  0  0
 16 33  1  0  0  0  0
 17 21  2  0  0  0  0
 17 34  1  0  0  0  0
 18 22  2  0  0  0  0
 18 35  1  0  0  0  0
 19 21  1  0  0  0  0
 19 36  1  0  0  0  0
 20 22  1  0  0  0  0
 20 37  1  0  0  0  0
 21 38  1  0  0  0  0
 22 39  1  0  0  0  0
M  END
> <PUBCHEM_COMPOUND_CID>
2132479

> <PUBCHEM_CONFORMER_RMSD>
0.6

> <PUBCHEM_CONFORMER_DIVERSEORDER>
5
11
10
12
13
2
14
3
7
9
8
4
1
6

> <PUBCHEM_MMFF94_PARTIAL_CHARGES>
32
1 -0.57
10 0.27
11 -0.18
12 -0.18
13 0.34
14 0.34
15 -0.15
16 -0.15
17 -0.15
18 -0.15
19 0.16
2 -0.81
20 0.16
21 -0.15
22 -0.15
3 -0.62
30 0.15
31 0.15
32 0.15
33 0.15
34 0.15
35 0.15
36 0.15
37 0.15
38 0.15
39 0.15
4 -0.62
5 0.41
6 0.41
7 -0.12
8 -0.12
9 0.54

> <PUBCHEM_EFFECTIVE_ROTOR_COUNT>
2.6

> <PUBCHEM_PHARMACOPHORE_FEATURES>
7
1 1 acceptor
1 2 cation
1 3 acceptor
1 4 acceptor
6 2 5 6 7 8 9 rings
6 3 13 15 17 19 21 rings
6 4 14 16 18 20 22 rings

> <PUBCHEM_HEAVY_ATOM_COUNT>
22

> <PUBCHEM_ATOM_DEF_STEREO_COUNT>
0

> <PUBCHEM_ATOM_UDEF_STEREO_COUNT>
0

> <PUBCHEM_BOND_DEF_STEREO_COUNT>
2

> <PUBCHEM_BOND_UDEF_STEREO_COUNT>
0

> <PUBCHEM_ISOTOPIC_ATOM_COUNT>
0

> <PUBCHEM_COMPONENT_COUNT>
1

> <PUBCHEM_CACTVS_TAUTO_COUNT>
1

> <PUBCHEM_CONFORMER_ID>
002089FF00000005

> <PUBCHEM_MMFF94_ENERGY>
71.949

> <PUBCHEM_FEATURE_SELFOVERLAP>
35.522

> <PUBCHEM_SHAPE_FINGERPRINT>
10 15 18187919630207720576
10906281 52 18199764677183520460
11646440 116 18342746229625888369
11796584 16 16081089281339042257
11963148 33 18040994068235527835
12011746 2 18186518804616017131
12035758 1 18409732897527011746
12166972 35 18130790070626598144
12236239 1 17703790323548498965
12596602 18 17203611479892380379
12916748 109 18411983550906305288
13140716 1 18194123138275786297
13533116 47 17775569711327962658
13862211 1 18409165506498330070
1420 363 18335423465089270609
14251764 18 18202280308569816224
14787075 74 17988923392176430761
14849402 71 17346031315512208328
15048467 5 14045742620821674520
15849732 13 17531248374801629006
18222031 100 17603308150403660660
19141452 34 18130504223277857654
19489759 90 16660361468148486733
200 152 18343300371366302077
20028762 73 18272369819211799551
21033648 29 18338216224439991544
21150785 3 16877670075748707854
21267235 1 18410580578021254684
21279426 13 18266176119792904798
21682296 61 18268155266430005710
21781051 124 18042146356320800354
22224240 67 18413389856622706923
22956985 138 17316469610028878122
23402539 116 18272928310777696469
23536379 177 16272211877078397774
23559900 14 18342454898617241168
23569914 152 16973342688459703583
23569943 247 17914627051026784350
23845131 108 17334789577965369248
283562 15 18339079272363935440
29717793 49 14273453652931145968
3178227 256 18335713770977639249
34797466 226 15502670285846812134
465052 167 17676214584307573568
474229 33 18408603669163146827
5104073 3 18267584598419925304
542803 24 15482670182401757900
59755656 215 18334013861276524534
6138700 20 18335983077990538806
9996256 80 18131630101588596255

> <PUBCHEM_SHAPE_MULTIPOLES>
431.94
15.39
1.9
0.99
0.39
0.7
-0.11
1.38
-1.8
0.67
0
-0.77
0.01
0.66

> <PUBCHEM_SHAPE_SELFOVERLAP>
933.675

> <PUBCHEM_SHAPE_VOLUME>
234.7

> <PUBCHEM_COORDINATE_TYPE>
2
5
10

$$$$
