44460282
  -OEChem-10062122043D

 66 70  0     1  0  0  0  0  0999 V2000
    1.6027   -2.5980   -0.4612 O   0  0  0  0  0  0  0  0  0  0  0  0
   -0.6958    0.0204   -1.6439 O   0  0  0  0  0  0  0  0  0  0  0  0
    0.6812   -0.7364   -4.0524 O   0  0  0  0  0  0  0  0  0  0  0  0
    1.6493   -3.2270   -3.2681 O   0  0  0  0  0  0  0  0  0  0  0  0
    3.5393   -1.2827   -0.8506 O   0  0  0  0  0  0  0  0  0  0  0  0
   -0.8088    0.2859    1.4787 O   0  0  0  0  0  0  0  0  0  0  0  0
   -2.7071   -1.0169   -2.1775 O   0  0  0  0  0  0  0  0  0  0  0  0
   -6.0265    0.3247    0.3267 O   0  0  0  0  0  0  0  0  0  0  0  0
    4.4783   -2.6766    0.7225 O   0  0  0  0  0  0  0  0  0  0  0  0
   -4.4896    2.4083    1.6787 O   0  0  0  0  0  0  0  0  0  0  0  0
   -4.8725   -3.6282    2.7059 O   0  0  0  0  0  0  0  0  0  0  0  0
   -6.7746   -1.9154    1.6627 O   0  0  0  0  0  0  0  0  0  0  0  0
   -3.9813    4.7303    0.3611 O   0  0  0  0  0  0  0  0  0  0  0  0
   -2.5144    4.7255   -1.9813 O   0  0  0  0  0  0  0  0  0  0  0  0
    4.8621    3.2414    0.6300 O   0  0  0  0  0  0  0  0  0  0  0  0
    8.4476    0.3778    2.0014 O   0  0  0  0  0  0  0  0  0  0  0  0
    7.4027    2.9233    1.6855 O   0  0  0  0  0  0  0  0  0  0  0  0
    0.0920   -1.1802   -1.7604 C   0  0  2  0  0  0  0  0  0  0  0  0
    0.6701   -1.5135   -0.3707 C   0  0  1  0  0  0  0  0  0  0  0  0
    1.2272   -0.8994   -2.7458 C   0  0  1  0  0  0  0  0  0  0  0  0
    2.2457   -2.0400   -2.7431 C   0  0  1  0  0  0  0  0  0  0  0  0
    2.7180   -2.3452   -1.3227 C   0  0  2  0  0  0  0  0  0  0  0  0
   -0.4148   -1.9468    0.6277 C   0  0  0  0  0  0  0  0  0  0  0  0
   -1.2726   -0.7985    1.1419 C   0  0  0  0  0  0  0  0  0  0  0  0
   -2.7351   -1.0353    1.2453 C   0  0  0  0  0  0  0  0  0  0  0  0
   -2.0399   -0.0795   -1.7818 C   0  0  0  0  0  0  0  0  0  0  0  0
   -3.6831   -0.1326    0.7134 C   0  0  0  0  0  0  0  0  0  0  0  0
   -2.5913    1.1533   -1.2019 C   0  0  0  0  0  0  0  0  0  0  0  0
   -3.3436    1.1153   -0.0094 C   0  0  0  0  0  0  0  0  0  0  0  0
   -3.1428   -2.2003    1.9140 C   0  0  0  0  0  0  0  0  0  0  0  0
    4.3750   -1.5879    0.1790 C   0  0  0  0  0  0  0  0  0  0  0  0
   -5.0458   -0.4617    0.8737 C   0  0  0  0  0  0  0  0  0  0  0  0
   -3.8034    2.3478    0.4944 C   0  0  0  0  0  0  0  0  0  0  0  0
   -2.3150    2.3588   -1.8615 C   0  0  0  0  0  0  0  0  0  0  0  0
   -4.4966   -2.4920    2.0559 C   0  0  0  0  0  0  0  0  0  0  0  0
   -5.4483   -1.6246    1.5345 C   0  0  0  0  0  0  0  0  0  0  0  0
    5.1727   -0.4004    0.5765 C   0  0  0  0  0  0  0  0  0  0  0  0
   -3.5294    3.5529   -0.1593 C   0  0  0  0  0  0  0  0  0  0  0  0
   -2.7880    3.5574   -1.3368 C   0  0  0  0  0  0  0  0  0  0  0  0
    6.4514   -0.5644    1.1090 C   0  0  0  0  0  0  0  0  0  0  0  0
    4.6429    0.8801    0.4168 C   0  0  0  0  0  0  0  0  0  0  0  0
    5.3916    1.9964    0.7895 C   0  0  0  0  0  0  0  0  0  0  0  0
    7.2003    0.5519    1.4817 C   0  0  0  0  0  0  0  0  0  0  0  0
    6.6703    1.8322    1.3220 C   0  0  0  0  0  0  0  0  0  0  0  0
   -0.5134   -2.0148   -2.1371 H   0  0  0  0  0  0  0  0  0  0  0  0
    1.1878   -0.6366    0.0397 H   0  0  0  0  0  0  0  0  0  0  0  0
    1.7153    0.0476   -2.4839 H   0  0  0  0  0  0  0  0  0  0  0  0
    3.0868   -1.7776   -3.3951 H   0  0  0  0  0  0  0  0  0  0  0  0
    3.3018   -3.2741   -1.3518 H   0  0  0  0  0  0  0  0  0  0  0  0
    0.0526   -2.4146    1.5037 H   0  0  0  0  0  0  0  0  0  0  0  0
   -1.0394   -2.7196    0.1641 H   0  0  0  0  0  0  0  0  0  0  0  0
    1.4216   -0.5668   -4.6594 H   0  0  0  0  0  0  0  0  0  0  0  0
    2.3395   -3.9110   -3.3061 H   0  0  0  0  0  0  0  0  0  0  0  0
   -2.4027   -2.8778    2.3343 H   0  0  0  0  0  0  0  0  0  0  0  0
   -1.7319    2.3572   -2.7797 H   0  0  0  0  0  0  0  0  0  0  0  0
   -5.6726    0.8327   -0.4208 H   0  0  0  0  0  0  0  0  0  0  0  0
    6.8675   -1.5617    1.2316 H   0  0  0  0  0  0  0  0  0  0  0  0
    3.6424    1.0221    0.0149 H   0  0  0  0  0  0  0  0  0  0  0  0
   -4.3085    1.6193    2.2142 H   0  0  0  0  0  0  0  0  0  0  0  0
   -4.0771   -4.1062    2.9972 H   0  0  0  0  0  0  0  0  0  0  0  0
   -6.8601   -2.7566    2.1443 H   0  0  0  0  0  0  0  0  0  0  0  0
   -3.6953    5.4545   -0.2224 H   0  0  0  0  0  0  0  0  0  0  0  0
   -1.9895    4.5338   -2.7773 H   0  0  0  0  0  0  0  0  0  0  0  0
    3.9710    3.1616    0.2485 H   0  0  0  0  0  0  0  0  0  0  0  0
    8.6464   -0.5736    2.0379 H   0  0  0  0  0  0  0  0  0  0  0  0
    8.2588    2.6170    2.0319 H   0  0  0  0  0  0  0  0  0  0  0  0
  1 19  1  0  0  0  0
  1 22  1  0  0  0  0
  2 18  1  0  0  0  0
  2 26  1  0  0  0  0
  3 20  1  0  0  0  0
  3 52  1  0  0  0  0
  4 21  1  0  0  0  0
  4 53  1  0  0  0  0
  5 22  1  0  0  0  0
  5 31  1  0  0  0  0
  6 24  2  0  0  0  0
  7 26  2  0  0  0  0
  8 32  1  0  0  0  0
  8 56  1  0  0  0  0
  9 31  2  0  0  0  0
 10 33  1  0  0  0  0
 10 59  1  0  0  0  0
 11 35  1  0  0  0  0
 11 60  1  0  0  0  0
 12 36  1  0  0  0  0
 12 61  1  0  0  0  0
 13 38  1  0  0  0  0
 13 62  1  0  0  0  0
 14 39  1  0  0  0  0
 14 63  1  0  0  0  0
 15 42  1  0  0  0  0
 15 64  1  0  0  0  0
 16 43  1  0  0  0  0
 16 65  1  0  0  0  0
 17 44  1  0  0  0  0
 17 66  1  0  0  0  0
 18 19  1  0  0  0  0
 18 20  1  0  0  0  0
 18 45  1  0  0  0  0
 19 23  1  0  0  0  0
 19 46  1  0  0  0  0
 20 21  1  0  0  0  0
 20 47  1  0  0  0  0
 21 22  1  0  0  0  0
 21 48  1  0  0  0  0
 22 49  1  0  0  0  0
 23 24  1  0  0  0  0
 23 50  1  0  0  0  0
 23 51  1  0  0  0  0
 24 25  1  0  0  0  0
 25 27  1  0  0  0  0
 25 30  2  0  0  0  0
 26 28  1  0  0  0  0
 27 29  1  0  0  0  0
 27 32  2  0  0  0  0
 28 29  1  0  0  0  0
 28 34  2  0  0  0  0
 29 33  2  0  0  0  0
 30 35  1  0  0  0  0
 30 54  1  0  0  0  0
 31 37  1  0  0  0  0
 32 36  1  0  0  0  0
 33 38  1  0  0  0  0
 34 39  1  0  0  0  0
 34 55  1  0  0  0  0
 35 36  2  0  0  0  0
 37 40  2  0  0  0  0
 37 41  1  0  0  0  0
 38 39  2  0  0  0  0
 40 43  1  0  0  0  0
 40 57  1  0  0  0  0
 41 42  2  0  0  0  0
 41 58  1  0  0  0  0
 42 44  1  0  0  0  0
 43 44  2  0  0  0  0
M  END
> <PUBCHEM_COMPOUND_CID>
44460282

> <PUBCHEM_CONFORMER_RMSD>
1

> <PUBCHEM_CONFORMER_DIVERSEORDER>
1
53
75
114
86
45
81
29
90
72
107
57
52
43
49
74
65
18
4
19
68
33
80
103
59
112
110
28
21
42
47
115
10
46
102
23
116
48
113
25
118
26
38
92
85
15
44
101
96
30
91
119
34
5
104
82
64
14
77
58
55
61
67
76
79
35
41
71
20
109
37
56
3
40
16
93
95
7
66
8
24
17
117
108
63
87
36
70
27
88
31
60
9
54
13
106
73
32
89
51
39
99
100
12
111
84
69
120
98
78
50
94
105
2
22
97
6
11
62
83

> <PUBCHEM_MMFF94_PARTIAL_CHARGES>
57
1 -0.56
10 -0.53
11 -0.53
12 -0.53
13 -0.53
14 -0.53
15 -0.53
16 -0.53
17 -0.53
18 0.28
19 0.28
2 -0.43
20 0.28
21 0.28
22 0.56
23 0.06
24 0.42
25 0.09
26 0.63
28 0.09
3 -0.68
30 -0.15
31 0.63
32 0.08
33 0.08
34 -0.15
35 0.08
36 0.08
37 0.09
38 0.08
39 0.08
4 -0.68
40 -0.15
41 -0.15
42 0.08
43 0.08
44 0.08
5 -0.43
52 0.4
53 0.4
54 0.15
55 0.15
56 0.45
57 0.15
58 0.15
59 0.45
6 -0.57
60 0.45
61 0.45
62 0.45
63 0.45
64 0.45
65 0.45
66 0.45
7 -0.57
8 -0.53
9 -0.57

> <PUBCHEM_EFFECTIVE_ROTOR_COUNT>
4.2

> <PUBCHEM_PHARMACOPHORE_FEATURES>
21
1 1 acceptor
1 10 donor
1 11 donor
1 12 donor
1 13 donor
1 14 donor
1 15 donor
1 16 donor
1 17 donor
1 3 acceptor
1 3 donor
1 4 acceptor
1 4 donor
1 6 acceptor
1 7 acceptor
1 8 donor
1 9 acceptor
6 1 18 19 20 21 22 rings
6 25 27 30 32 35 36 rings
6 28 29 33 34 38 39 rings
6 37 40 41 42 43 44 rings

> <PUBCHEM_HEAVY_ATOM_COUNT>
44

> <PUBCHEM_ATOM_DEF_STEREO_COUNT>
1

> <PUBCHEM_ATOM_UDEF_STEREO_COUNT>
4

> <PUBCHEM_BOND_DEF_STEREO_COUNT>
0

> <PUBCHEM_BOND_UDEF_STEREO_COUNT>
0

> <PUBCHEM_ISOTOPIC_ATOM_COUNT>
0

> <PUBCHEM_COMPONENT_COUNT>
1

> <PUBCHEM_CACTVS_TAUTO_COUNT>
998

> <PUBCHEM_CONFORMER_ID>
02A668FA00000001

> <PUBCHEM_MMFF94_ENERGY>
149.9611

> <PUBCHEM_FEATURE_SELFOVERLAP>
106.635

> <PUBCHEM_SHAPE_FINGERPRINT>
10010297 198 15409234814542892207
10319926 262 18187650155105760590
10369192 42 17846222201850130672
10930396 42 18337663213557448995
11411753 29 18128836161170271086
12128747 34 18260263006768257666
13911987 19 17346876741221784867
14068700 675 16733263564041082823
14705955 166 18113894962105778264
14840074 17 16773802497463995146
14950920 106 17895461524108595354
15131766 46 17132111351129167267
18393751 57 18411702131406038543
18470217 77 18260265214102353573
19304152 47 18410004442993144332
21033648 29 18338239263298195006
21772528 278 16056890155614320830
22122407 14 18269821082949801732
244849 19 18197792006967881198
27425 322 17835514930434279517
3552219 110 16986582311908241303
4144715 1 18262242106170904378
4756261 7 17689722286555421770
50009960 94 17537729072557241643
6034566 193 17703784851670460902

> <PUBCHEM_SHAPE_MULTIPOLES>
805.72
17.58
4.81
3.03
27.44
4.61
-2.51
5.04
15.64
-4.27
-0.09
0.11
-1.68
5.66

> <PUBCHEM_SHAPE_SELFOVERLAP>
1798.825

> <PUBCHEM_SHAPE_VOLUME>
419

> <PUBCHEM_COORDINATE_TYPE>
2
5
10

$$$$
