49830382
  -OEChem-10052115183D

 46 49  0     0  0  0  0  0  0999 V2000
    5.6790   -2.2122    0.7957 S   0  0  0  0  0  0  0  0  0  0  0  0
   -2.8972    0.0712    1.2311 O   0  0  0  0  0  0  0  0  0  0  0  0
   -2.0311   -0.5477   -0.8561 N   0  0  0  0  0  0  0  0  0  0  0  0
    6.9034    0.1174    0.3807 N   0  0  0  0  0  0  0  0  0  0  0  0
    5.5976    2.0341   -0.3262 N   0  0  0  0  0  0  0  0  0  0  0  0
   -4.3002   -0.1834   -0.6225 N   0  0  0  0  0  0  0  0  0  0  0  0
    3.2530    1.9363   -0.6706 N   0  0  0  0  0  0  0  0  0  0  0  0
    7.9082    2.1920   -0.0027 N   0  0  0  0  0  0  0  0  0  0  0  0
    3.4821   -1.0516    0.1461 C   0  0  0  0  0  0  0  0  0  0  0  0
    4.4939   -0.0459    0.0430 C   0  0  0  0  0  0  0  0  0  0  0  0
    2.0695   -0.9232   -0.1104 C   0  0  0  0  0  0  0  0  0  0  0  0
    5.7400   -0.5620    0.3744 C   0  0  0  0  0  0  0  0  0  0  0  0
    3.9880   -2.2700    0.5442 C   0  0  0  0  0  0  0  0  0  0  0  0
    1.2037   -0.5591    0.9209 C   0  0  0  0  0  0  0  0  0  0  0  0
    1.5685   -1.1623   -1.3900 C   0  0  0  0  0  0  0  0  0  0  0  0
   -0.6642   -0.6736   -0.6071 C   0  0  0  0  0  0  0  0  0  0  0  0
    4.4608    1.3058   -0.3154 C   0  0  0  0  0  0  0  0  0  0  0  0
   -0.1632   -0.4344    0.6726 C   0  0  0  0  0  0  0  0  0  0  0  0
    0.2016   -1.0376   -1.6384 C   0  0  0  0  0  0  0  0  0  0  0  0
    6.7365    1.4019    0.0187 C   0  0  0  0  0  0  0  0  0  0  0  0
   -5.5757    0.1178   -0.0894 C   0  0  0  0  0  0  0  0  0  0  0  0
   -3.0646   -0.1911    0.0443 C   0  0  0  0  0  0  0  0  0  0  0  0
   -7.9609    0.3660   -0.3815 C   0  0  0  0  0  0  0  0  0  0  0  0
   -6.7036    0.0711   -0.9086 C   0  0  0  0  0  0  0  0  0  0  0  0
   -5.7050    0.4593    1.2569 C   0  0  0  0  0  0  0  0  0  0  0  0
   -8.0905    0.7076    0.9647 C   0  0  0  0  0  0  0  0  0  0  0  0
   -6.9624    0.7543    1.7838 C   0  0  0  0  0  0  0  0  0  0  0  0
   -9.1668    0.3195   -1.2582 C   0  0  0  0  0  0  0  0  0  0  0  0
    3.4548   -3.1981    0.7025 H   0  0  0  0  0  0  0  0  0  0  0  0
    1.5796   -0.3681    1.9235 H   0  0  0  0  0  0  0  0  0  0  0  0
    2.2300   -1.4455   -2.2053 H   0  0  0  0  0  0  0  0  0  0  0  0
   -0.7665   -0.1489    1.5224 H   0  0  0  0  0  0  0  0  0  0  0  0
   -0.1750   -1.2264   -2.6405 H   0  0  0  0  0  0  0  0  0  0  0  0
   -2.3203   -0.7379   -1.8124 H   0  0  0  0  0  0  0  0  0  0  0  0
   -4.2870   -0.4233   -1.6106 H   0  0  0  0  0  0  0  0  0  0  0  0
   -6.6038   -0.1932   -1.9590 H   0  0  0  0  0  0  0  0  0  0  0  0
    2.3710    1.4504   -0.6828 H   0  0  0  0  0  0  0  0  0  0  0  0
    3.2815    2.9158   -0.9220 H   0  0  0  0  0  0  0  0  0  0  0  0
   -4.8827    0.5179    1.9552 H   0  0  0  0  0  0  0  0  0  0  0  0
   -9.0642    0.9419    1.3867 H   0  0  0  0  0  0  0  0  0  0  0  0
   -7.0645    1.0211    2.8318 H   0  0  0  0  0  0  0  0  0  0  0  0
   -9.3156    1.2889   -1.7440 H   0  0  0  0  0  0  0  0  0  0  0  0
   -9.0623   -0.4494   -2.0313 H   0  0  0  0  0  0  0  0  0  0  0  0
  -10.0661    0.0744   -0.6828 H   0  0  0  0  0  0  0  0  0  0  0  0
    7.8459    3.1655   -0.2668 H   0  0  0  0  0  0  0  0  0  0  0  0
    8.7938    1.7738    0.2464 H   0  0  0  0  0  0  0  0  0  0  0  0
  1 12  1  0  0  0  0
  1 13  1  0  0  0  0
  2 22  2  0  0  0  0
  3 16  1  0  0  0  0
  3 22  1  0  0  0  0
  3 34  1  0  0  0  0
  4 12  2  0  0  0  0
  4 20  1  0  0  0  0
  5 17  1  0  0  0  0
  5 20  2  0  0  0  0
  6 21  1  0  0  0  0
  6 22  1  0  0  0  0
  6 35  1  0  0  0  0
  7 17  1  0  0  0  0
  7 37  1  0  0  0  0
  7 38  1  0  0  0  0
  8 20  1  0  0  0  0
  8 45  1  0  0  0  0
  8 46  1  0  0  0  0
  9 10  1  0  0  0  0
  9 11  1  0  0  0  0
  9 13  2  0  0  0  0
 10 12  1  0  0  0  0
 10 17  2  0  0  0  0
 11 14  2  0  0  0  0
 11 15  1  0  0  0  0
 13 29  1  0  0  0  0
 14 18  1  0  0  0  0
 14 30  1  0  0  0  0
 15 19  2  0  0  0  0
 15 31  1  0  0  0  0
 16 18  2  0  0  0  0
 16 19  1  0  0  0  0
 18 32  1  0  0  0  0
 19 33  1  0  0  0  0
 21 24  1  0  0  0  0
 21 25  2  0  0  0  0
 23 24  2  0  0  0  0
 23 26  1  0  0  0  0
 23 28  1  0  0  0  0
 24 36  1  0  0  0  0
 25 27  1  0  0  0  0
 25 39  1  0  0  0  0
 26 27  2  0  0  0  0
 26 40  1  0  0  0  0
 27 41  1  0  0  0  0
 28 42  1  0  0  0  0
 28 43  1  0  0  0  0
 28 44  1  0  0  0  0
M  END
> <PUBCHEM_COMPOUND_CID>
49830382

> <PUBCHEM_CONFORMER_RMSD>
0.8

> <PUBCHEM_CONFORMER_DIVERSEORDER>
1
16
29
17
2
15
22
7
18
12
31
5
19
13
11
32
20
23
14
8
3
30
4
6
28
26
27
9
25
10
24
21

> <PUBCHEM_MMFF94_PARTIAL_CHARGES>
42
1 -0.08
11 0.05
12 0.3
13 -0.11
14 -0.15
15 -0.15
16 0.12
17 0.41
18 -0.15
19 -0.15
2 -0.57
20 0.72
21 0.12
22 0.69
23 -0.14
24 -0.15
25 -0.15
26 -0.15
27 -0.15
28 0.14
29 0.15
3 -0.55
30 0.15
31 0.15
32 0.15
33 0.15
34 0.37
35 0.37
36 0.15
37 0.4
38 0.4
39 0.15
4 -0.57
40 0.15
41 0.15
45 0.4
46 0.4
5 -0.62
6 -0.55
7 -0.9
8 -0.9
9 -0.05

> <PUBCHEM_EFFECTIVE_ROTOR_COUNT>
5

> <PUBCHEM_PHARMACOPHORE_FEATURES>
12
1 2 acceptor
1 3 donor
1 4 acceptor
1 6 donor
1 7 cation
1 7 donor
1 8 donor
4 4 5 8 20 cation
5 1 9 10 12 13 rings
6 11 14 15 16 18 19 rings
6 21 23 24 25 26 27 rings
6 4 5 10 12 17 20 rings

> <PUBCHEM_HEAVY_ATOM_COUNT>
28

> <PUBCHEM_ATOM_DEF_STEREO_COUNT>
0

> <PUBCHEM_ATOM_UDEF_STEREO_COUNT>
0

> <PUBCHEM_BOND_DEF_STEREO_COUNT>
0

> <PUBCHEM_BOND_UDEF_STEREO_COUNT>
0

> <PUBCHEM_ISOTOPIC_ATOM_COUNT>
0

> <PUBCHEM_COMPONENT_COUNT>
1

> <PUBCHEM_CACTVS_TAUTO_COUNT>
27

> <PUBCHEM_CONFORMER_ID>
02F859EE00000001

> <PUBCHEM_MMFF94_ENERGY>
91.7294

> <PUBCHEM_FEATURE_SELFOVERLAP>
61.026

> <PUBCHEM_SHAPE_FINGERPRINT>
10 15 17603303764930457411
10162869 55 18336256938259097111
10299344 5 18060418002423334099
10411042 1 17975126545396763562
10554248 39 17630881608578621983
106641 1 14634870881845086684
10906281 52 17703241654314221347
11315181 36 18343582946345153539
11646440 116 16732708237844379877
11719270 70 17203326672063753071
12089408 11 17989485204765189595
12166972 35 8430309139396202831
12236239 1 18202561796226064222
125118 31 18339081493426373745
13383665 225 16773258205350018569
13533116 47 18041561334593560218
13617811 41 16343986914203567208
14170010 4 17894633647560847862
14251757 52 17775563165449508104
14251764 18 17989203738104029083
14294032 229 17346315960622947749
14849402 71 18340770433275476177
14856354 85 17346595301559575413
15131766 46 18193832871876126196
15183329 4 17418096520637768313
15301273 46 16660360364130791023
15419008 47 17095518483540077141
15419008 91 16660634172902044357
15461852 350 16917344858200612615
15510794 2 17603305947649712995
1577012 14 18202280316347640583
15840311 113 18412265052085609628
15849732 13 13470683750682101177
16120349 18 18408879650892373949
16989713 51 16486396829260922175
17093844 174 17385443216496080155
1818759 1 11025794275926322472
18335252 114 18202283611046752148
20157964 124 18408886222530167714
2026 5 9655038644764929556
20505436 4 18272647992012676886
20771845 171 17846786187434165318
21150785 3 17560801044180449445
21267235 1 8574441932848076512
21792934 111 17168142326361357701
22224240 67 17822009813572263755
23081809 10 17988917864801596399
23576562 1 17058920251003549857
255183 451 17771356275486541854
3092352 35 18131630088519455158
3383291 50 15791742914556069105
397830 11 17749683998910687515
4073 2 18041283261051723538
4325135 7 18272087193299248061
4340502 62 17894914027326686130
445580 37 15985111790986347051
45377200 153 11887370531855356973
5104073 3 16806153350820828121
5758199 1 17775567525020946927
59520757 100 15912751903563716181
67123 10 18408882946044945519

> <PUBCHEM_SHAPE_MULTIPOLES>
544.32
27.49
1.79
1.29
35.93
0.26
-0.03
10.36
-2.05
-5.22
-0.01
1.94
-0.13
-1.42

> <PUBCHEM_SHAPE_SELFOVERLAP>
1191.59

> <PUBCHEM_SHAPE_VOLUME>
296.2

> <PUBCHEM_COORDINATE_TYPE>
2
5
10

$$$$
