5908088
  -OEChem-10062122043D

 26 28  0     0  0  0  0  0  0999 V2000
   -1.0851    1.9597   -0.0310 O   0  0  0  0  0  0  0  0  0  0  0  0
    1.2732    1.8321    0.0244 N   0  0  0  0  0  0  0  0  0  0  0  0
   -2.9190   -0.5351    1.0680 N   0  0  0  0  0  0  0  0  0  0  0  0
    1.5575   -0.4494   -0.0253 C   0  0  0  0  0  0  0  0  0  0  0  0
    0.1301   -0.1494   -0.0535 C   0  0  0  0  0  0  0  0  0  0  0  0
    2.2055    0.7885    0.0215 C   0  0  0  0  0  0  0  0  0  0  0  0
   -0.0362    1.3424   -0.0205 C   0  0  0  0  0  0  0  0  0  0  0  0
   -0.8974   -0.9994   -0.1006 C   0  0  0  0  0  0  0  0  0  0  0  0
    2.2831   -1.6256   -0.0373 C   0  0  0  0  0  0  0  0  0  0  0  0
   -2.3245   -0.6293   -0.1269 C   0  0  0  0  0  0  0  0  0  0  0  0
    3.5814    0.9020    0.0581 C   0  0  0  0  0  0  0  0  0  0  0  0
    3.6787   -1.5336   -0.0009 C   0  0  0  0  0  0  0  0  0  0  0  0
    4.3214   -0.2820    0.0464 C   0  0  0  0  0  0  0  0  0  0  0  0
   -3.1499   -0.3646   -1.1341 C   0  0  0  0  0  0  0  0  0  0  0  0
   -4.2235   -0.1844    0.8369 C   0  0  0  0  0  0  0  0  0  0  0  0
   -4.3953   -0.0718   -0.5251 C   0  0  0  0  0  0  0  0  0  0  0  0
    1.5297    2.8117    0.0551 H   0  0  0  0  0  0  0  0  0  0  0  0
   -0.7052   -2.0700   -0.1236 H   0  0  0  0  0  0  0  0  0  0  0  0
    1.7992   -2.5952   -0.0738 H   0  0  0  0  0  0  0  0  0  0  0  0
    4.0750    1.8663    0.0944 H   0  0  0  0  0  0  0  0  0  0  0  0
    4.2771   -2.4409   -0.0092 H   0  0  0  0  0  0  0  0  0  0  0  0
    5.4070   -0.2393    0.0740 H   0  0  0  0  0  0  0  0  0  0  0  0
   -2.5053   -0.6876    1.9792 H   0  0  0  0  0  0  0  0  0  0  0  0
   -2.9310   -0.3673   -2.1927 H   0  0  0  0  0  0  0  0  0  0  0  0
   -4.9111   -0.0465    1.6596 H   0  0  0  0  0  0  0  0  0  0  0  0
   -5.3171    0.1930   -1.0239 H   0  0  0  0  0  0  0  0  0  0  0  0
  1  7  2  0  0  0  0
  2  6  1  0  0  0  0
  2  7  1  0  0  0  0
  2 17  1  0  0  0  0
  3 10  1  0  0  0  0
  3 15  1  0  0  0  0
  3 23  1  0  0  0  0
  4  5  1  0  0  0  0
  4  6  1  0  0  0  0
  4  9  2  0  0  0  0
  5  7  1  0  0  0  0
  5  8  2  0  0  0  0
  6 11  2  0  0  0  0
  8 10  1  0  0  0  0
  8 18  1  0  0  0  0
  9 12  1  0  0  0  0
  9 19  1  0  0  0  0
 10 14  2  0  0  0  0
 11 13  1  0  0  0  0
 11 20  1  0  0  0  0
 12 13  2  0  0  0  0
 12 21  1  0  0  0  0
 13 22  1  0  0  0  0
 14 16  1  0  0  0  0
 14 24  1  0  0  0  0
 15 16  2  0  0  0  0
 15 25  1  0  0  0  0
 16 26  1  0  0  0  0
M  END
> <PUBCHEM_COMPOUND_CID>
5908088

> <PUBCHEM_CONFORMER_RMSD>
0.6

> <PUBCHEM_CONFORMER_DIVERSEORDER>
1
2

> <PUBCHEM_MMFF94_PARTIAL_CHARGES>
26
1 -0.57
10 -0.2
11 -0.15
12 -0.15
13 -0.15
14 -0.15
15 -0.3
16 -0.15
17 0.37
18 0.15
19 0.15
2 -0.55
20 0.15
21 0.15
22 0.15
23 0.27
24 0.15
25 0.15
26 0.15
3 0.03
4 0.03
5 -0.01
6 0.12
7 0.62
8 -0.11
9 -0.15

> <PUBCHEM_EFFECTIVE_ROTOR_COUNT>
1.2

> <PUBCHEM_PHARMACOPHORE_FEATURES>
7
1 1 acceptor
1 2 donor
1 3 cation
1 3 donor
5 2 4 5 6 7 rings
5 3 10 14 15 16 rings
6 4 6 9 11 12 13 rings

> <PUBCHEM_HEAVY_ATOM_COUNT>
16

> <PUBCHEM_ATOM_DEF_STEREO_COUNT>
0

> <PUBCHEM_ATOM_UDEF_STEREO_COUNT>
0

> <PUBCHEM_BOND_DEF_STEREO_COUNT>
1

> <PUBCHEM_BOND_UDEF_STEREO_COUNT>
0

> <PUBCHEM_ISOTOPIC_ATOM_COUNT>
0

> <PUBCHEM_COMPONENT_COUNT>
1

> <PUBCHEM_CACTVS_TAUTO_COUNT>
2

> <PUBCHEM_CONFORMER_ID>
005A267800000001

> <PUBCHEM_MMFF94_ENERGY>
51.959

> <PUBCHEM_FEATURE_SELFOVERLAP>
35.609

> <PUBCHEM_SHAPE_FINGERPRINT>
10130415 120 18410572894235084850
10618630 7 18408886217786521700
11132069 177 18342448275075868866
11401426 45 18343013410856271004
11471102 20 18409726283403950030
11578080 2 17487586729023427513
12032990 46 18335143085186834602
12236239 1 17775567555122381375
124424 183 18260265261425549551
12670546 56 17561360677675378473
13140716 1 18122620815280066160
13221675 6 18411418423167120494
13296908 3 18186802495584998915
13571099 22 18409726279056254679
13675066 3 18261392277807572409
13760787 5 18410856576835522268
14115302 16 17676779737600667438
14144814 61 18343023293644772859
14251717 144 18341890801121581350
14252887 29 18272941500849135070
14289901 80 14979959198142880055
14576447 43 18057590165511380927
15196674 1 18410855425821359365
15309172 13 18272371975126703935
15375358 24 18260264170176880418
15375462 189 18272932730198479450
15653759 3 17385723621192555611
15848700 24 18412818092794877428
16945 1 18411135883186167996
18186145 218 17458340840552131135
200 152 18202275892626115029
20279233 1 17967813859945135651
20281475 54 18342174487858580966
20645477 70 18410851036386284910
20871998 22 18199756847326433414
21267235 1 18411427180853532278
21501502 16 18267587914382609952
21501925 9 18409721834224019842
22094290 60 16081084875003224319
23175994 123 18187087247911861437
23184049 59 18343024397514749423
23402539 116 18343011186063335399
23402655 69 18413103948574946069
23559900 14 18186238420883084490
26918003 58 18113616789668774058
2748010 2 18267576914971339140
2871803 45 18334293124471294902
34934 24 18340197592064482774
4990 188 12540692592056019738
5104073 3 18338794495131829080
7364860 26 18341611585598524048
77492 1 17704074027391709639
83771 10 18413106139161150092
8809292 202 18113904895985507451

> <PUBCHEM_SHAPE_MULTIPOLES>
313.44
8.44
1.62
0.81
2.35
0.41
0
-1.69
-0.22
-1.06
0.01
0.7
-0.08
0.03

> <PUBCHEM_SHAPE_SELFOVERLAP>
705.312

> <PUBCHEM_SHAPE_VOLUME>
167.7

> <PUBCHEM_COORDINATE_TYPE>
2
5
10

$$$$
