49830428
  -OEChem-10052120433D

 41 44  0     0  0  0  0  0  0999 V2000
   -7.7525    1.4858    0.0349 F   0  0  0  0  0  0  0  0  0  0  0  0
   -3.0645    1.4115   -0.0769 O   0  0  0  0  0  0  0  0  0  0  0  0
    7.0776    0.4415    0.7940 N   0  0  0  0  0  0  0  0  0  0  0  0
   -1.3599   -0.1953   -0.0322 N   0  0  0  0  0  0  0  0  0  0  0  0
    8.0267   -0.4873    0.5910 N   0  0  0  0  0  0  0  0  0  0  0  0
   -3.5677   -0.8683    0.0576 N   0  0  0  0  0  0  0  0  0  0  0  0
    3.5091    0.0767   -0.1706 C   0  0  0  0  0  0  0  0  0  0  0  0
    2.2127    0.7216   -0.1714 C   0  0  0  0  0  0  0  0  0  0  0  0
    5.8338    0.0788    0.3522 C   0  0  0  0  0  0  0  0  0  0  0  0
    5.9924   -1.1948   -0.1825 C   0  0  0  0  0  0  0  0  0  0  0  0
    4.6080    0.7474    0.3763 C   0  0  0  0  0  0  0  0  0  0  0  0
    3.6403   -1.2026   -0.7141 C   0  0  0  0  0  0  0  0  0  0  0  0
    1.0511   -0.0475   -0.1004 C   0  0  0  0  0  0  0  0  0  0  0  0
    4.8792   -1.8556   -0.7282 C   0  0  0  0  0  0  0  0  0  0  0  0
   -0.1979    0.5738   -0.1018 C   0  0  0  0  0  0  0  0  0  0  0  0
    2.1254    2.1120   -0.2439 C   0  0  0  0  0  0  0  0  0  0  0  0
    7.3628   -1.4814   -0.0032 C   0  0  0  0  0  0  0  0  0  0  0  0
   -0.2852    1.9640   -0.1742 C   0  0  0  0  0  0  0  0  0  0  0  0
    0.8764    2.7331   -0.2455 C   0  0  0  0  0  0  0  0  0  0  0  0
   -2.7079    0.2388   -0.0227 C   0  0  0  0  0  0  0  0  0  0  0  0
   -4.9822   -0.8719    0.0922 C   0  0  0  0  0  0  0  0  0  0  0  0
   -5.6841    0.3326    0.0448 C   0  0  0  0  0  0  0  0  0  0  0  0
   -5.6748   -2.0800    0.1744 C   0  0  0  0  0  0  0  0  0  0  0  0
   -7.0785    0.3292    0.0794 C   0  0  0  0  0  0  0  0  0  0  0  0
   -7.0692   -2.0834    0.2093 C   0  0  0  0  0  0  0  0  0  0  0  0
   -7.7712   -0.8788    0.1615 C   0  0  0  0  0  0  0  0  0  0  0  0
    4.5453    1.7278    0.8353 H   0  0  0  0  0  0  0  0  0  0  0  0
    2.8073   -1.7275   -1.1752 H   0  0  0  0  0  0  0  0  0  0  0  0
    1.0845   -1.1305   -0.0094 H   0  0  0  0  0  0  0  0  0  0  0  0
    4.9714   -2.8475   -1.1602 H   0  0  0  0  0  0  0  0  0  0  0  0
    3.0000    2.7504   -0.3326 H   0  0  0  0  0  0  0  0  0  0  0  0
    7.3457    1.3086    1.2426 H   0  0  0  0  0  0  0  0  0  0  0  0
    7.9040   -2.3746   -0.2817 H   0  0  0  0  0  0  0  0  0  0  0  0
   -1.2120    2.5196   -0.1822 H   0  0  0  0  0  0  0  0  0  0  0  0
    0.8090    3.8154   -0.3094 H   0  0  0  0  0  0  0  0  0  0  0  0
   -1.2166   -1.2009    0.0177 H   0  0  0  0  0  0  0  0  0  0  0  0
   -3.1291   -1.7850    0.0962 H   0  0  0  0  0  0  0  0  0  0  0  0
   -5.2226    1.3074   -0.0188 H   0  0  0  0  0  0  0  0  0  0  0  0
   -5.1401   -3.0256    0.2122 H   0  0  0  0  0  0  0  0  0  0  0  0
   -7.6087   -3.0238    0.2735 H   0  0  0  0  0  0  0  0  0  0  0  0
   -8.8569   -0.8812    0.1887 H   0  0  0  0  0  0  0  0  0  0  0  0
  1 24  1  0  0  0  0
  2 20  2  0  0  0  0
  3  5  1  0  0  0  0
  3  9  1  0  0  0  0
  3 32  1  0  0  0  0
  4 15  1  0  0  0  0
  4 20  1  0  0  0  0
  4 36  1  0  0  0  0
  5 17  2  0  0  0  0
  6 20  1  0  0  0  0
  6 21  1  0  0  0  0
  6 37  1  0  0  0  0
  7  8  1  0  0  0  0
  7 11  2  0  0  0  0
  7 12  1  0  0  0  0
  8 13  2  0  0  0  0
  8 16  1  0  0  0  0
  9 10  2  0  0  0  0
  9 11  1  0  0  0  0
 10 14  1  0  0  0  0
 10 17  1  0  0  0  0
 11 27  1  0  0  0  0
 12 14  2  0  0  0  0
 12 28  1  0  0  0  0
 13 15  1  0  0  0  0
 13 29  1  0  0  0  0
 14 30  1  0  0  0  0
 15 18  2  0  0  0  0
 16 19  2  0  0  0  0
 16 31  1  0  0  0  0
 17 33  1  0  0  0  0
 18 19  1  0  0  0  0
 18 34  1  0  0  0  0
 19 35  1  0  0  0  0
 21 22  2  0  0  0  0
 21 23  1  0  0  0  0
 22 24  1  0  0  0  0
 22 38  1  0  0  0  0
 23 25  2  0  0  0  0
 23 39  1  0  0  0  0
 24 26  2  0  0  0  0
 25 26  1  0  0  0  0
 25 40  1  0  0  0  0
 26 41  1  0  0  0  0
M  END
> <PUBCHEM_COMPOUND_CID>
49830428

> <PUBCHEM_CONFORMER_RMSD>
0.8

> <PUBCHEM_CONFORMER_DIVERSEORDER>
3
32
69
45
63
31
51
26
73
40
59
1
37
6
36
10
14
42
64
30
57
70
25
11
33
61
27
67
71
52
17
43
66
34
28
9
50
39
35
44
74
55
20
60
47
68
56
5
2
72
58
23
29
24
65
53
18
41
62
38
15
46
22
54
49
48
4
16
7
21
19
12
75
8
13

> <PUBCHEM_MMFF94_PARTIAL_CHARGES>
38
1 -0.19
11 -0.15
12 -0.15
13 -0.15
14 -0.15
15 0.12
16 -0.15
17 0.14
18 -0.15
19 -0.15
2 -0.57
20 0.69
21 0.12
22 -0.15
23 -0.15
24 0.19
25 -0.15
26 -0.15
27 0.15
28 0.15
29 0.15
3 0.3
30 0.15
31 0.15
32 0.27
33 0.15
34 0.15
35 0.15
36 0.37
37 0.37
38 0.15
39 0.15
4 -0.55
40 0.15
41 0.15
5 -0.71
6 -0.55
9 -0.15

> <PUBCHEM_EFFECTIVE_ROTOR_COUNT>
5

> <PUBCHEM_PHARMACOPHORE_FEATURES>
9
1 2 acceptor
1 3 donor
1 4 donor
1 5 acceptor
1 6 donor
5 3 5 9 10 17 rings
6 21 22 23 24 25 26 rings
6 7 9 10 11 12 14 rings
6 8 13 15 16 18 19 rings

> <PUBCHEM_HEAVY_ATOM_COUNT>
26

> <PUBCHEM_ATOM_DEF_STEREO_COUNT>
0

> <PUBCHEM_ATOM_UDEF_STEREO_COUNT>
0

> <PUBCHEM_BOND_DEF_STEREO_COUNT>
0

> <PUBCHEM_BOND_UDEF_STEREO_COUNT>
0

> <PUBCHEM_ISOTOPIC_ATOM_COUNT>
0

> <PUBCHEM_COMPONENT_COUNT>
1

> <PUBCHEM_CACTVS_TAUTO_COUNT>
6

> <PUBCHEM_CONFORMER_ID>
02F85A1C00000003

> <PUBCHEM_MMFF94_ENERGY>
79.6359

> <PUBCHEM_FEATURE_SELFOVERLAP>
45.812

> <PUBCHEM_SHAPE_FINGERPRINT>
10 15 17060338543456060092
100830 39 18337390436264513325
10299344 5 18113057142566282663
10625338 86 14836405808927318299
106641 1 18202278126837199818
10670039 82 15140669272831524303
11315181 36 17703792518735678059
11456790 92 18059591217535681315
11524674 6 17275386525860997415
11719270 70 18202004330381748166
11991303 11 14129068053387326433
12516196 113 18413108359801757912
12592606 108 18410571816937181055
12623949 98 17702959015754867390
12643181 29 17676208004666142179
13673619 4 17894628166971939285
13685833 64 18411138039259614146
13885169 127 18410292485085672065
14251764 18 18130788966423779020
14294032 229 16517078516039156581
14556957 393 15068910711217169183
14856354 85 15213305244878286683
15183329 4 17676482857050786051
15419008 91 18263623169637019861
15849732 13 18201719561053935855
16120349 18 18130781300203035648
17492 89 18121779423109366186
1754911 235 7853576782404076227
1768 124 17988926677911269782
18335252 98 18413107252565222350
19841028 212 18188487957265479178
20028762 73 18342741827316655862
20238998 120 18412825780961417432
20281389 69 11527953339501696378
20721686 124 11819263452572366768
21130935 74 18342458187908029963
21150785 3 13479133492787396433
21267235 1 18411421700691274180
21315763 28 18410575132894097823
21623969 137 17989210330283106718
21792934 111 18342448245127701312
22224240 67 16272205293194285318
23522609 53 18046097975478724637
23559900 14 18337106886696649473
3004659 81 18113054956280255385
3103668 31 17896031058411452013
335352 9 18408886256873841759
3383291 50 18261959638877972275
4066623 53 15068622704133024926
4073 2 18041846245612504147
4340502 62 15339123437980274140
465052 167 18343306976529982206
5104073 3 18057316190359406778
559249 180 18411419527775627287
5758199 1 10952054459299460917
59682541 35 18201712977802520362
59682541 52 14634866449380730218
6126387 218 18272369754997584977
6138700 20 18334295370939715915
6691757 9 15769773594175402615
99344 41 18343584032281406783
9962374 69 18269549606535968255

> <PUBCHEM_SHAPE_MULTIPOLES>
502
25.47
2.23
0.7
13.84
0.52
0.01
-12.12
-3.41
0.51
0.21
-0.48
-0.05
0.63

> <PUBCHEM_SHAPE_SELFOVERLAP>
1120.665

> <PUBCHEM_SHAPE_VOLUME>
266.7

> <PUBCHEM_COORDINATE_TYPE>
2
5
10

$$$$
