2827827
  -OEChem-10052115193D

 32 33  0     0  0  0  0  0  0999 V2000
    0.7300    2.3724   -0.3029 O   0  0  0  0  0  0  0  0  0  0  0  0
   -2.6535   -2.6168    0.0571 O   0  0  0  0  0  0  0  0  0  0  0  0
   -1.0841   -0.8782   -0.1187 N   0  0  0  0  0  0  0  0  0  0  0  0
    3.8486   -0.2906    0.1993 N   0  0  0  0  0  0  0  0  0  0  0  0
   -1.8544    1.3713    0.0238 N   0  0  0  0  0  0  0  0  0  0  0  0
    1.5278    0.1274   -0.4478 C   0  0  0  0  0  0  0  0  0  0  0  0
    2.9661    0.5106   -0.6323 C   0  0  0  0  0  0  0  0  0  0  0  0
   -0.8903    0.5092   -0.1198 C   0  0  0  0  0  0  0  0  0  0  0  0
    0.5190    1.0096   -0.2986 C   0  0  0  0  0  0  0  0  0  0  0  0
    1.2403   -1.2921   -0.4345 C   0  0  0  0  0  0  0  0  0  0  0  0
   -0.0091   -1.7376   -0.2767 C   0  0  0  0  0  0  0  0  0  0  0  0
   -2.3621   -1.4226    0.0414 C   0  0  0  0  0  0  0  0  0  0  0  0
   -3.1263    0.8837    0.1846 C   0  0  0  0  0  0  0  0  0  0  0  0
    3.5230   -0.1201    1.6181 C   0  0  0  0  0  0  0  0  0  0  0  0
    5.2511    0.0607   -0.0413 C   0  0  0  0  0  0  0  0  0  0  0  0
   -3.4375   -0.4188    0.2028 C   0  0  0  0  0  0  0  0  0  0  0  0
   -4.1887    1.9318    0.3453 C   0  0  0  0  0  0  0  0  0  0  0  0
    3.1188    1.5805   -0.4388 H   0  0  0  0  0  0  0  0  0  0  0  0
    3.2162    0.3478   -1.6895 H   0  0  0  0  0  0  0  0  0  0  0  0
    2.0407   -2.0098   -0.5803 H   0  0  0  0  0  0  0  0  0  0  0  0
   -0.2151   -2.8024   -0.2766 H   0  0  0  0  0  0  0  0  0  0  0  0
    2.5321   -0.5032    1.8797 H   0  0  0  0  0  0  0  0  0  0  0  0
    3.5822    0.9294    1.9303 H   0  0  0  0  0  0  0  0  0  0  0  0
    4.2263   -0.6915    2.2360 H   0  0  0  0  0  0  0  0  0  0  0  0
    5.9151   -0.5826    0.5469 H   0  0  0  0  0  0  0  0  0  0  0  0
    5.4662    1.1048    0.2135 H   0  0  0  0  0  0  0  0  0  0  0  0
    5.5121   -0.0992   -1.0935 H   0  0  0  0  0  0  0  0  0  0  0  0
   -4.4523   -0.7769    0.3315 H   0  0  0  0  0  0  0  0  0  0  0  0
   -3.9814    2.5503    1.2250 H   0  0  0  0  0  0  0  0  0  0  0  0
   -5.1859    1.4969    0.4706 H   0  0  0  0  0  0  0  0  0  0  0  0
   -4.2163    2.5820   -0.5355 H   0  0  0  0  0  0  0  0  0  0  0  0
   -0.1347    2.8009   -0.1799 H   0  0  0  0  0  0  0  0  0  0  0  0
  1  9  1  0  0  0  0
  1 32  1  0  0  0  0
  2 12  2  0  0  0  0
  3  8  1  0  0  0  0
  3 11  1  0  0  0  0
  3 12  1  0  0  0  0
  4  7  1  0  0  0  0
  4 14  1  0  0  0  0
  4 15  1  0  0  0  0
  5  8  2  0  0  0  0
  5 13  1  0  0  0  0
  6  7  1  0  0  0  0
  6  9  2  0  0  0  0
  6 10  1  0  0  0  0
  7 18  1  0  0  0  0
  7 19  1  0  0  0  0
  8  9  1  0  0  0  0
 10 11  2  0  0  0  0
 10 20  1  0  0  0  0
 11 21  1  0  0  0  0
 12 16  1  0  0  0  0
 13 16  2  0  0  0  0
 13 17  1  0  0  0  0
 14 22  1  0  0  0  0
 14 23  1  0  0  0  0
 14 24  1  0  0  0  0
 15 25  1  0  0  0  0
 15 26  1  0  0  0  0
 15 27  1  0  0  0  0
 16 28  1  0  0  0  0
 17 29  1  0  0  0  0
 17 30  1  0  0  0  0
 17 31  1  0  0  0  0
M  END
> <PUBCHEM_COMPOUND_CID>
2827827

> <PUBCHEM_CONFORMER_RMSD>
0.6

> <PUBCHEM_CONFORMER_DIVERSEORDER>
1
2
3

> <PUBCHEM_MMFF94_PARTIAL_CHARGES>
21
1 -0.53
10 -0.15
11 -0.04
12 0.62
13 0.03
14 0.27
15 0.27
16 -0.14
17 0.14
2 -0.57
20 0.15
21 0.15
28 0.15
3 -0.23
32 0.45
4 -0.81
5 -0.62
6 -0.14
7 0.41
8 0.5
9 0.09

> <PUBCHEM_EFFECTIVE_ROTOR_COUNT>
2

> <PUBCHEM_PHARMACOPHORE_FEATURES>
5
1 1 donor
1 2 acceptor
1 4 cation
6 3 5 8 12 13 16 rings
6 3 6 8 9 10 11 rings

> <PUBCHEM_HEAVY_ATOM_COUNT>
17

> <PUBCHEM_ATOM_DEF_STEREO_COUNT>
0

> <PUBCHEM_ATOM_UDEF_STEREO_COUNT>
0

> <PUBCHEM_BOND_DEF_STEREO_COUNT>
0

> <PUBCHEM_BOND_UDEF_STEREO_COUNT>
0

> <PUBCHEM_ISOTOPIC_ATOM_COUNT>
0

> <PUBCHEM_COMPONENT_COUNT>
1

> <PUBCHEM_CACTVS_TAUTO_COUNT>
2

> <PUBCHEM_CONFORMER_ID>
002B263300000001

> <PUBCHEM_MMFF94_ENERGY>
48.5419

> <PUBCHEM_FEATURE_SELFOVERLAP>
25.404

> <PUBCHEM_SHAPE_FINGERPRINT>
10062212 137 18333730242868065747
10493431 412 18269564849401301561
10967382 1 18266465304351968999
11132069 177 18410857637739929980
11680986 33 18269005188923486351
12119455 92 16988840562598663774
12236239 1 17894353276738846348
12251169 10 18335421265934126773
12382932 28 18412264999722705145
12403814 3 17676488320064745717
12500047 106 18342173341297342305
13140716 1 18339367477897075913
13214271 11 18343862225301093054
13380535 76 18412546475105844647
13583140 156 16877662344718280645
13675066 3 18131070459086871446
13760787 19 18113622283216671526
14178342 30 18411699876684929523
14897335 6 18340487764344654247
15196674 1 18411421670062241014
15209294 21 17916311554284354625
15219456 202 18131078086732752038
15375358 24 18201158758684285181
15375462 189 17821721728756513336
15442244 35 18336829804964989380
15536298 74 18199753544122062342
16945 1 18411428314724586735
17804303 29 18413110588736881664
1813 80 17023188159379506758
18186145 218 15913330225716836694
19422 9 18113902718769105158
19784866 170 18337958891732102366
200 152 18059847398811688111
20645477 56 18340772559410309849
21267235 1 18336838570756071447
212916 134 18270949151277026585
21501502 16 18263651834269124757
22182313 1 18129683927405728375
2334 1 18051137183381248269
23366157 5 17825669121371524164
23402539 116 18343576326513413740
23463225 33 18334013887066810190
23557571 272 17988931093089773959
23558518 356 18117565252146742769
23559900 14 18271814471803464622
2748010 2 17904773184809927445
335352 9 18410578340311833708
34934 24 18337388240839100295
5104073 3 18337675312253345344
53812653 166 18271805692130681960
57005193 9 18337386054938052077
573450 72 18334287678268102058
58807428 26 18263360304673942579
77492 1 17821447980288778838
90316 7 18114168705904323100

> <PUBCHEM_SHAPE_MULTIPOLES>
323.17
8.14
2.11
0.84
4.94
0.32
-0.24
-1.5
-1.53
-2.09
0.1
0.67
-0.02
-0.22

> <PUBCHEM_SHAPE_SELFOVERLAP>
684.605

> <PUBCHEM_SHAPE_VOLUME>
180.7

> <PUBCHEM_COORDINATE_TYPE>
2
5
10

$$$$
