49830401
  -OEChem-10052115183D

 74 79  0     0  0  0  0  0  0999 V2000
    5.4641    0.2639   -2.9358 S   0  0  0  0  0  0  0  0  0  0  0  0
   -2.6529    2.6009    2.8417 O   0  0  0  0  0  0  0  0  0  0  0  0
   -1.5974   -0.7258    0.2605 O   0  0  0  0  0  0  0  0  0  0  0  0
    4.1570    0.2937   -0.7296 N   0  0  0  0  0  0  0  0  0  0  0  0
    3.6896   -1.6064   -1.8077 N   0  0  0  0  0  0  0  0  0  0  0  0
    0.1584    2.1383   -2.8349 N   0  0  0  0  0  0  0  0  0  0  0  0
    1.6983    0.8852    1.2795 N   0  0  0  0  0  0  0  0  0  0  0  0
    0.0925    2.1428    2.4310 N   0  0  0  0  0  0  0  0  0  0  0  0
   -1.4170   -3.0145    0.7753 N   0  0  0  0  0  0  0  0  0  0  0  0
    1.8195    1.1593    3.6707 N   0  0  0  0  0  0  0  0  0  0  0  0
    3.2839   -0.3657    0.0803 C   0  0  0  0  0  0  0  0  0  0  0  0
    3.0088   -1.5373   -0.6061 C   0  0  0  0  0  0  0  0  0  0  0  0
    2.1286   -2.5725   -0.1512 C   0  0  0  0  0  0  0  0  0  0  0  0
    4.3580   -0.4867   -1.8270 C   0  0  0  0  0  0  0  0  0  0  0  0
    2.8191    0.1372    1.3457 C   0  0  0  0  0  0  0  0  0  0  0  0
    4.8447    1.4837   -0.7124 C   0  0  0  0  0  0  0  0  0  0  0  0
    0.7843   -2.2891    0.0906 C   0  0  0  0  0  0  0  0  0  0  0  0
   -1.0410    3.1557   -0.9449 C   0  0  0  0  0  0  0  0  0  0  0  0
   -0.4641    3.3578   -2.3209 C   0  0  0  0  0  0  0  0  0  0  0  0
    2.6164   -3.8637    0.0502 C   0  0  0  0  0  0  0  0  0  0  0  0
   -0.7524    2.5576    1.3783 C   0  0  0  0  0  0  0  0  0  0  0  0
   -0.0722   -3.2972    0.5336 C   0  0  0  0  0  0  0  0  0  0  0  0
   -0.2173    2.7458    0.1038 C   0  0  0  0  0  0  0  0  0  0  0  0
    5.5956    1.6330   -1.8170 C   0  0  0  0  0  0  0  0  0  0  0  0
    3.4877   -0.1398    2.5207 C   0  0  0  0  0  0  0  0  0  0  0  0
    1.2600    1.3579    2.4619 C   0  0  0  0  0  0  0  0  0  0  0  0
   -2.1109    2.7794    1.6041 C   0  0  0  0  0  0  0  0  0  0  0  0
   -2.3995    3.3778   -0.7189 C   0  0  0  0  0  0  0  0  0  0  0  0
    1.7600   -4.8716    0.4934 C   0  0  0  0  0  0  0  0  0  0  0  0
    0.4157   -4.5884    0.7350 C   0  0  0  0  0  0  0  0  0  0  0  0
   -2.9345    3.1895    0.5555 C   0  0  0  0  0  0  0  0  0  0  0  0
    2.9367    0.4030    3.6635 C   0  0  0  0  0  0  0  0  0  0  0  0
   -0.8620    1.2033   -3.3071 C   0  0  0  0  0  0  0  0  0  0  0  0
    1.0961    2.4577   -3.9107 C   0  0  0  0  0  0  0  0  0  0  0  0
   -2.0869   -1.7881    0.6309 C   0  0  0  0  0  0  0  0  0  0  0  0
   -3.5555   -1.9202    1.0023 C   0  0  0  0  0  0  0  0  0  0  0  0
   -4.4921   -1.5772   -0.1266 C   0  0  0  0  0  0  0  0  0  0  0  0
   -4.9382   -0.2656   -0.2886 C   0  0  0  0  0  0  0  0  0  0  0  0
   -4.9132   -2.5714   -1.0098 C   0  0  0  0  0  0  0  0  0  0  0  0
   -3.1556    1.3017    3.1469 C   0  0  0  0  0  0  0  0  0  0  0  0
   -5.8055    0.0520   -1.3340 C   0  0  0  0  0  0  0  0  0  0  0  0
   -5.7805   -2.2539   -2.0552 C   0  0  0  0  0  0  0  0  0  0  0  0
   -6.2264   -0.9421   -2.2174 C   0  0  0  0  0  0  0  0  0  0  0  0
    4.7565    2.1770    0.1102 H   0  0  0  0  0  0  0  0  0  0  0  0
    0.4530   -1.2784   -0.1022 H   0  0  0  0  0  0  0  0  0  0  0  0
   -1.2169    3.7490   -3.0185 H   0  0  0  0  0  0  0  0  0  0  0  0
    0.2862    4.1545   -2.2183 H   0  0  0  0  0  0  0  0  0  0  0  0
    3.6619   -4.1015   -0.1319 H   0  0  0  0  0  0  0  0  0  0  0  0
    0.8442    2.6332   -0.0921 H   0  0  0  0  0  0  0  0  0  0  0  0
    6.2246    2.4849   -2.0333 H   0  0  0  0  0  0  0  0  0  0  0  0
    4.3867   -0.7423    2.5589 H   0  0  0  0  0  0  0  0  0  0  0  0
   -0.2653    2.3516    3.3582 H   0  0  0  0  0  0  0  0  0  0  0  0
   -3.0535    3.6953   -1.5265 H   0  0  0  0  0  0  0  0  0  0  0  0
    2.1400   -5.8768    0.6507 H   0  0  0  0  0  0  0  0  0  0  0  0
   -0.2400   -5.3838    1.0801 H   0  0  0  0  0  0  0  0  0  0  0  0
   -3.9939    3.3634    0.7237 H   0  0  0  0  0  0  0  0  0  0  0  0
   -1.9666   -3.8095    1.0933 H   0  0  0  0  0  0  0  0  0  0  0  0
    3.3920    0.2395    4.6345 H   0  0  0  0  0  0  0  0  0  0  0  0
   -1.5328    0.8993   -2.4962 H   0  0  0  0  0  0  0  0  0  0  0  0
   -0.3933    0.2828   -3.6738 H   0  0  0  0  0  0  0  0  0  0  0  0
   -1.4680    1.6226   -4.1187 H   0  0  0  0  0  0  0  0  0  0  0  0
    0.6045    2.9552   -4.7545 H   0  0  0  0  0  0  0  0  0  0  0  0
    1.5810    1.5474   -4.2810 H   0  0  0  0  0  0  0  0  0  0  0  0
    1.8981    3.1082   -3.5437 H   0  0  0  0  0  0  0  0  0  0  0  0
   -3.7415   -1.2617    1.8580 H   0  0  0  0  0  0  0  0  0  0  0  0
   -3.7891   -2.9277    1.3672 H   0  0  0  0  0  0  0  0  0  0  0  0
   -4.6162    0.5189    0.3882 H   0  0  0  0  0  0  0  0  0  0  0  0
   -4.5707   -3.5964   -0.8946 H   0  0  0  0  0  0  0  0  0  0  0  0
   -3.3688    1.2624    4.2187 H   0  0  0  0  0  0  0  0  0  0  0  0
   -2.4185    0.5280    2.9119 H   0  0  0  0  0  0  0  0  0  0  0  0
   -4.0867    1.1239    2.6030 H   0  0  0  0  0  0  0  0  0  0  0  0
   -6.1513    1.0736   -1.4610 H   0  0  0  0  0  0  0  0  0  0  0  0
   -6.1080   -3.0277   -2.7433 H   0  0  0  0  0  0  0  0  0  0  0  0
   -6.9010   -0.6947   -3.0317 H   0  0  0  0  0  0  0  0  0  0  0  0
  1 14  1  0  0  0  0
  1 24  1  0  0  0  0
  2 27  1  0  0  0  0
  2 40  1  0  0  0  0
  3 35  2  0  0  0  0
  4 11  1  0  0  0  0
  4 14  1  0  0  0  0
  4 16  1  0  0  0  0
  5 12  1  0  0  0  0
  5 14  2  0  0  0  0
  6 19  1  0  0  0  0
  6 33  1  0  0  0  0
  6 34  1  0  0  0  0
  7 15  2  0  0  0  0
  7 26  1  0  0  0  0
  8 21  1  0  0  0  0
  8 26  1  0  0  0  0
  8 52  1  0  0  0  0
  9 22  1  0  0  0  0
  9 35  1  0  0  0  0
  9 57  1  0  0  0  0
 10 26  2  0  0  0  0
 10 32  1  0  0  0  0
 11 12  2  0  0  0  0
 11 15  1  0  0  0  0
 12 13  1  0  0  0  0
 13 17  2  0  0  0  0
 13 20  1  0  0  0  0
 15 25  1  0  0  0  0
 16 24  2  0  0  0  0
 16 44  1  0  0  0  0
 17 22  1  0  0  0  0
 17 45  1  0  0  0  0
 18 19  1  0  0  0  0
 18 23  2  0  0  0  0
 18 28  1  0  0  0  0
 19 46  1  0  0  0  0
 19 47  1  0  0  0  0
 20 29  2  0  0  0  0
 20 48  1  0  0  0  0
 21 23  1  0  0  0  0
 21 27  2  0  0  0  0
 22 30  2  0  0  0  0
 23 49  1  0  0  0  0
 24 50  1  0  0  0  0
 25 32  2  0  0  0  0
 25 51  1  0  0  0  0
 27 31  1  0  0  0  0
 28 31  2  0  0  0  0
 28 53  1  0  0  0  0
 29 30  1  0  0  0  0
 29 54  1  0  0  0  0
 30 55  1  0  0  0  0
 31 56  1  0  0  0  0
 32 58  1  0  0  0  0
 33 59  1  0  0  0  0
 33 60  1  0  0  0  0
 33 61  1  0  0  0  0
 34 62  1  0  0  0  0
 34 63  1  0  0  0  0
 34 64  1  0  0  0  0
 35 36  1  0  0  0  0
 36 37  1  0  0  0  0
 36 65  1  0  0  0  0
 36 66  1  0  0  0  0
 37 38  2  0  0  0  0
 37 39  1  0  0  0  0
 38 41  1  0  0  0  0
 38 67  1  0  0  0  0
 39 42  2  0  0  0  0
 39 68  1  0  0  0  0
 40 69  1  0  0  0  0
 40 70  1  0  0  0  0
 40 71  1  0  0  0  0
 41 43  2  0  0  0  0
 41 72  1  0  0  0  0
 42 43  1  0  0  0  0
 42 73  1  0  0  0  0
 43 74  1  0  0  0  0
M  END
> <PUBCHEM_COMPOUND_CID>
49830401

> <PUBCHEM_CONFORMER_RMSD>
1.4

> <PUBCHEM_CONFORMER_DIVERSEORDER>
1
45
151
15
142
233
265
252
71
41
104
24
270
221
106
297
180
244
183
113
276
159
34
100
225
280
227
236
8
217
215
274
85
103
20
114
172
238
169
66
168
204
288
212
53
48
206
259
6
69
99
231
21
82
186
177
81
224
167
249
158
211
131
133
257
16
144
261
272
9
290
51
164
179
109
295
189
220
26
25
47
161
239
137
166
148
229
110
203
208
138
120
250
14
40
119
200
279
298
222
73
234
112
44
155
284
18
115
88
74
194
191
258
58
291
65
123
285
157
228
247
54
105
145
118
83
271
245
43
242
278
190
125
27
197
116
237
146
19
273
187
17
277
46
192
139
170
185
96
52
80
60
263
11
232
10
5
12
253
89
13
289
135
62
143
266
152
64
92
98
176
293
296
3
57
299
140
199
283
33
154
163
301
216
300
246
97
287
56
213
205
149
268
195
28
49
121
165
126
184
42
269
281
256
264
22
214
282
153
2
175
39
90
260
160
171
124
173
162
30
95
201
35
181
267
219
196
141
178
68
255
286
107
210
50
94
182
38
198
91
240
61
136
29
86
193
31
241
59
101
23
117
202
230
262
111
150
122
77
174
67
275
72
156
188
251
87
218
7
130
4
223
32
207
292
75
128
93
132
243
209
79
129
78
108
294
70
36
55
134
248
254
63
127
37
76
102
84
235
226
147

> <PUBCHEM_MMFF94_PARTIAL_CHARGES>
61
1 -0.16
10 -0.62
11 -0.2
12 0.17
13 0.05
14 0.24
15 0.36
16 -0.18
17 -0.15
18 -0.14
19 0.41
2 -0.36
20 -0.15
21 0.1
22 0.12
23 -0.15
24 -0.05
25 -0.15
26 0.72
27 0.08
28 -0.15
29 -0.15
3 -0.57
30 -0.15
31 -0.15
32 0.16
33 0.27
34 0.27
35 0.57
36 0.2
37 -0.14
38 -0.15
39 -0.15
4 0.33
40 0.28
41 -0.15
42 -0.15
43 -0.15
44 0.15
45 0.15
48 0.15
49 0.15
5 -0.57
50 0.15
51 0.15
52 0.4
53 0.15
54 0.15
55 0.15
56 0.15
57 0.37
58 0.15
6 -0.81
67 0.15
68 0.15
7 -0.62
72 0.15
73 0.15
74 0.15
8 -0.6
9 -0.55

> <PUBCHEM_EFFECTIVE_ROTOR_COUNT>
11

> <PUBCHEM_PHARMACOPHORE_FEATURES>
14
1 2 acceptor
1 3 acceptor
1 6 cation
1 7 acceptor
1 8 donor
1 9 donor
3 4 5 14 cation
4 7 8 10 26 cation
5 1 4 14 16 24 rings
5 4 5 11 12 14 rings
6 13 17 20 22 29 30 rings
6 18 21 23 27 28 31 rings
6 37 38 39 41 42 43 rings
6 7 10 15 25 26 32 rings

> <PUBCHEM_HEAVY_ATOM_COUNT>
43

> <PUBCHEM_ATOM_DEF_STEREO_COUNT>
0

> <PUBCHEM_ATOM_UDEF_STEREO_COUNT>
0

> <PUBCHEM_BOND_DEF_STEREO_COUNT>
0

> <PUBCHEM_BOND_UDEF_STEREO_COUNT>
0

> <PUBCHEM_ISOTOPIC_ATOM_COUNT>
0

> <PUBCHEM_COMPONENT_COUNT>
1

> <PUBCHEM_CACTVS_TAUTO_COUNT>
6

> <PUBCHEM_CONFORMER_ID>
02F85A0100000001

> <PUBCHEM_MMFF94_ENERGY>
147

> <PUBCHEM_FEATURE_SELFOVERLAP>
71.302

> <PUBCHEM_SHAPE_FINGERPRINT>
10032420 55 18273498957581466186
10190206 1 18263949755408536548
11093857 51 18336265742757794982
11445158 3 16969729693024640017
11513181 2 18129960965586348495
14400156 266 18195253218452671238
15264996 19 17986972760123561593
15324884 4 17411905368431308594
16067690 210 16298933278762720719
161222 619 17626916988286778336
17809404 112 15575009346250306419
20587220 17 16485830593251206969
20764821 26 18125432021277453123
24941158 1 15194698174440219330
469060 322 18261106327438373581
50150288 127 17630342839222680257
54131252 126 17535714470927890037
6371009 1 18335417937957614270
86090 222 18128518544101780483

> <PUBCHEM_SHAPE_MULTIPOLES>
842.16
11.24
5.75
3.99
6.16
3.33
0.77
2.89
-7.61
1.27
-0.33
-1.6
-3.45
-2.16

> <PUBCHEM_SHAPE_SELFOVERLAP>
1839.953

> <PUBCHEM_SHAPE_VOLUME>
461.2

> <PUBCHEM_COORDINATE_TYPE>
2
5
10

$$$$
