136183413
  -OEChem-10052115143D

 32 35  0     0  0  0  0  0  0999 V2000
    5.3152    1.1511   -0.0011 O   0  0  0  0  0  0  0  0  0  0  0  0
    0.4874    0.3665    0.0003 N   0  0  0  0  0  0  0  0  0  0  0  0
   -3.6509   -1.6902   -0.0016 N   0  0  0  0  0  0  0  0  0  0  0  0
   -2.3516   -2.0421   -0.0016 N   0  0  0  0  0  0  0  0  0  0  0  0
   -2.3702    1.5605    0.0016 N   0  0  0  0  0  0  0  0  0  0  0  0
   -0.2423   -0.7920    0.0005 C   0  0  0  0  0  0  0  0  0  0  0  0
    1.8340    0.0796    0.0003 C   0  0  0  0  0  0  0  0  0  0  0  0
    1.9577   -1.3116    0.0009 C   0  0  0  0  0  0  0  0  0  0  0  0
   -1.7107   -0.8695    0.0001 C   0  0  0  0  0  0  0  0  0  0  0  0
    0.6397   -1.8480    0.0003 C   0  0  0  0  0  0  0  0  0  0  0  0
   -2.5941    0.2244    0.0003 C   0  0  0  0  0  0  0  0  0  0  0  0
   -3.8614   -0.3405   -0.0009 C   0  0  0  0  0  0  0  0  0  0  0  0
    2.9406    0.9362   -0.0003 C   0  0  0  0  0  0  0  0  0  0  0  0
    3.2479   -1.8776    0.0017 C   0  0  0  0  0  0  0  0  0  0  0  0
    4.2104    0.3520   -0.0002 C   0  0  0  0  0  0  0  0  0  0  0  0
    4.3641   -1.0330    0.0008 C   0  0  0  0  0  0  0  0  0  0  0  0
   -5.0106    0.4443   -0.0012 C   0  0  0  0  0  0  0  0  0  0  0  0
   -4.8011    1.8212    0.0005 C   0  0  0  0  0  0  0  0  0  0  0  0
   -3.4986    2.3091    0.0015 C   0  0  0  0  0  0  0  0  0  0  0  0
    5.0944    2.5597   -0.0020 C   0  0  0  0  0  0  0  0  0  0  0  0
    0.1002    1.3003    0.0000 H   0  0  0  0  0  0  0  0  0  0  0  0
    0.3794   -2.8985    0.0002 H   0  0  0  0  0  0  0  0  0  0  0  0
    2.7564    2.0032   -0.0009 H   0  0  0  0  0  0  0  0  0  0  0  0
    3.3822   -2.9556    0.0023 H   0  0  0  0  0  0  0  0  0  0  0  0
    5.3596   -1.4704    0.0010 H   0  0  0  0  0  0  0  0  0  0  0  0
   -4.3454   -2.4268   -0.0025 H   0  0  0  0  0  0  0  0  0  0  0  0
   -6.0051    0.0151   -0.0022 H   0  0  0  0  0  0  0  0  0  0  0  0
   -5.6442    2.5043    0.0007 H   0  0  0  0  0  0  0  0  0  0  0  0
   -3.3246    3.3818    0.0026 H   0  0  0  0  0  0  0  0  0  0  0  0
    6.0782    3.0405   -0.0027 H   0  0  0  0  0  0  0  0  0  0  0  0
    4.5805    2.8883    0.9078 H   0  0  0  0  0  0  0  0  0  0  0  0
    4.5800    2.8870   -0.9120 H   0  0  0  0  0  0  0  0  0  0  0  0
  1 15  1  0  0  0  0
  1 20  1  0  0  0  0
  2  6  1  0  0  0  0
  2  7  1  0  0  0  0
  2 21  1  0  0  0  0
  3  4  1  0  0  0  0
  3 12  1  0  0  0  0
  3 26  1  0  0  0  0
  4  9  2  0  0  0  0
  5 11  1  0  0  0  0
  5 19  2  0  0  0  0
  6  9  1  0  0  0  0
  6 10  2  0  0  0  0
  7  8  2  0  0  0  0
  7 13  1  0  0  0  0
  8 10  1  0  0  0  0
  8 14  1  0  0  0  0
  9 11  1  0  0  0  0
 10 22  1  0  0  0  0
 11 12  2  0  0  0  0
 12 17  1  0  0  0  0
 13 15  2  0  0  0  0
 13 23  1  0  0  0  0
 14 16  2  0  0  0  0
 14 24  1  0  0  0  0
 15 16  1  0  0  0  0
 16 25  1  0  0  0  0
 17 18  2  0  0  0  0
 17 27  1  0  0  0  0
 18 19  1  0  0  0  0
 18 28  1  0  0  0  0
 19 29  1  0  0  0  0
 20 30  1  0  0  0  0
 20 31  1  0  0  0  0
 20 32  1  0  0  0  0
M  END
> <PUBCHEM_COMPOUND_CID>
136183413

> <PUBCHEM_CONFORMER_RMSD>
0.6

> <PUBCHEM_CONFORMER_DIVERSEORDER>
1
7
8
6
2
3
5
4

> <PUBCHEM_MMFF94_PARTIAL_CHARGES>
28
1 -0.36
10 -0.15
11 0.26
12 -0.15
13 -0.15
14 -0.15
15 0.08
16 -0.15
17 -0.15
18 -0.15
19 0.16
2 0.03
20 0.28
21 0.27
22 0.15
23 0.15
24 0.15
25 0.15
26 0.27
27 0.15
28 0.15
29 0.15
3 0.3
4 -0.71
5 -0.57
6 -0.15
7 -0.15
9 0.29

> <PUBCHEM_EFFECTIVE_ROTOR_COUNT>
2

> <PUBCHEM_PHARMACOPHORE_FEATURES>
10
1 1 acceptor
1 2 cation
1 2 donor
1 3 donor
1 4 acceptor
1 5 acceptor
5 2 6 7 8 10 rings
5 3 4 9 11 12 rings
6 5 11 12 17 18 19 rings
6 7 8 13 14 15 16 rings

> <PUBCHEM_HEAVY_ATOM_COUNT>
20

> <PUBCHEM_ATOM_DEF_STEREO_COUNT>
0

> <PUBCHEM_ATOM_UDEF_STEREO_COUNT>
0

> <PUBCHEM_BOND_DEF_STEREO_COUNT>
0

> <PUBCHEM_BOND_UDEF_STEREO_COUNT>
0

> <PUBCHEM_ISOTOPIC_ATOM_COUNT>
0

> <PUBCHEM_COMPONENT_COUNT>
1

> <PUBCHEM_CACTVS_TAUTO_COUNT>
-1

> <PUBCHEM_CONFORMER_ID>
081DFE7500000001

> <PUBCHEM_MMFF94_ENERGY>
46.355

> <PUBCHEM_FEATURE_SELFOVERLAP>
50.948

> <PUBCHEM_SHAPE_FINGERPRINT>
10 15 18187087281828709208
10014705 185 18408039598444612517
10411042 1 17473826607005419907
10595046 47 18411978087439035343
10608611 8 18411698768567354331
10646746 165 18411420583551436214
11405975 8 18335419024257007018
11595378 159 17095792235896660524
12107183 9 17832419796073656970
12390115 104 18270135576875734073
12403259 415 18059573654533608120
12596602 18 17168141273313914553
12788726 201 17345760664000717985
14341114 176 18408892823398776049
14528608 73 18412826906415837596
14739800 52 18268409365780817280
14790565 3 18192436488156741892
15188451 53 15792307011175840571
15196674 1 18410855451543514947
15239154 128 18410576175822272388
17844677 252 18411709767978566914
17959699 21 18411982442630741240
1813 80 16660368056248387886
200 152 17775559819770223719
20645477 56 18335986389483819821
20645477 70 17274831190499398414
21065198 57 18410012104830009562
21267235 1 18338526252490797331
21304253 335 18334018315352432540
21315764 268 18261105223457763700
21421861 104 17750784459953258434
21452121 103 18412537718157943770
21652331 79 18409166593283473869
23227448 37 18411980273793433261
23402539 116 18342167835550163287
23402655 69 18343581845778516942
23559900 14 18199466567751473518
245318 6 17027140044503774028
268830 7 18187915171366716794
2838139 119 17972587802521779613
335352 9 18338516323101402838
34797466 226 17846226582679752044
350125 39 18340490070942578281
3545911 37 18410858745788725261
4073 2 18041003977304619978
4214541 1 18410856529590849255
474 4 17749395896567336660
5104073 3 18334296448327538026
633830 44 18409725149675613014
636775 72 17764588017151232904
77779 3 18410856546813195790
7808743 9 18267018547948586640
90127 26 18335995198330206618
9709674 26 18412550881547644159
9981440 41 18261673769801077482

> <PUBCHEM_SHAPE_MULTIPOLES>
385.8
11.99
2.51
0.59
1.87
0.66
0
6.12
0
0.52
0
0.01
0
0

> <PUBCHEM_SHAPE_SELFOVERLAP>
876.676

> <PUBCHEM_SHAPE_VOLUME>
202

> <PUBCHEM_COORDINATE_TYPE>
2
5
10

$$$$
