49830613
  -OEChem-10062121553D

 56 59  0     0  0  0  0  0  0999 V2000
    0.1714   -2.4953   -1.9980 F   0  0  0  0  0  0  0  0  0  0  0  0
   -2.8311   -4.5911    0.9944 F   0  0  0  0  0  0  0  0  0  0  0  0
   -5.4458   -0.1973   -0.1916 O   0  0  0  0  0  0  0  0  0  0  0  0
   -2.8058    2.0584    0.2876 N   0  0  0  0  0  0  0  0  0  0  0  0
    2.7334    0.5930    0.0406 N   0  0  0  0  0  0  0  0  0  0  0  0
    2.6367   -1.5743   -0.4811 N   0  0  0  0  0  0  0  0  0  0  0  0
   -0.6533    1.1299    0.3879 N   0  0  0  0  0  0  0  0  0  0  0  0
   -1.4490    2.6001    2.1238 N   0  0  0  0  0  0  0  0  0  0  0  0
    5.3164    0.8324   -0.9575 N   0  0  0  0  0  0  0  0  0  0  0  0
   -4.5222    1.6866   -1.4485 C   0  0  0  0  0  0  0  0  0  0  0  0
   -3.0847    1.4003   -0.9501 C   0  0  0  0  0  0  0  0  0  0  0  0
   -5.5882    1.1948   -0.4442 C   0  0  0  0  0  0  0  0  0  0  0  0
   -4.7217    3.1946   -1.6887 C   0  0  0  0  0  0  0  0  0  0  0  0
   -4.7101    0.9513   -2.7920 C   0  0  0  0  0  0  0  0  0  0  0  0
    1.4966    0.1713    0.4387 C   0  0  0  0  0  0  0  0  0  0  0  0
   -1.5752    1.9228    0.9666 C   0  0  0  0  0  0  0  0  0  0  0  0
    1.4609   -1.1671    0.1064 C   0  0  0  0  0  0  0  0  0  0  0  0
    3.3746   -0.4902   -0.5030 C   0  0  0  0  0  0  0  0  0  0  0  0
    0.5100    1.0231    1.0631 C   0  0  0  0  0  0  0  0  0  0  0  0
    3.3724    1.8172    0.0951 C   0  0  0  0  0  0  0  0  0  0  0  0
    4.7136   -0.3260   -1.0100 C   0  0  0  0  0  0  0  0  0  0  0  0
    0.3551   -2.0497    0.3311 C   0  0  0  0  0  0  0  0  0  0  0  0
    4.6280    1.9086   -0.3966 C   0  0  0  0  0  0  0  0  0  0  0  0
    0.7649    1.6653    2.2577 C   0  0  0  0  0  0  0  0  0  0  0  0
   -0.2613    2.4483    2.7456 C   0  0  0  0  0  0  0  0  0  0  0  0
    5.4157   -1.5121   -1.6060 C   0  0  0  0  0  0  0  0  0  0  0  0
   -0.2598   -2.6924   -0.7434 C   0  0  0  0  0  0  0  0  0  0  0  0
   -0.1064   -2.2656    1.6297 C   0  0  0  0  0  0  0  0  0  0  0  0
    5.3821    3.2041   -0.3710 C   0  0  0  0  0  0  0  0  0  0  0  0
   -1.3362   -3.5508   -0.5194 C   0  0  0  0  0  0  0  0  0  0  0  0
   -1.1830   -3.1238    1.8537 C   0  0  0  0  0  0  0  0  0  0  0  0
   -1.7979   -3.7665    0.7791 C   0  0  0  0  0  0  0  0  0  0  0  0
   -2.3665    1.7342   -1.7106 H   0  0  0  0  0  0  0  0  0  0  0  0
   -2.9455    0.3175   -0.8354 H   0  0  0  0  0  0  0  0  0  0  0  0
   -6.5959    1.3633   -0.8412 H   0  0  0  0  0  0  0  0  0  0  0  0
   -5.5157    1.7241    0.5116 H   0  0  0  0  0  0  0  0  0  0  0  0
   -3.9607    3.5899   -2.3709 H   0  0  0  0  0  0  0  0  0  0  0  0
   -5.7022    3.3934   -2.1368 H   0  0  0  0  0  0  0  0  0  0  0  0
   -4.6692    3.7701   -0.7588 H   0  0  0  0  0  0  0  0  0  0  0  0
   -5.7212    1.1019   -3.1870 H   0  0  0  0  0  0  0  0  0  0  0  0
   -4.0027    1.3176   -3.5447 H   0  0  0  0  0  0  0  0  0  0  0  0
   -4.5507   -0.1275   -2.6869 H   0  0  0  0  0  0  0  0  0  0  0  0
   -3.4924    2.6554    0.7324 H   0  0  0  0  0  0  0  0  0  0  0  0
   -6.1439   -0.4462    0.4378 H   0  0  0  0  0  0  0  0  0  0  0  0
    2.8447    2.6606    0.5222 H   0  0  0  0  0  0  0  0  0  0  0  0
    1.6997    1.5671    2.7955 H   0  0  0  0  0  0  0  0  0  0  0  0
   -0.1543    2.9902    3.6792 H   0  0  0  0  0  0  0  0  0  0  0  0
    4.8434   -1.8876   -2.4592 H   0  0  0  0  0  0  0  0  0  0  0  0
    5.5009   -2.3040   -0.8563 H   0  0  0  0  0  0  0  0  0  0  0  0
    6.4176   -1.2342   -1.9447 H   0  0  0  0  0  0  0  0  0  0  0  0
    0.3632   -1.7826    2.4835 H   0  0  0  0  0  0  0  0  0  0  0  0
    6.3043    3.0947    0.2091 H   0  0  0  0  0  0  0  0  0  0  0  0
    4.7979    4.0138    0.0788 H   0  0  0  0  0  0  0  0  0  0  0  0
    5.6475    3.5085   -1.3888 H   0  0  0  0  0  0  0  0  0  0  0  0
   -1.8152   -4.0509   -1.3558 H   0  0  0  0  0  0  0  0  0  0  0  0
   -1.5417   -3.2934    2.8646 H   0  0  0  0  0  0  0  0  0  0  0  0
  1 27  1  0  0  0  0
  2 32  1  0  0  0  0
  3 12  1  0  0  0  0
  3 44  1  0  0  0  0
  4 11  1  0  0  0  0
  4 16  1  0  0  0  0
  4 43  1  0  0  0  0
  5 15  1  0  0  0  0
  5 18  1  0  0  0  0
  5 20  1  0  0  0  0
  6 17  1  0  0  0  0
  6 18  2  0  0  0  0
  7 16  1  0  0  0  0
  7 19  2  0  0  0  0
  8 16  2  0  0  0  0
  8 25  1  0  0  0  0
  9 21  2  0  0  0  0
  9 23  1  0  0  0  0
 10 11  1  0  0  0  0
 10 12  1  0  0  0  0
 10 13  1  0  0  0  0
 10 14  1  0  0  0  0
 11 33  1  0  0  0  0
 11 34  1  0  0  0  0
 12 35  1  0  0  0  0
 12 36  1  0  0  0  0
 13 37  1  0  0  0  0
 13 38  1  0  0  0  0
 13 39  1  0  0  0  0
 14 40  1  0  0  0  0
 14 41  1  0  0  0  0
 14 42  1  0  0  0  0
 15 17  2  0  0  0  0
 15 19  1  0  0  0  0
 17 22  1  0  0  0  0
 18 21  1  0  0  0  0
 19 24  1  0  0  0  0
 20 23  2  0  0  0  0
 20 45  1  0  0  0  0
 21 26  1  0  0  0  0
 22 27  2  0  0  0  0
 22 28  1  0  0  0  0
 23 29  1  0  0  0  0
 24 25  2  0  0  0  0
 24 46  1  0  0  0  0
 25 47  1  0  0  0  0
 26 48  1  0  0  0  0
 26 49  1  0  0  0  0
 26 50  1  0  0  0  0
 27 30  1  0  0  0  0
 28 31  2  0  0  0  0
 28 51  1  0  0  0  0
 29 52  1  0  0  0  0
 29 53  1  0  0  0  0
 29 54  1  0  0  0  0
 30 32  2  0  0  0  0
 30 55  1  0  0  0  0
 31 32  1  0  0  0  0
 31 56  1  0  0  0  0
M  END
> <PUBCHEM_COMPOUND_CID>
49830613

> <PUBCHEM_CONFORMER_RMSD>
0.8

> <PUBCHEM_CONFORMER_DIVERSEORDER>
1
155
243
93
123
248
18
195
210
103
214
177
145
113
148
112
273
285
42
244
76
208
261
278
118
147
152
122
15
239
160
80
120
225
8
282
167
259
73
241
111
128
204
202
137
87
104
53
91
63
19
191
149
223
35
206
143
213
32
97
263
4
6
151
198
146
240
171
201
36
153
255
220
275
193
180
242
50
170
2
218
166
134
92
233
252
179
162
262
110
45
253
221
140
58
165
70
222
126
57
209
224
82
284
174
270
88
276
219
186
283
86
34
85
129
106
266
141
54
10
212
277
17
7
77
158
81
256
121
194
231
139
286
79
217
234
184
154
265
178
250
205
56
100
3
164
49
254
207
229
24
245
99
98
246
51
156
22
115
235
190
226
11
13
237
135
55
274
280
117
232
199
192
176
108
236
216
39
258
74
230
159
46
27
188
197
215
5
20
287
161
94
181
251
272
144
249
228
133
60
31
183
169
69
48
107
196
175
43
9
203
52
260
114
47
84
101
271
268
227
78
29
109
238
168
264
119
68
124
142
182
281
105
33
131
65
127
64
211
132
96
102
83
247
267
61
95
44
59
187
75
257
157
67
90
138
130
185
14
72
71
16
269
116
172
66
40
12
279
25
21
41
173
163
30
38
62
125
28
150
37
189
23
136
200
89
26

> <PUBCHEM_MMFF94_PARTIAL_CHARGES>
37
1 -0.19
11 0.37
12 0.28
15 -0.2
16 0.72
17 0.17
18 0.1
19 0.36
2 -0.19
20 -0.18
21 0.47
22 0.05
23 0.03
24 -0.15
25 0.16
26 0.06
27 0.19
28 -0.15
29 0.14
3 -0.68
30 -0.15
31 -0.15
32 0.19
4 -0.87
43 0.4
44 0.4
45 0.15
46 0.15
47 0.15
5 0.33
51 0.15
55 0.15
56 0.15
6 -0.57
7 -0.62
8 -0.62
9 -0.62

> <PUBCHEM_EFFECTIVE_ROTOR_COUNT>
6

> <PUBCHEM_PHARMACOPHORE_FEATURES>
12
1 3 acceptor
1 3 donor
1 4 donor
1 7 acceptor
1 9 acceptor
3 10 13 14 hydrophobe
3 5 6 18 cation
4 4 7 8 16 cation
5 5 6 15 17 18 rings
6 22 27 28 30 31 32 rings
6 5 9 18 20 21 23 rings
6 7 8 16 19 24 25 rings

> <PUBCHEM_HEAVY_ATOM_COUNT>
32

> <PUBCHEM_ATOM_DEF_STEREO_COUNT>
0

> <PUBCHEM_ATOM_UDEF_STEREO_COUNT>
0

> <PUBCHEM_BOND_DEF_STEREO_COUNT>
0

> <PUBCHEM_BOND_UDEF_STEREO_COUNT>
0

> <PUBCHEM_ISOTOPIC_ATOM_COUNT>
0

> <PUBCHEM_COMPONENT_COUNT>
1

> <PUBCHEM_CACTVS_TAUTO_COUNT>
3

> <PUBCHEM_CONFORMER_ID>
02F85AD500000001

> <PUBCHEM_MMFF94_ENERGY>
90.7653

> <PUBCHEM_FEATURE_SELFOVERLAP>
61.014

> <PUBCHEM_SHAPE_FINGERPRINT>
10688039 33 17829339325217516883
11582403 64 17167856431177821640
12156800 1 18047442776681971249
12553582 1 17558809729843885773
12741549 16 17248353030261696055
12788726 201 17917713444309729616
13402501 40 18411141381346031619
13583140 156 17604446158171431768
14279260 333 18058448691041049254
15775530 1 17696170879171007569
17138139 8 18058427868880601709
17909252 39 17059766711758320678
17980427 23 12974471949738111129
18603816 31 14473906614323609630
19319366 153 18270382902905227831
20587220 17 17767999466708170201
20775438 99 17056640941707693044
21304303 282 17459458038997872176
21344244 181 18131357384103268399
21641784 216 17684955861031896564
238 59 18192713341368080553
3493558 16 17826238672319804293
352729 6 18129962091447605714
4058900 60 18118125771201513125
4258327 124 17751100174340875996
437795 51 18343584062546111521
4409770 3 18342466988206510786
44802255 64 17677354735512601198
484989 97 18341621433605014910
5171179 24 17411330323242943361
5283173 99 18335701710429987682
6376802 137 17059491808540717314

> <PUBCHEM_SHAPE_MULTIPOLES>
608.24
11.13
5.15
2.22
0.72
4.51
-0.47
-8.62
8.53
-2.81
-1.19
-1.43
-0.79
2.08

> <PUBCHEM_SHAPE_SELFOVERLAP>
1328.691

> <PUBCHEM_SHAPE_VOLUME>
333.7

> <PUBCHEM_COORDINATE_TYPE>
2
5
10

$$$$
