49830955
  -OEChem-10062121543D

 36 37  0     0  0  0  0  0  0999 V2000
   -4.4280    1.9706   -0.1795 Cl  0  0  0  0  0  0  0  0  0  0  0  0
   -4.3118   -1.0352   -0.2560 O   0  0  0  0  0  0  0  0  0  0  0  0
    2.7858   -1.4942   -0.0039 N   0  0  0  0  0  0  0  0  0  0  0  0
    2.9689    1.2773    0.0789 N   0  0  0  0  0  0  0  0  0  0  0  0
    0.4225   -1.3354   -0.0871 N   0  0  0  0  0  0  0  0  0  0  0  0
    0.6052    1.4358   -0.0053 N   0  0  0  0  0  0  0  0  0  0  0  0
    1.6115   -0.7093   -0.0257 C   0  0  0  0  0  0  0  0  0  0  0  0
    1.7016    0.6566    0.0148 C   0  0  0  0  0  0  0  0  0  0  0  0
   -0.6857   -0.5742   -0.1079 C   0  0  0  0  0  0  0  0  0  0  0  0
   -0.5931    0.8291   -0.0665 C   0  0  0  0  0  0  0  0  0  0  0  0
   -1.9439   -1.1686   -0.1710 C   0  0  0  0  0  0  0  0  0  0  0  0
    2.7635   -2.9225   -0.0436 C   0  0  0  0  0  0  0  0  0  0  0  0
    3.1350    2.6960    0.1237 C   0  0  0  0  0  0  0  0  0  0  0  0
   -1.7621    1.5861   -0.0898 C   0  0  0  0  0  0  0  0  0  0  0  0
   -3.1075   -0.4019   -0.1939 C   0  0  0  0  0  0  0  0  0  0  0  0
   -3.0164    0.9814   -0.1531 C   0  0  0  0  0  0  0  0  0  0  0  0
    4.1787   -3.4675   -0.0287 C   0  0  0  0  0  0  0  0  0  0  0  0
    4.6080    3.0468    0.2107 C   0  0  0  0  0  0  0  0  0  0  0  0
   -4.9322   -1.3708    0.9839 C   0  0  0  0  0  0  0  0  0  0  0  0
    3.5909   -1.0571    0.4334 H   0  0  0  0  0  0  0  0  0  0  0  0
    3.7370    0.7344   -0.3026 H   0  0  0  0  0  0  0  0  0  0  0  0
   -2.0213   -2.2542   -0.2040 H   0  0  0  0  0  0  0  0  0  0  0  0
    2.2585   -3.2709   -0.9519 H   0  0  0  0  0  0  0  0  0  0  0  0
    2.2169   -3.3207    0.8190 H   0  0  0  0  0  0  0  0  0  0  0  0
    2.6186    3.1130    0.9960 H   0  0  0  0  0  0  0  0  0  0  0  0
    2.7083    3.1596   -0.7732 H   0  0  0  0  0  0  0  0  0  0  0  0
   -1.6880    2.6723   -0.0577 H   0  0  0  0  0  0  0  0  0  0  0  0
    4.7518   -3.0980   -0.8859 H   0  0  0  0  0  0  0  0  0  0  0  0
    4.7079   -3.1667    0.8819 H   0  0  0  0  0  0  0  0  0  0  0  0
    4.1674   -4.5611   -0.0706 H   0  0  0  0  0  0  0  0  0  0  0  0
    5.0650    2.6080    1.1042 H   0  0  0  0  0  0  0  0  0  0  0  0
    5.1547    2.6736   -0.6620 H   0  0  0  0  0  0  0  0  0  0  0  0
    4.7401    4.1322    0.2569 H   0  0  0  0  0  0  0  0  0  0  0  0
   -5.9127   -1.8046    0.7692 H   0  0  0  0  0  0  0  0  0  0  0  0
   -5.0721   -0.4828    1.6080 H   0  0  0  0  0  0  0  0  0  0  0  0
   -4.3318   -2.1129    1.5196 H   0  0  0  0  0  0  0  0  0  0  0  0
  1 16  1  0  0  0  0
  2 15  1  0  0  0  0
  2 19  1  0  0  0  0
  3  7  1  0  0  0  0
  3 12  1  0  0  0  0
  3 20  1  0  0  0  0
  4  8  1  0  0  0  0
  4 13  1  0  0  0  0
  4 21  1  0  0  0  0
  5  7  2  0  0  0  0
  5  9  1  0  0  0  0
  6  8  2  0  0  0  0
  6 10  1  0  0  0  0
  7  8  1  0  0  0  0
  9 10  1  0  0  0  0
  9 11  2  0  0  0  0
 10 14  2  0  0  0  0
 11 15  1  0  0  0  0
 11 22  1  0  0  0  0
 12 17  1  0  0  0  0
 12 23  1  0  0  0  0
 12 24  1  0  0  0  0
 13 18  1  0  0  0  0
 13 25  1  0  0  0  0
 13 26  1  0  0  0  0
 14 16  1  0  0  0  0
 14 27  1  0  0  0  0
 15 16  2  0  0  0  0
 17 28  1  0  0  0  0
 17 29  1  0  0  0  0
 17 30  1  0  0  0  0
 18 31  1  0  0  0  0
 18 32  1  0  0  0  0
 18 33  1  0  0  0  0
 19 34  1  0  0  0  0
 19 35  1  0  0  0  0
 19 36  1  0  0  0  0
M  END
> <PUBCHEM_COMPOUND_CID>
49830955

> <PUBCHEM_CONFORMER_RMSD>
0.8

> <PUBCHEM_CONFORMER_DIVERSEORDER>
1
3
2

> <PUBCHEM_MMFF94_PARTIAL_CHARGES>
21
1 -0.18
10 0.31
11 -0.15
12 0.37
13 0.37
14 -0.15
15 0.08
16 0.18
19 0.28
2 -0.36
20 0.4
21 0.4
22 0.15
27 0.15
3 -0.87
4 -0.87
5 -0.62
6 -0.62
7 0.41
8 0.41
9 0.31

> <PUBCHEM_EFFECTIVE_ROTOR_COUNT>
5

> <PUBCHEM_PHARMACOPHORE_FEATURES>
7
1 2 acceptor
1 3 donor
1 4 donor
3 3 5 7 cation
3 4 6 8 cation
6 5 6 7 8 9 10 rings
6 9 10 11 14 15 16 rings

> <PUBCHEM_HEAVY_ATOM_COUNT>
19

> <PUBCHEM_ATOM_DEF_STEREO_COUNT>
0

> <PUBCHEM_ATOM_UDEF_STEREO_COUNT>
0

> <PUBCHEM_BOND_DEF_STEREO_COUNT>
0

> <PUBCHEM_BOND_UDEF_STEREO_COUNT>
0

> <PUBCHEM_ISOTOPIC_ATOM_COUNT>
0

> <PUBCHEM_COMPONENT_COUNT>
1

> <PUBCHEM_CACTVS_TAUTO_COUNT>
4

> <PUBCHEM_CONFORMER_ID>
02F85C2B00000001

> <PUBCHEM_MMFF94_ENERGY>
70.8909

> <PUBCHEM_FEATURE_SELFOVERLAP>
35.611

> <PUBCHEM_SHAPE_FINGERPRINT>
10608611 8 18409444774199792045
10967382 1 18338796831018965829
1100329 8 17909271278020874760
11405975 8 18339645529942769489
12390115 104 18199205012727794745
12507560 40 18408325484532188149
12592029 89 18339361976307402176
12839892 36 18194945560668625394
12916754 54 18410857629693522211
13140716 1 18339088073331738361
13540713 4 18260544507461946325
138480 1 18267020566604035198
13955234 65 18412265068927764842
14790565 3 17906178699756993481
15042514 8 17402047799863679570
15196674 1 18410573972862719701
15442244 35 18268430139835805729
15536298 74 18413106151872011212
15927050 60 18196933499731333846
16945 1 18196925785289100813
17492 89 18410292506318298771
17804303 29 18265338300480574631
18186145 218 17676485000054934615
18785283 64 18334856147818812504
19591789 44 17401770116941787795
20286276 3 18409736127616704891
20510252 161 18342179998913772545
20600515 1 17697038037974537536
20645477 70 18337379492297037471
21065198 57 18338234860755905377
21267235 1 18410864264843150414
21501502 16 18341892974480294213
21618674 54 18410570708455752061
221490 88 18408890602784866915
23366157 5 18187083940908174188
23559900 14 18339353046664315546
23566358 27 18412542137125851782
2748010 2 18409442562328239709
3071541 12 18411136909888989116
3091708 16 9433570631825409650
314173 41 18123191199622072598
335352 9 18122624955686724285
43471831 8 18266454489777252848
458136 41 18339367486544863744
474229 33 18120372317842784464
5104073 3 18408043992270140081
59755656 215 18409451423014660980
6138700 20 18411423896068298636
7364860 26 18412261727569535726
8809292 202 18189904119435172507
9709674 26 18407760339444569659
9981440 41 18193832863438600864

> <PUBCHEM_SHAPE_MULTIPOLES>
367.09
9.57
3.78
0.67
3.02
0.47
0.05
0.06
0.93
-6.22
0.16
0.29
0.06
0.75

> <PUBCHEM_SHAPE_SELFOVERLAP>
762.603

> <PUBCHEM_SHAPE_VOLUME>
211.8

> <PUBCHEM_COORDINATE_TYPE>
2
5
10

$$$$
