25167078
  -OEChem-10052115143D

 36 39  0     0  0  0  0  0  0999 V2000
   -1.1162   -3.3817    0.7705 S   0  0  0  0  0  0  0  0  0  0  0  0
   -2.7482   -1.8443   -0.6601 N   0  0  0  0  0  0  0  0  0  0  0  0
    5.3035    1.3193   -0.1086 N   0  0  0  0  0  0  0  0  0  0  0  0
   -0.4935   -1.1740   -0.4212 N   0  0  0  0  0  0  0  0  0  0  0  0
    4.8745    2.5874   -0.2224 N   0  0  0  0  0  0  0  0  0  0  0  0
    1.8932   -0.9402    0.1274 C   0  0  0  0  0  0  0  0  0  0  0  0
    3.1194    1.1263   -0.0735 C   0  0  0  0  0  0  0  0  0  0  0  0
    4.2995    0.3935   -0.0150 C   0  0  0  0  0  0  0  0  0  0  0  0
    1.8878    0.4543   -0.0017 C   0  0  0  0  0  0  0  0  0  0  0  0
    0.6441   -1.6468    0.2036 C   0  0  0  0  0  0  0  0  0  0  0  0
    3.0931   -1.6515    0.1839 C   0  0  0  0  0  0  0  0  0  0  0  0
    4.3271   -0.9968    0.1136 C   0  0  0  0  0  0  0  0  0  0  0  0
   -3.1862   -0.7241   -1.4847 C   0  0  0  0  0  0  0  0  0  0  0  0
   -3.6483    0.4170   -0.6215 C   0  0  0  0  0  0  0  0  0  0  0  0
   -1.4829   -2.0080   -0.1901 C   0  0  0  0  0  0  0  0  0  0  0  0
    3.5453    2.4660   -0.2009 C   0  0  0  0  0  0  0  0  0  0  0  0
    0.5024   -2.8295    0.8989 C   0  0  0  0  0  0  0  0  0  0  0  0
   -4.9850    0.4990   -0.2310 C   0  0  0  0  0  0  0  0  0  0  0  0
   -2.7405    1.3930   -0.2103 C   0  0  0  0  0  0  0  0  0  0  0  0
   -5.4137    1.5571    0.5704 C   0  0  0  0  0  0  0  0  0  0  0  0
   -3.1694    2.4511    0.5912 C   0  0  0  0  0  0  0  0  0  0  0  0
   -4.5061    2.5330    0.9815 C   0  0  0  0  0  0  0  0  0  0  0  0
    0.9616    1.0208   -0.0416 H   0  0  0  0  0  0  0  0  0  0  0  0
    3.1123   -2.7363    0.2646 H   0  0  0  0  0  0  0  0  0  0  0  0
   -4.0100   -1.0593   -2.1267 H   0  0  0  0  0  0  0  0  0  0  0  0
   -2.3924   -0.3988   -2.1692 H   0  0  0  0  0  0  0  0  0  0  0  0
    5.2603   -1.5475    0.1528 H   0  0  0  0  0  0  0  0  0  0  0  0
   -3.4616   -2.5284   -0.4219 H   0  0  0  0  0  0  0  0  0  0  0  0
    2.9403    3.3583   -0.2788 H   0  0  0  0  0  0  0  0  0  0  0  0
    6.3018    1.1515   -0.1008 H   0  0  0  0  0  0  0  0  0  0  0  0
    1.2250   -3.3908    1.4749 H   0  0  0  0  0  0  0  0  0  0  0  0
   -5.7016   -0.2561   -0.5429 H   0  0  0  0  0  0  0  0  0  0  0  0
   -1.6980    1.3472   -0.5120 H   0  0  0  0  0  0  0  0  0  0  0  0
   -6.4543    1.6207    0.8749 H   0  0  0  0  0  0  0  0  0  0  0  0
   -2.4629    3.2118    0.9100 H   0  0  0  0  0  0  0  0  0  0  0  0
   -4.8400    3.3569    1.6054 H   0  0  0  0  0  0  0  0  0  0  0  0
  1 15  1  0  0  0  0
  1 17  1  0  0  0  0
  2 13  1  0  0  0  0
  2 15  1  0  0  0  0
  2 28  1  0  0  0  0
  3  5  1  0  0  0  0
  3  8  1  0  0  0  0
  3 30  1  0  0  0  0
  4 10  1  0  0  0  0
  4 15  2  0  0  0  0
  5 16  2  0  0  0  0
  6  9  2  0  0  0  0
  6 10  1  0  0  0  0
  6 11  1  0  0  0  0
  7  8  2  0  0  0  0
  7  9  1  0  0  0  0
  7 16  1  0  0  0  0
  8 12  1  0  0  0  0
  9 23  1  0  0  0  0
 10 17  2  0  0  0  0
 11 12  2  0  0  0  0
 11 24  1  0  0  0  0
 12 27  1  0  0  0  0
 13 14  1  0  0  0  0
 13 25  1  0  0  0  0
 13 26  1  0  0  0  0
 14 18  2  0  0  0  0
 14 19  1  0  0  0  0
 16 29  1  0  0  0  0
 17 31  1  0  0  0  0
 18 20  1  0  0  0  0
 18 32  1  0  0  0  0
 19 21  2  0  0  0  0
 19 33  1  0  0  0  0
 20 22  2  0  0  0  0
 20 34  1  0  0  0  0
 21 22  1  0  0  0  0
 21 35  1  0  0  0  0
 22 36  1  0  0  0  0
M  END
> <PUBCHEM_COMPOUND_CID>
25167078

> <PUBCHEM_CONFORMER_RMSD>
0.6

> <PUBCHEM_CONFORMER_DIVERSEORDER>
3
60
41
118
92
63
43
59
103
17
107
105
116
30
73
40
18
122
102
64
123
96
121
4
42
28
112
11
84
110
15
39
70
35
95
101
69
87
36
76
55
7
75
106
119
99
58
114
77
67
26
120
10
100
89
82
19
74
25
98
57
109
51
117
65
38
86
20
81
32
88
34
93
80
97
13
54
5
113
115
108
24
14
83
31
91
22
61
85
23
94
50
27
66
71
52
49
48
45
9
72
78
104
90
111
53
8
21
33
1
56
46
12
37
44
29
68
6
16
47
79
2
62

> <PUBCHEM_MMFF94_PARTIAL_CHARGES>
33
1 -0.08
10 0.17
11 -0.15
12 -0.15
13 0.51
14 -0.14
15 0.46
16 0.14
17 -0.11
18 -0.15
19 -0.15
2 -0.85
20 -0.15
21 -0.15
22 -0.15
23 0.15
24 0.15
27 0.15
28 0.4
29 0.15
3 0.3
30 0.27
31 0.15
32 0.15
33 0.15
34 0.15
35 0.15
36 0.15
4 -0.57
5 -0.71
6 0.05
8 -0.15
9 -0.15

> <PUBCHEM_EFFECTIVE_ROTOR_COUNT>
4

> <PUBCHEM_PHARMACOPHORE_FEATURES>
8
1 2 donor
1 3 donor
1 5 acceptor
3 2 4 15 cation
5 1 4 10 15 17 rings
5 3 5 7 8 16 rings
6 14 18 19 20 21 22 rings
6 6 7 8 9 11 12 rings

> <PUBCHEM_HEAVY_ATOM_COUNT>
22

> <PUBCHEM_ATOM_DEF_STEREO_COUNT>
0

> <PUBCHEM_ATOM_UDEF_STEREO_COUNT>
0

> <PUBCHEM_BOND_DEF_STEREO_COUNT>
0

> <PUBCHEM_BOND_UDEF_STEREO_COUNT>
0

> <PUBCHEM_ISOTOPIC_ATOM_COUNT>
0

> <PUBCHEM_COMPONENT_COUNT>
1

> <PUBCHEM_CACTVS_TAUTO_COUNT>
4

> <PUBCHEM_CONFORMER_ID>
018004E600000003

> <PUBCHEM_MMFF94_ENERGY>
46.394

> <PUBCHEM_FEATURE_SELFOVERLAP>
40.688

> <PUBCHEM_SHAPE_FINGERPRINT>
10382601 240 17968654908825244714
11408170 253 16170332577381338140
12107183 9 18262788589467736802
12390115 104 18335996353417907295
12633257 1 18261096466551865462
12788726 201 18047458213016979051
12978246 48 18267863882969089553
13177829 73 18342452617393144402
13583140 156 15791994706127481957
13590594 115 17473264275764237730
14251764 38 18340488979767943868
14251764 75 17913502246600171097
14341114 328 18272369733533479413
14739800 52 18126824188309539416
14790565 3 18411141294787315529
14840074 17 17749116611802960301
14848178 96 18336817658713080252
14849402 71 18190746340984070594
14931854 50 18271802428261992717
15142526 21 18261114033005218379
15163728 17 17632309942834156991
15196674 1 18410572902904140703
15420108 30 16689369608667501066
15475509 8 18054514600056577350
17834072 32 18410577283702171810
20238998 120 17472141052012858827
20739085 24 17968383329695615068
21033648 144 18260537935655685686
21734292 116 18412823573263461001
21864079 5 18411135814345469459
22182937 141 18334860570949637043
22849341 161 17826214213119896242
23227448 37 18413109468019287079
23559900 14 18412258450879358218
23845131 108 18114465570408381707
245318 6 17969520348962161740
2637199 183 18339366253583443959
283562 15 18045214092842280267
335352 9 18409449159978508510
3472631 163 18272369720685468909
3680242 22 18336542695101774768
38570 142 18337689532958412830
392239 28 18336841870235045059
469060 322 16081645699127656187
474 4 18336825295349542331
5048184 11 18412263900517584641
5081480 168 17270643128864649806
5104073 3 18041551551137757410
543358 83 18410572873520059350
6299153 45 18337665327050240602
6328613 192 18261398892917421996
633830 44 18412259502175700799
7288768 16 18113621205180043171
7808743 9 18411697716226423099
9981440 41 18337102479438108290

> <PUBCHEM_SHAPE_MULTIPOLES>
436.68
11.98
3.82
0.91
0.31
0.9
-0.06
-10.27
0.12
0.01
0.94
0.82
0.15
-1.4

> <PUBCHEM_SHAPE_SELFOVERLAP>
960.541

> <PUBCHEM_SHAPE_VOLUME>
237.3

> <PUBCHEM_COORDINATE_TYPE>
2
5
10

$$$$
