24770517
  -OEChem-10062122023D

 46 49  0     0  0  0  0  0  0999 V2000
    4.5010   -0.7278   -1.4328 O   0  0  0  0  0  0  0  0  0  0  0  0
    3.9469   -2.8994    0.2105 O   0  0  0  0  0  0  0  0  0  0  0  0
   -0.6880    1.0198   -1.0082 N   0  0  0  0  0  0  0  0  0  0  0  0
   -4.1286   -3.2365   -0.2011 N   0  0  0  0  0  0  0  0  0  0  0  0
    0.6543    3.9533    1.6848 N   0  0  0  0  0  0  0  0  0  0  0  0
   -3.1157    3.6866   -1.2835 N   0  0  0  0  0  0  0  0  0  0  0  0
   -3.0124   -1.4431    0.5165 C   0  0  0  0  0  0  0  0  0  0  0  0
   -1.5587   -0.0832   -0.8640 C   0  0  0  0  0  0  0  0  0  0  0  0
   -0.2387    2.0017   -0.1063 C   0  0  0  0  0  0  0  0  0  0  0  0
   -3.2607   -2.2449   -0.5996 C   0  0  0  0  0  0  0  0  0  0  0  0
    0.9186    1.7915    0.6354 C   0  0  0  0  0  0  0  0  0  0  0  0
   -2.1448   -0.3413    0.3805 C   0  0  0  0  0  0  0  0  0  0  0  0
    1.7030    0.5799    0.5228 C   0  0  0  0  0  0  0  0  0  0  0  0
   -1.8247   -0.9006   -1.9608 C   0  0  0  0  0  0  0  0  0  0  0  0
   -2.6823   -1.9988   -1.8499 C   0  0  0  0  0  0  0  0  0  0  0  0
   -3.7611   -1.9878    1.5969 C   0  0  0  0  0  0  0  0  0  0  0  0
   -0.9500    3.1866    0.0467 C   0  0  0  0  0  0  0  0  0  0  0  0
    2.7373    0.5030   -0.4100 C   0  0  0  0  0  0  0  0  0  0  0  0
   -4.4367   -3.0896    1.1248 C   0  0  0  0  0  0  0  0  0  0  0  0
    1.4250   -0.5102    1.3475 C   0  0  0  0  0  0  0  0  0  0  0  0
    1.3192    2.7893    1.5092 C   0  0  0  0  0  0  0  0  0  0  0  0
    3.4935   -0.6642   -0.5181 C   0  0  0  0  0  0  0  0  0  0  0  0
    3.2154   -1.7543    0.3068 C   0  0  0  0  0  0  0  0  0  0  0  0
    2.1810   -1.6772    1.2394 C   0  0  0  0  0  0  0  0  0  0  0  0
   -0.4660    4.1220    0.9470 C   0  0  0  0  0  0  0  0  0  0  0  0
   -2.1454    3.4627   -0.6874 C   0  0  0  0  0  0  0  0  0  0  0  0
    4.7202    0.4296   -2.2370 C   0  0  0  0  0  0  0  0  0  0  0  0
    3.5984   -3.9669    1.0899 C   0  0  0  0  0  0  0  0  0  0  0  0
   -1.9487    0.2878    1.2439 H   0  0  0  0  0  0  0  0  0  0  0  0
   -0.2953    1.1262   -1.9391 H   0  0  0  0  0  0  0  0  0  0  0  0
   -1.3653   -0.6938   -2.9251 H   0  0  0  0  0  0  0  0  0  0  0  0
   -2.8888   -2.6347   -2.7042 H   0  0  0  0  0  0  0  0  0  0  0  0
   -3.8019   -1.6149    2.6112 H   0  0  0  0  0  0  0  0  0  0  0  0
   -4.4861   -3.9669   -0.8013 H   0  0  0  0  0  0  0  0  0  0  0  0
    2.9095    1.3801   -1.0260 H   0  0  0  0  0  0  0  0  0  0  0  0
   -5.1084   -3.7809    1.6137 H   0  0  0  0  0  0  0  0  0  0  0  0
    0.6246   -0.4651    2.0824 H   0  0  0  0  0  0  0  0  0  0  0  0
    2.2132    2.6892    2.1183 H   0  0  0  0  0  0  0  0  0  0  0  0
    1.9088   -2.4831    1.9123 H   0  0  0  0  0  0  0  0  0  0  0  0
   -0.9740    5.0678    1.1135 H   0  0  0  0  0  0  0  0  0  0  0  0
    3.8558    0.6491   -2.8731 H   0  0  0  0  0  0  0  0  0  0  0  0
    5.0235    1.2906   -1.6316 H   0  0  0  0  0  0  0  0  0  0  0  0
    5.5566    0.2025   -2.9064 H   0  0  0  0  0  0  0  0  0  0  0  0
    4.2810   -4.7961    0.8763 H   0  0  0  0  0  0  0  0  0  0  0  0
    2.5840   -4.3329    0.8983 H   0  0  0  0  0  0  0  0  0  0  0  0
    3.7512   -3.6918    2.1391 H   0  0  0  0  0  0  0  0  0  0  0  0
  1 22  1  0  0  0  0
  1 27  1  0  0  0  0
  2 23  1  0  0  0  0
  2 28  1  0  0  0  0
  3  8  1  0  0  0  0
  3  9  1  0  0  0  0
  3 30  1  0  0  0  0
  4 10  1  0  0  0  0
  4 19  1  0  0  0  0
  4 34  1  0  0  0  0
  5 21  2  0  0  0  0
  5 25  1  0  0  0  0
  6 26  3  0  0  0  0
  7 10  2  0  0  0  0
  7 12  1  0  0  0  0
  7 16  1  0  0  0  0
  8 12  2  0  0  0  0
  8 14  1  0  0  0  0
  9 11  2  0  0  0  0
  9 17  1  0  0  0  0
 10 15  1  0  0  0  0
 11 13  1  0  0  0  0
 11 21  1  0  0  0  0
 12 29  1  0  0  0  0
 13 18  2  0  0  0  0
 13 20  1  0  0  0  0
 14 15  2  0  0  0  0
 14 31  1  0  0  0  0
 15 32  1  0  0  0  0
 16 19  2  0  0  0  0
 16 33  1  0  0  0  0
 17 25  2  0  0  0  0
 17 26  1  0  0  0  0
 18 22  1  0  0  0  0
 18 35  1  0  0  0  0
 19 36  1  0  0  0  0
 20 24  2  0  0  0  0
 20 37  1  0  0  0  0
 21 38  1  0  0  0  0
 22 23  2  0  0  0  0
 23 24  1  0  0  0  0
 24 39  1  0  0  0  0
 25 40  1  0  0  0  0
 27 41  1  0  0  0  0
 27 42  1  0  0  0  0
 27 43  1  0  0  0  0
 28 44  1  0  0  0  0
 28 45  1  0  0  0  0
 28 46  1  0  0  0  0
M  END
> <PUBCHEM_COMPOUND_CID>
24770517

> <PUBCHEM_CONFORMER_RMSD>
0.8

> <PUBCHEM_CONFORMER_DIVERSEORDER>
6
66
26
32
3
41
23
71
33
72
45
64
30
44
70
13
57
37
10
40
28
19
67
22
18
52
61
54
48
21
49
5
36
60
38
69
25
65
63
56
47
29
17
4
59
58
11
62
20
68
53
15
43
51
46
14
55
1
24
50
16
2
34
27
9
39
31
35
8
12
42
7

> <PUBCHEM_MMFF94_PARTIAL_CHARGES>
37
1 -0.36
10 -0.15
12 -0.15
14 -0.15
15 -0.15
16 -0.15
17 0.07
18 -0.15
19 -0.3
2 -0.36
20 -0.15
21 0.16
22 0.08
23 0.08
24 -0.15
25 0.16
26 0.48
27 0.28
28 0.28
29 0.15
3 -0.6
30 0.4
31 0.15
32 0.15
33 0.15
34 0.27
35 0.15
36 0.15
37 0.15
38 0.15
39 0.15
4 0.03
40 0.15
5 -0.62
6 -0.56
8 0.1
9 0.1

> <PUBCHEM_EFFECTIVE_ROTOR_COUNT>
5

> <PUBCHEM_PHARMACOPHORE_FEATURES>
12
1 1 acceptor
1 2 acceptor
1 3 cation
1 3 donor
1 4 cation
1 4 donor
1 5 acceptor
1 6 acceptor
5 4 7 10 16 19 rings
6 13 18 20 22 23 24 rings
6 5 9 11 17 21 25 rings
6 7 8 10 12 14 15 rings

> <PUBCHEM_HEAVY_ATOM_COUNT>
28

> <PUBCHEM_ATOM_DEF_STEREO_COUNT>
0

> <PUBCHEM_ATOM_UDEF_STEREO_COUNT>
0

> <PUBCHEM_BOND_DEF_STEREO_COUNT>
0

> <PUBCHEM_BOND_UDEF_STEREO_COUNT>
0

> <PUBCHEM_ISOTOPIC_ATOM_COUNT>
0

> <PUBCHEM_COMPONENT_COUNT>
1

> <PUBCHEM_CACTVS_TAUTO_COUNT>
2

> <PUBCHEM_CONFORMER_ID>
0179F7D500000006

> <PUBCHEM_MMFF94_ENERGY>
112.6709

> <PUBCHEM_FEATURE_SELFOVERLAP>
60.993

> <PUBCHEM_SHAPE_FINGERPRINT>
10764073 3 14039051951027948044
11421498 54 18262252113323287190
114674 6 18048029967447128666
11578080 2 17630863036971722849
12156800 1 16457205649424283227
12160290 23 18056472842364162100
12553582 1 18341891939251153966
12714826 92 18201160962129095484
12788726 201 18268150855318627363
13911987 19 17681861801204433668
14251757 5 18339366236419262773
14844126 61 17910927202820025010
14863182 85 17758957408332827812
14866123 147 18049150078444801315
1813 80 18057905695104063118
21033650 10 16696957415910487800
21133410 230 16760055080829772023
23559900 14 15939180860593010883
23598288 3 18268714909247709014
23728640 28 17693643832199079130
3383291 50 17691956073519490947
340366 18 17683815302512221502
352729 6 17982734069430106540
3737641 26 18335996332154418170
4409770 3 18268158547885045333
44802255 64 17102281377593438998
5309563 4 18338515364854560911
59444896 2 17330055385965261621
6287921 2 17257381163308590683
7097593 13 17912650399865466555
86090 222 17389387331381561019

> <PUBCHEM_SHAPE_MULTIPOLES>
544.56
8.2
5.88
1.83
0.91
3.84
-0.48
-9.55
-1.61
-1.66
1.91
0.28
-0.05
0.57

> <PUBCHEM_SHAPE_SELFOVERLAP>
1210.49

> <PUBCHEM_SHAPE_VOLUME>
288.9

> <PUBCHEM_COORDINATE_TYPE>
2
5
10

$$$$
