44340970
  -OEChem-10062121583D

 71 77  0     1  0  0  0  0  0999 V2000
   -3.9445   -0.7426    0.7930 O   0  0  0  0  0  0  0  0  0  0  0  0
   -2.9143    1.5124   -1.9335 O   0  0  0  0  0  0  0  0  0  0  0  0
   -5.0226    2.3678   -0.3600 O   0  0  0  0  0  0  0  0  0  0  0  0
   -7.2400    0.7049    0.0539 O   0  0  0  0  0  0  0  0  0  0  0  0
   -5.2714   -1.5285    3.0648 O   0  0  0  0  0  0  0  0  0  0  0  0
    3.3042   -2.5794   -0.7545 O   0  0  0  0  0  0  0  0  0  0  0  0
    4.3321    1.9262   -0.3297 O   0  0  0  0  0  0  0  0  0  0  0  0
   -3.1470   -5.1884   -0.5312 O   0  0  0  0  0  0  0  0  0  0  0  0
    7.8855    0.6430    0.0192 O   0  0  0  0  0  0  0  0  0  0  0  0
    6.4011   -2.5628    2.3359 O   0  0  0  0  0  0  0  0  0  0  0  0
   -1.7534   -0.5274   -0.1152 N   0  0  0  0  0  0  0  0  0  0  0  0
   -1.1367    2.1733    0.1398 N   0  0  0  0  0  0  0  0  0  0  0  0
    4.1947   -0.4095   -0.5813 N   0  0  0  0  0  0  0  0  0  0  0  0
    5.5310   -0.6924   -0.7213 N   0  0  0  0  0  0  0  0  0  0  0  0
   -3.0923    0.1587    0.0732 C   0  0  1  0  0  0  0  0  0  0  0  0
   -3.7301    0.5502   -1.2726 C   0  0  1  0  0  0  0  0  0  0  0  0
   -0.4706   -0.1033   -0.1706 C   0  0  0  0  0  0  0  0  0  0  0  0
   -5.1335    1.1247   -1.0591 C   0  0  1  0  0  0  0  0  0  0  0  0
   -5.9647    0.1434   -0.2298 C   0  0  1  0  0  0  0  0  0  0  0  0
   -5.2393   -0.2037    1.0771 C   0  0  1  0  0  0  0  0  0  0  0  0
    0.6347   -0.9988   -0.3607 C   0  0  0  0  0  0  0  0  0  0  0  0
   -1.5844   -1.8936   -0.2830 C   0  0  0  0  0  0  0  0  0  0  0  0
   -0.1603    1.2557   -0.0423 C   0  0  0  0  0  0  0  0  0  0  0  0
   -0.1924   -2.2124   -0.4308 C   0  0  0  0  0  0  0  0  0  0  0  0
    1.9767   -0.6341   -0.4276 C   0  0  0  0  0  0  0  0  0  0  0  0
    1.2295    1.6062   -0.1150 C   0  0  0  0  0  0  0  0  0  0  0  0
    2.2852    0.7178   -0.3002 C   0  0  0  0  0  0  0  0  0  0  0  0
    1.0090    3.0486    0.0652 C   0  0  0  0  0  0  0  0  0  0  0  0
   -6.0012   -1.2508    1.8836 C   0  0  0  0  0  0  0  0  0  0  0  0
   -0.3894    3.3395    0.2108 C   0  0  0  0  0  0  0  0  0  0  0  0
    3.2161   -1.3761   -0.6114 C   0  0  0  0  0  0  0  0  0  0  0  0
   -2.5769   -2.8852   -0.3148 C   0  0  0  0  0  0  0  0  0  0  0  0
    3.7294    0.8735   -0.3992 C   0  0  0  0  0  0  0  0  0  0  0  0
    0.1416   -3.5765   -0.6114 C   0  0  0  0  0  0  0  0  0  0  0  0
   -2.1937   -4.2146   -0.4955 C   0  0  0  0  0  0  0  0  0  0  0  0
   -0.8560   -4.5570   -0.6416 C   0  0  0  0  0  0  0  0  0  0  0  0
    1.9046    4.1440    0.1162 C   0  0  0  0  0  0  0  0  0  0  0  0
   -0.8562    4.6498    0.3959 C   0  0  0  0  0  0  0  0  0  0  0  0
    6.1361   -0.9206    0.5841 C   0  0  0  0  0  0  0  0  0  0  0  0
    1.4285    5.4466    0.3010 C   0  0  0  0  0  0  0  0  0  0  0  0
    0.0689    5.6934    0.4385 C   0  0  0  0  0  0  0  0  0  0  0  0
    7.6422   -0.6788    0.4848 C   0  0  0  0  0  0  0  0  0  0  0  0
    5.8198   -2.3434    1.0555 C   0  0  0  0  0  0  0  0  0  0  0  0
   -2.9395    0.9373    0.8119 H   0  0  0  0  0  0  0  0  0  0  0  0
   -3.8010   -0.3342   -1.9179 H   0  0  0  0  0  0  0  0  0  0  0  0
   -5.6203    1.3520   -2.0131 H   0  0  0  0  0  0  0  0  0  0  0  0
   -6.1184   -0.7718   -0.8156 H   0  0  0  0  0  0  0  0  0  0  0  0
   -5.1189    0.6763    1.7214 H   0  0  0  0  0  0  0  0  0  0  0  0
   -6.0922   -2.1858    1.3206 H   0  0  0  0  0  0  0  0  0  0  0  0
   -6.9984   -0.8971    2.1619 H   0  0  0  0  0  0  0  0  0  0  0  0
   -2.1292    2.1693    0.0271 H   0  0  0  0  0  0  0  0  0  0  0  0
   -3.6346   -2.6603   -0.2596 H   0  0  0  0  0  0  0  0  0  0  0  0
    1.1759   -3.8832   -0.7292 H   0  0  0  0  0  0  0  0  0  0  0  0
   -3.3501    1.7387   -2.7727 H   0  0  0  0  0  0  0  0  0  0  0  0
   -4.5329    2.2419    0.4669 H   0  0  0  0  0  0  0  0  0  0  0  0
   -7.6630    0.9154   -0.7960 H   0  0  0  0  0  0  0  0  0  0  0  0
   -0.5715   -5.5971   -0.7821 H   0  0  0  0  0  0  0  0  0  0  0  0
    2.9741    3.9914    0.0127 H   0  0  0  0  0  0  0  0  0  0  0  0
   -1.9176    4.8527    0.5041 H   0  0  0  0  0  0  0  0  0  0  0  0
    5.9661    0.1123   -1.1725 H   0  0  0  0  0  0  0  0  0  0  0  0
    5.7577   -0.1965    1.3198 H   0  0  0  0  0  0  0  0  0  0  0  0
   -5.7704   -2.2008    3.5591 H   0  0  0  0  0  0  0  0  0  0  0  0
    2.1329    6.2735    0.3371 H   0  0  0  0  0  0  0  0  0  0  0  0
   -0.2810    6.7125    0.5812 H   0  0  0  0  0  0  0  0  0  0  0  0
   -4.0222   -4.7817   -0.4106 H   0  0  0  0  0  0  0  0  0  0  0  0
    8.1140   -1.3821   -0.2110 H   0  0  0  0  0  0  0  0  0  0  0  0
    8.1219   -0.7853    1.4632 H   0  0  0  0  0  0  0  0  0  0  0  0
    4.7492   -2.5031    1.1885 H   0  0  0  0  0  0  0  0  0  0  0  0
    6.2126   -3.0950    0.3620 H   0  0  0  0  0  0  0  0  0  0  0  0
    8.8501    0.7556   -0.0285 H   0  0  0  0  0  0  0  0  0  0  0  0
    6.1867   -3.4754    2.5947 H   0  0  0  0  0  0  0  0  0  0  0  0
  1 15  1  0  0  0  0
  1 20  1  0  0  0  0
  2 16  1  0  0  0  0
  2 54  1  0  0  0  0
  3 18  1  0  0  0  0
  3 55  1  0  0  0  0
  4 19  1  0  0  0  0
  4 56  1  0  0  0  0
  5 29  1  0  0  0  0
  5 62  1  0  0  0  0
  6 31  2  0  0  0  0
  7 33  2  0  0  0  0
  8 35  1  0  0  0  0
  8 65  1  0  0  0  0
  9 42  1  0  0  0  0
  9 70  1  0  0  0  0
 10 43  1  0  0  0  0
 10 71  1  0  0  0  0
 11 15  1  0  0  0  0
 11 17  1  0  0  0  0
 11 22  1  0  0  0  0
 12 23  1  0  0  0  0
 12 30  1  0  0  0  0
 12 51  1  0  0  0  0
 13 14  1  0  0  0  0
 13 31  1  0  0  0  0
 13 33  1  0  0  0  0
 14 39  1  0  0  0  0
 14 60  1  0  0  0  0
 15 16  1  0  0  0  0
 15 44  1  0  0  0  0
 16 18  1  0  0  0  0
 16 45  1  0  0  0  0
 17 21  1  0  0  0  0
 17 23  2  0  0  0  0
 18 19  1  0  0  0  0
 18 46  1  0  0  0  0
 19 20  1  0  0  0  0
 19 47  1  0  0  0  0
 20 29  1  0  0  0  0
 20 48  1  0  0  0  0
 21 24  1  0  0  0  0
 21 25  2  0  0  0  0
 22 24  2  0  0  0  0
 22 32  1  0  0  0  0
 23 26  1  0  0  0  0
 24 34  1  0  0  0  0
 25 27  1  0  0  0  0
 25 31  1  0  0  0  0
 26 27  2  0  0  0  0
 26 28  1  0  0  0  0
 27 33  1  0  0  0  0
 28 30  1  0  0  0  0
 28 37  2  0  0  0  0
 29 49  1  0  0  0  0
 29 50  1  0  0  0  0
 30 38  2  0  0  0  0
 32 35  2  0  0  0  0
 32 52  1  0  0  0  0
 34 36  2  0  0  0  0
 34 53  1  0  0  0  0
 35 36  1  0  0  0  0
 36 57  1  0  0  0  0
 37 40  1  0  0  0  0
 37 58  1  0  0  0  0
 38 41  1  0  0  0  0
 38 59  1  0  0  0  0
 39 42  1  0  0  0  0
 39 43  1  0  0  0  0
 39 61  1  0  0  0  0
 40 41  2  0  0  0  0
 40 63  1  0  0  0  0
 41 64  1  0  0  0  0
 42 66  1  0  0  0  0
 42 67  1  0  0  0  0
 43 68  1  0  0  0  0
 43 69  1  0  0  0  0
M  END
> <PUBCHEM_COMPOUND_CID>
44340970

> <PUBCHEM_CONFORMER_RMSD>
1

> <PUBCHEM_CONFORMER_DIVERSEORDER>
2
20
14
23
24
8
18
26
17
10
25
19
21
15
22
13
9
4
6
11
16
7
3
12
1
5

> <PUBCHEM_MMFF94_PARTIAL_CHARGES>
57
1 -0.56
10 -0.68
11 -0.04
12 -0.05
13 -0.11
14 -0.64
15 0.54
16 0.28
17 -0.05
18 0.28
19 0.28
2 -0.68
20 0.28
21 -0.01
22 -0.15
23 -0.05
25 0.09
26 -0.01
27 0.09
29 0.28
3 -0.68
30 -0.15
31 0.54
32 -0.15
33 0.54
34 -0.15
35 0.08
36 -0.15
37 -0.15
38 -0.15
39 0.27
4 -0.68
40 -0.15
41 -0.15
42 0.28
43 0.28
5 -0.68
51 0.27
52 0.15
53 0.15
54 0.4
55 0.4
56 0.4
57 0.15
58 0.15
59 0.15
6 -0.57
60 0.36
62 0.4
63 0.15
64 0.15
65 0.45
7 -0.57
70 0.4
71 0.4
8 -0.53
9 -0.68

> <PUBCHEM_EFFECTIVE_ROTOR_COUNT>
7.4

> <PUBCHEM_PHARMACOPHORE_FEATURES>
27
1 1 acceptor
1 10 acceptor
1 10 donor
1 11 cation
1 12 cation
1 12 donor
1 14 donor
1 2 acceptor
1 2 donor
1 3 acceptor
1 3 donor
1 4 acceptor
1 4 donor
1 5 acceptor
1 5 donor
1 6 acceptor
1 7 acceptor
1 8 donor
1 9 acceptor
1 9 donor
5 11 17 21 22 24 rings
5 12 23 26 28 30 rings
5 13 25 27 31 33 rings
6 1 15 16 18 19 20 rings
6 17 21 23 25 26 27 rings
6 22 24 32 34 35 36 rings
6 28 30 37 38 40 41 rings

> <PUBCHEM_HEAVY_ATOM_COUNT>
43

> <PUBCHEM_ATOM_DEF_STEREO_COUNT>
0

> <PUBCHEM_ATOM_UDEF_STEREO_COUNT>
5

> <PUBCHEM_BOND_DEF_STEREO_COUNT>
0

> <PUBCHEM_BOND_UDEF_STEREO_COUNT>
0

> <PUBCHEM_ISOTOPIC_ATOM_COUNT>
0

> <PUBCHEM_COMPONENT_COUNT>
1

> <PUBCHEM_CACTVS_TAUTO_COUNT>
42

> <PUBCHEM_CONFORMER_ID>
02A496EA00000002

> <PUBCHEM_MMFF94_ENERGY>
162.4027

> <PUBCHEM_FEATURE_SELFOVERLAP>
137.541

> <PUBCHEM_SHAPE_FINGERPRINT>
10050765 1 18051975011130661951
102385 1 17908418409136948855
10675989 125 17037811449259795301
10930396 42 18125971976782742682
1100329 8 18339924917090529471
11456790 92 18334869281987560305
12058002 1 17200552651587071279
12107183 9 18269848656186545043
12788726 201 18335705980028238080
13140716 1 18270119161531567822
13782708 43 17821449075331626083
13911987 19 18337096861905124237
14028597 1 17823409406206672538
140371 6 18343029882478253884
14068700 686 18055351328061585646
14117953 113 18342461417802252830
14394314 77 18412260623219641416
14790565 3 18340213994539779341
14937079 2 18412263964984558317
14955137 171 18409455790658706225
15131766 46 14619072033873485754
15320467 1 18412265017092835797
15324884 4 17896585371380384293
15815584 197 18197797509269133367
16087824 20 18339927005067913493
16728300 4 17680128695637921554
19311894 1 18412539920574891974
19319366 153 17967250884333115954
19841028 212 17241601729385519050
20642791 105 18122054313584681544
20775438 99 17335010988308592727
21796203 349 18192743178305582105
22223350 30 18128806628632278634
22311459 1 18412544285199901510
23559900 14 18342449400684588328
24771293 8 18131917039584054017
24771750 20 18048049750509826948
283562 15 18126563423000789649
3178227 256 18338248111030752739
335352 9 18411699906849622470
3383291 50 18412261718378942066
42626532 9 16662638668341089921
469060 322 18197793110595030817
5104073 3 18199185268905319826
6004065 56 18342166774540182517
6086070 43 18265031665954930087
9896288 288 17977379431187802370

> <PUBCHEM_SHAPE_MULTIPOLES>
806.3
15.16
7.02
1.28
10.63
4.8
0.79
-6.5
5.15
-0.38
0.07
-1.15
-0.69
-0.13

> <PUBCHEM_SHAPE_SELFOVERLAP>
1817.753

> <PUBCHEM_SHAPE_VOLUME>
421

> <PUBCHEM_COORDINATE_TYPE>
2
5
10

$$$$
