46929748
  -OEChem-10052115163D

 61 65  0     0  0  0  0  0  0999 V2000
    3.0674   -0.0459    0.3117 O   0  0  0  0  0  0  0  0  0  0  0  0
   -2.6246   -2.5653   -1.5725 O   0  0  0  0  0  0  0  0  0  0  0  0
   -4.8630    0.3048   -0.5008 N   0  0  0  0  0  0  0  0  0  0  0  0
   -2.3826   -1.1828    0.3080 N   0  0  0  0  0  0  0  0  0  0  0  0
    2.5233    1.7833   -1.0070 N   0  0  0  0  0  0  0  0  0  0  0  0
    5.9174   -0.6816   -0.1459 N   0  0  0  0  0  0  0  0  0  0  0  0
    7.6880   -1.0035    1.4569 N   0  0  0  0  0  0  0  0  0  0  0  0
    6.9589   -2.7702    0.0961 N   0  0  0  0  0  0  0  0  0  0  0  0
   -4.5301   -2.1078   -0.3190 C   0  0  0  0  0  0  0  0  0  0  0  0
   -5.3695   -0.9948   -0.2764 C   0  0  0  0  0  0  0  0  0  0  0  0
   -0.9957   -0.8940    0.3094 C   0  0  0  0  0  0  0  0  0  0  0  0
   -3.1053   -1.9725   -0.5951 C   0  0  0  0  0  0  0  0  0  0  0  0
   -5.0498   -3.3825   -0.0939 C   0  0  0  0  0  0  0  0  0  0  0  0
   -6.7289   -1.1562   -0.0086 C   0  0  0  0  0  0  0  0  0  0  0  0
   -5.2496    1.5717   -0.0268 C   0  0  0  0  0  0  0  0  0  0  0  0
    1.7351   -0.3241    0.3118 C   0  0  0  0  0  0  0  0  0  0  0  0
   -0.1715   -1.4255   -0.6824 C   0  0  0  0  0  0  0  0  0  0  0  0
   -0.4546   -0.0774    1.3023 C   0  0  0  0  0  0  0  0  0  0  0  0
    4.8376    1.3990   -0.4227 C   0  0  0  0  0  0  0  0  0  0  0  0
   -6.4093   -3.5440    0.1739 C   0  0  0  0  0  0  0  0  0  0  0  0
   -7.2489   -2.4310    0.2165 C   0  0  0  0  0  0  0  0  0  0  0  0
    1.1940   -1.1407   -0.6813 C   0  0  0  0  0  0  0  0  0  0  0  0
    0.9108    0.2074    1.3035 C   0  0  0  0  0  0  0  0  0  0  0  0
    3.4915    1.0721   -0.3870 C   0  0  0  0  0  0  0  0  0  0  0  0
    5.8383    0.6042    0.2553 C   0  0  0  0  0  0  0  0  0  0  0  0
   -5.0391    2.7046   -0.8128 C   0  0  0  0  0  0  0  0  0  0  0  0
   -5.8435    1.6949    1.2293 C   0  0  0  0  0  0  0  0  0  0  0  0
    5.2142    2.5285   -1.1409 C   0  0  0  0  0  0  0  0  0  0  0  0
   -5.4223    3.9608   -0.3427 C   0  0  0  0  0  0  0  0  0  0  0  0
   -6.2267    2.9509    1.6994 C   0  0  0  0  0  0  0  0  0  0  0  0
    6.6385    1.1515    1.2376 C   0  0  0  0  0  0  0  0  0  0  0  0
    4.2469    3.2859   -1.7922 C   0  0  0  0  0  0  0  0  0  0  0  0
   -6.0161    4.0839    0.9134 C   0  0  0  0  0  0  0  0  0  0  0  0
    2.9272    2.8745   -1.6952 C   0  0  0  0  0  0  0  0  0  0  0  0
    6.8501   -1.4181    0.4876 C   0  0  0  0  0  0  0  0  0  0  0  0
    7.5545    0.2921    1.8091 C   0  0  0  0  0  0  0  0  0  0  0  0
    6.1375   -3.3521   -0.9186 C   0  0  0  0  0  0  0  0  0  0  0  0
   -4.0851    0.3350   -1.1535 H   0  0  0  0  0  0  0  0  0  0  0  0
   -4.4073   -4.2590   -0.1218 H   0  0  0  0  0  0  0  0  0  0  0  0
   -7.4126   -0.3121    0.0070 H   0  0  0  0  0  0  0  0  0  0  0  0
   -2.9061   -0.7591    1.0716 H   0  0  0  0  0  0  0  0  0  0  0  0
   -0.5154   -2.0647   -1.4830 H   0  0  0  0  0  0  0  0  0  0  0  0
   -1.0859    0.3436    2.0806 H   0  0  0  0  0  0  0  0  0  0  0  0
   -6.8143   -4.5366    0.3485 H   0  0  0  0  0  0  0  0  0  0  0  0
   -8.3083   -2.5576    0.4195 H   0  0  0  0  0  0  0  0  0  0  0  0
    1.8316   -1.5587   -1.4559 H   0  0  0  0  0  0  0  0  0  0  0  0
    1.3257    0.8437    2.0806 H   0  0  0  0  0  0  0  0  0  0  0  0
   -4.5778    2.6216   -1.7936 H   0  0  0  0  0  0  0  0  0  0  0  0
   -5.9980    0.8337    1.8734 H   0  0  0  0  0  0  0  0  0  0  0  0
    6.2557    2.8327   -1.2108 H   0  0  0  0  0  0  0  0  0  0  0  0
   -5.2582    4.8430   -0.9546 H   0  0  0  0  0  0  0  0  0  0  0  0
   -6.6840    3.0479    2.6798 H   0  0  0  0  0  0  0  0  0  0  0  0
    6.5645    2.1838    1.5565 H   0  0  0  0  0  0  0  0  0  0  0  0
    4.5172    4.1694   -2.3590 H   0  0  0  0  0  0  0  0  0  0  0  0
   -6.3133    5.0621    1.2800 H   0  0  0  0  0  0  0  0  0  0  0  0
    2.1346    3.4304   -2.1851 H   0  0  0  0  0  0  0  0  0  0  0  0
    8.2259    0.6315    2.5906 H   0  0  0  0  0  0  0  0  0  0  0  0
    7.6575   -3.3314    0.5688 H   0  0  0  0  0  0  0  0  0  0  0  0
    6.2827   -2.8525   -1.8819 H   0  0  0  0  0  0  0  0  0  0  0  0
    6.3991   -4.4069   -1.0486 H   0  0  0  0  0  0  0  0  0  0  0  0
    5.0776   -3.3036   -0.6478 H   0  0  0  0  0  0  0  0  0  0  0  0
  1 16  1  0  0  0  0
  1 24  1  0  0  0  0
  2 12  2  0  0  0  0
  3 10  1  0  0  0  0
  3 15  1  0  0  0  0
  3 38  1  0  0  0  0
  4 11  1  0  0  0  0
  4 12  1  0  0  0  0
  4 41  1  0  0  0  0
  5 24  1  0  0  0  0
  5 34  2  0  0  0  0
  6 25  2  0  0  0  0
  6 35  1  0  0  0  0
  7 35  2  0  0  0  0
  7 36  1  0  0  0  0
  8 35  1  0  0  0  0
  8 37  1  0  0  0  0
  8 58  1  0  0  0  0
  9 10  1  0  0  0  0
  9 12  1  0  0  0  0
  9 13  2  0  0  0  0
 10 14  2  0  0  0  0
 11 17  2  0  0  0  0
 11 18  1  0  0  0  0
 13 20  1  0  0  0  0
 13 39  1  0  0  0  0
 14 21  1  0  0  0  0
 14 40  1  0  0  0  0
 15 26  2  0  0  0  0
 15 27  1  0  0  0  0
 16 22  2  0  0  0  0
 16 23  1  0  0  0  0
 17 22  1  0  0  0  0
 17 42  1  0  0  0  0
 18 23  2  0  0  0  0
 18 43  1  0  0  0  0
 19 24  2  0  0  0  0
 19 25  1  0  0  0  0
 19 28  1  0  0  0  0
 20 21  2  0  0  0  0
 20 44  1  0  0  0  0
 21 45  1  0  0  0  0
 22 46  1  0  0  0  0
 23 47  1  0  0  0  0
 25 31  1  0  0  0  0
 26 29  1  0  0  0  0
 26 48  1  0  0  0  0
 27 30  2  0  0  0  0
 27 49  1  0  0  0  0
 28 32  2  0  0  0  0
 28 50  1  0  0  0  0
 29 33  2  0  0  0  0
 29 51  1  0  0  0  0
 30 33  1  0  0  0  0
 30 52  1  0  0  0  0
 31 36  2  0  0  0  0
 31 53  1  0  0  0  0
 32 34  1  0  0  0  0
 32 54  1  0  0  0  0
 33 55  1  0  0  0  0
 34 56  1  0  0  0  0
 36 57  1  0  0  0  0
 37 59  1  0  0  0  0
 37 60  1  0  0  0  0
 37 61  1  0  0  0  0
M  END
> <PUBCHEM_COMPOUND_CID>
46929748

> <PUBCHEM_CONFORMER_RMSD>
1.2

> <PUBCHEM_CONFORMER_DIVERSEORDER>
1
90
10
127
91
88
96
139
21
42
37
124
76
141
12
9
132
94
119
14
67
114
103
155
26
152
8
167
164
107
75
23
19
30
64
110
44
102
80
4
166
117
77
136
165
160
51
65
158
121
92
97
93
48
154
72
134
108
5
133
116
163
38
111
69
3
126
128
135
147
45
140
159
137
123
101
149
53
63
115
61
50
71
58
138
28
22
60
87
81
131
7
143
52
56
39
20
84
46
148
70
85
18
6
145
35
47
79
40
11
142
33
98
130
122
57
106
129
162
13
32
168
62
34
55
74
99
78
24
82
54
151
31
157
36
43
144
83
49
112
73
17
104
100
146
89
95
105
86
25
125
153
66
150
161
29
118
169
27
15
2
68
41
120
113
109
16
156
59

> <PUBCHEM_MMFF94_PARTIAL_CHARGES>
57
1 -0.17
10 0.1
11 0.12
12 0.54
13 -0.15
14 -0.15
15 0.1
16 0.08
17 -0.15
18 -0.15
2 -0.57
20 -0.15
21 -0.15
22 -0.15
23 -0.15
24 0.39
25 0.31
26 -0.15
27 -0.15
28 -0.15
29 -0.15
3 -0.6
30 -0.15
31 -0.15
32 -0.15
33 -0.15
34 0.16
35 0.72
36 0.16
37 0.37
38 0.4
39 0.15
4 -0.55
40 0.15
41 0.37
42 0.15
43 0.15
44 0.15
45 0.15
46 0.15
47 0.15
48 0.15
49 0.15
5 -0.62
50 0.15
51 0.15
52 0.15
53 0.15
54 0.15
55 0.15
56 0.15
57 0.15
58 0.4
6 -0.62
7 -0.62
8 -0.87
9 0.09

> <PUBCHEM_EFFECTIVE_ROTOR_COUNT>
9

> <PUBCHEM_PHARMACOPHORE_FEATURES>
14
1 1 acceptor
1 2 acceptor
1 3 cation
1 3 donor
1 4 donor
1 5 acceptor
1 6 acceptor
1 8 donor
4 6 7 8 35 cation
6 11 16 17 18 22 23 rings
6 15 26 27 29 30 33 rings
6 5 19 24 28 32 34 rings
6 6 7 25 31 35 36 rings
6 9 10 13 14 20 21 rings

> <PUBCHEM_HEAVY_ATOM_COUNT>
37

> <PUBCHEM_ATOM_DEF_STEREO_COUNT>
0

> <PUBCHEM_ATOM_UDEF_STEREO_COUNT>
0

> <PUBCHEM_BOND_DEF_STEREO_COUNT>
0

> <PUBCHEM_BOND_UDEF_STEREO_COUNT>
0

> <PUBCHEM_ISOTOPIC_ATOM_COUNT>
0

> <PUBCHEM_COMPONENT_COUNT>
1

> <PUBCHEM_CACTVS_TAUTO_COUNT>
21

> <PUBCHEM_CONFORMER_ID>
02CC175400000001

> <PUBCHEM_MMFF94_ENERGY>
148.8622

> <PUBCHEM_FEATURE_SELFOVERLAP>
71.097

> <PUBCHEM_SHAPE_FINGERPRINT>
100830 39 18411134723851122145
10580692 12 18410293614155818214
11475781 23 17489312949462633380
12107183 9 18334573521432176964
12728209 76 18342185504418053590
14040222 275 17530694208114220636
14856354 85 18196658613002580775
15021287 119 17967533484464391125
15183329 4 18334016129002854596
15320295 44 18335711576002490149
15419008 145 18334283271726952528
15419008 42 17987523602052122647
15439362 3 17910959033460328761
1577012 14 18334583464187067428
16067689 134 18118407245840834674
21130935 74 18411697682421131410
21796203 349 17470197077459557139
21814621 53 18130781248831869730
21927370 108 17749680683997775131
22033318 11 18259988137240777688
23522609 53 17823157708043689492
23569943 247 16661742445920693754
249057 25 18114749333979798541
397638 26 18340205172529377129
4144715 1 18334583476808017354
4197921 191 18116156747407528149
6299153 45 18335984185960096200
9831232 110 18270405988966724398
99344 41 18411134715092519010

> <PUBCHEM_SHAPE_MULTIPOLES>
719.82
25.67
5.09
1.44
11.55
1.77
0.13
-2.19
5.92
-7.58
-1.14
1.37
0.85
-2.85

> <PUBCHEM_SHAPE_SELFOVERLAP>
1589.602

> <PUBCHEM_SHAPE_VOLUME>
379.9

> <PUBCHEM_COORDINATE_TYPE>
2
5
10

$$$$
