3142817
  -OEChem-10062122013D

 45 48  0     0  0  0  0  0  0999 V2000
    5.0390   -0.2770   -1.4575 S   0  0  0  0  0  0  0  0  0  0  0  0
   -0.2545   -1.2549   -1.6978 S   0  0  0  0  0  0  0  0  0  0  0  0
    4.7218    3.0958   -0.0281 O   0  0  0  0  0  0  0  0  0  0  0  0
   -3.0311    1.6813    0.6496 O   0  0  0  0  0  0  0  0  0  0  0  0
   -9.4056   -0.8639    1.1525 O   0  5  0  0  0  0  0  0  0  0  0  0
   -9.0691   -1.9658   -0.7161 O   0  0  0  0  0  0  0  0  0  0  0  0
    4.8783   -0.1852    1.1150 N   0  0  0  0  0  0  0  0  0  0  0  0
   -0.4450    1.0821   -0.2097 N   0  0  0  0  0  0  0  0  0  0  0  0
   -2.4027   -0.1998   -0.5987 N   0  0  0  0  0  0  0  0  0  0  0  0
   -8.6624   -1.2166    0.2049 N   0  3  0  0  0  0  0  0  0  0  0  0
    3.2420    1.2014   -0.0571 C   0  0  0  0  0  0  0  0  0  0  0  0
    4.3485    0.2762    0.0063 C   0  0  0  0  0  0  0  0  0  0  0  0
    1.9396    0.7025   -0.1028 C   0  0  0  0  0  0  0  0  0  0  0  0
    0.8573    1.5804   -0.1632 C   0  0  0  0  0  0  0  0  0  0  0  0
    6.1601   -1.2289   -0.5574 C   0  0  0  0  0  0  0  0  0  0  0  0
    5.9187   -1.0499    0.8081 C   0  0  0  0  0  0  0  0  0  0  0  0
    3.4604    2.5796   -0.0721 C   0  0  0  0  0  0  0  0  0  0  0  0
    1.0765    2.9578   -0.1779 C   0  0  0  0  0  0  0  0  0  0  0  0
    2.3781    3.4575   -0.1325 C   0  0  0  0  0  0  0  0  0  0  0  0
    7.1797   -2.0731   -1.0258 C   0  0  0  0  0  0  0  0  0  0  0  0
    6.7279   -1.7415    1.7355 C   0  0  0  0  0  0  0  0  0  0  0  0
    7.9659   -2.7458   -0.0871 C   0  0  0  0  0  0  0  0  0  0  0  0
    7.7446   -2.5836    1.2761 C   0  0  0  0  0  0  0  0  0  0  0  0
   -4.7137    0.1482    0.1096 C   0  0  0  0  0  0  0  0  0  0  0  0
   -1.0121   -0.0658   -0.7874 C   0  0  0  0  0  0  0  0  0  0  0  0
   -3.3106    0.6329    0.0758 C   0  0  0  0  0  0  0  0  0  0  0  0
   -5.5284    0.5364    1.1535 C   0  0  0  0  0  0  0  0  0  0  0  0
   -5.1594   -0.6757   -0.9035 C   0  0  0  0  0  0  0  0  0  0  0  0
   -7.3206   -0.7535    0.1735 C   0  0  0  0  0  0  0  0  0  0  0  0
   -6.8462    0.0805    1.1859 C   0  0  0  0  0  0  0  0  0  0  0  0
   -6.4773   -1.1315   -0.8713 C   0  0  0  0  0  0  0  0  0  0  0  0
    1.7966   -0.3702   -0.0223 H   0  0  0  0  0  0  0  0  0  0  0  0
    0.2425    3.6535   -0.2260 H   0  0  0  0  0  0  0  0  0  0  0  0
    2.5416    4.5317   -0.1447 H   0  0  0  0  0  0  0  0  0  0  0  0
    7.3581   -2.2045   -2.0887 H   0  0  0  0  0  0  0  0  0  0  0  0
    6.5638   -1.6221    2.8027 H   0  0  0  0  0  0  0  0  0  0  0  0
   -1.1383    1.7805    0.0475 H   0  0  0  0  0  0  0  0  0  0  0  0
    8.7604   -3.4041   -0.4286 H   0  0  0  0  0  0  0  0  0  0  0  0
    8.3662   -3.1150    1.9916 H   0  0  0  0  0  0  0  0  0  0  0  0
   -2.7578   -1.0655   -0.9920 H   0  0  0  0  0  0  0  0  0  0  0  0
   -5.1731    1.1806    1.9524 H   0  0  0  0  0  0  0  0  0  0  0  0
   -4.5550   -0.9597   -1.7584 H   0  0  0  0  0  0  0  0  0  0  0  0
   -7.4744    0.3945    2.0157 H   0  0  0  0  0  0  0  0  0  0  0  0
   -6.8160   -1.7716   -1.6820 H   0  0  0  0  0  0  0  0  0  0  0  0
    5.3828    2.3862    0.0103 H   0  0  0  0  0  0  0  0  0  0  0  0
  1 12  1  0  0  0  0
  1 15  1  0  0  0  0
  2 25  2  0  0  0  0
  3 17  1  0  0  0  0
  3 45  1  0  0  0  0
  4 26  2  0  0  0  0
  5 10  1  0  0  0  0
  6 10  2  0  0  0  0
  7 12  2  0  0  0  0
  7 16  1  0  0  0  0
  8 14  1  0  0  0  0
  8 25  1  0  0  0  0
  8 37  1  0  0  0  0
  9 25  1  0  0  0  0
  9 26  1  0  0  0  0
  9 40  1  0  0  0  0
 10 29  1  0  0  0  0
 11 12  1  0  0  0  0
 11 13  1  0  0  0  0
 11 17  2  0  0  0  0
 13 14  2  0  0  0  0
 13 32  1  0  0  0  0
 14 18  1  0  0  0  0
 15 16  1  0  0  0  0
 15 20  2  0  0  0  0
 16 21  2  0  0  0  0
 17 19  1  0  0  0  0
 18 19  2  0  0  0  0
 18 33  1  0  0  0  0
 19 34  1  0  0  0  0
 20 22  1  0  0  0  0
 20 35  1  0  0  0  0
 21 23  1  0  0  0  0
 21 36  1  0  0  0  0
 22 23  2  0  0  0  0
 22 38  1  0  0  0  0
 23 39  1  0  0  0  0
 24 26  1  0  0  0  0
 24 27  2  0  0  0  0
 24 28  1  0  0  0  0
 27 30  1  0  0  0  0
 27 41  1  0  0  0  0
 28 31  2  0  0  0  0
 28 42  1  0  0  0  0
 29 30  2  0  0  0  0
 29 31  1  0  0  0  0
 30 43  1  0  0  0  0
 31 44  1  0  0  0  0
M  CHG  2   5  -1  10   1
M  END
> <PUBCHEM_COMPOUND_CID>
3142817

> <PUBCHEM_CONFORMER_RMSD>
0.8

> <PUBCHEM_CONFORMER_DIVERSEORDER>
1
41
39
53
35
38
17
57
28
54
15
40
22
31
46
51
5
37
55
42
52
49
8
43
48
21
47
50
30
13
27
19
56
36
29
26
45
24
18
34
14
20
3
23
44
11
16
32
6
12
2
7
10
33
4
9
25

> <PUBCHEM_MMFF94_PARTIAL_CHARGES>
45
1 -0.08
10 0.91
11 0.05
12 0.33
13 -0.15
14 0.12
15 0.04
16 0.23
17 0.08
18 -0.15
19 -0.15
2 -0.38
20 -0.15
21 -0.15
22 -0.15
23 -0.15
24 0.09
25 0.5
26 0.54
27 -0.15
28 -0.15
29 0.13
3 -0.53
30 -0.15
31 -0.15
32 0.15
33 0.15
34 0.15
35 0.15
36 0.15
37 0.37
38 0.15
39 0.15
4 -0.57
40 0.37
41 0.15
42 0.15
43 0.15
44 0.15
45 0.45
5 -0.52
6 -0.52
7 -0.57
8 -0.55
9 -0.49

> <PUBCHEM_EFFECTIVE_ROTOR_COUNT>
7

> <PUBCHEM_PHARMACOPHORE_FEATURES>
13
1 2 acceptor
1 3 donor
1 4 acceptor
1 5 acceptor
1 5 anion
1 6 acceptor
1 7 acceptor
1 8 donor
1 9 donor
5 1 7 12 15 16 rings
6 11 13 14 17 18 19 rings
6 15 16 20 21 22 23 rings
6 24 27 28 29 30 31 rings

> <PUBCHEM_HEAVY_ATOM_COUNT>
31

> <PUBCHEM_ATOM_DEF_STEREO_COUNT>
0

> <PUBCHEM_ATOM_UDEF_STEREO_COUNT>
0

> <PUBCHEM_BOND_DEF_STEREO_COUNT>
0

> <PUBCHEM_BOND_UDEF_STEREO_COUNT>
0

> <PUBCHEM_ISOTOPIC_ATOM_COUNT>
0

> <PUBCHEM_COMPONENT_COUNT>
1

> <PUBCHEM_CACTVS_TAUTO_COUNT>
20

> <PUBCHEM_CONFORMER_ID>
002FF4A100000001

> <PUBCHEM_MMFF94_ENERGY>
106.2638

> <PUBCHEM_FEATURE_SELFOVERLAP>
66.162

> <PUBCHEM_SHAPE_FINGERPRINT>
10 15 13830129498779510817
10280341 67 15481846563369213339
10411042 1 18337671915636190676
10666366 153 18041273301755053069
11211813 74 9223240637279937043
11386260 185 16226055521648301830
11456790 92 17704079508186809179
11578821 258 9727642692151087171
11638347 137 18261679259808115075
11719270 70 17775574152128812743
12107183 9 18272368697961077798
12539765 74 11747199253059009113
12592606 108 18410012130541622171
13383668 362 17915725677884911810
13533116 47 18340767138903554848
13673619 4 17968094201192911884
13685833 64 18409448072934817012
13692115 27 18340772533989308876
13782708 43 17967810552572099061
14202775 3 18188494701055275715
14347424 109 18272369806405622296
14675020 138 15339125632302445700
150020 25 14129069097027753826
15198563 99 16081361917710869447
15419008 145 18271810065025094449
1577012 14 17917149519836913437
16994733 274 11167944649698051791
1754911 235 11602542017844276795
19301679 30 18200597995396952420
1979834 28 17346602937763521134
19841028 212 18409448115362153691
20028762 73 18273216383082779742
20165401 70 18412541046003789231
2026 5 18335136436689068579
20982279 24 17895774941016037315
21033648 29 12967126142359566060
21130935 74 18196091260691213443
21267235 1 18411139117317666996
21344244 78 17704070690545662408
21365058 113 17240206538300804644
21585481 151 18059577962586831150
21792934 111 17489868224694404873
21895431 317 18409443657746445163
23522609 53 18120126972322002444
23569917 315 18339084895531732327
23569943 247 18188206499040921787
23576562 1 13263263137292564779
25242607 90 18342165640927876746
255183 451 18334017177455546692
306946 40 13829854566161781395
3383291 50 18411416198327316314
34797466 226 16371007459321287149
3504750 166 18201996617300771429
406291 66 18410854339215739290
4073 2 18045784751860285088
42767 46 18410851053497745019
437795 160 15841261641390608903
4403749 210 11311766298898934933
444735 82 10159708992423104867
445580 126 10015582788335889782
4516262 110 18045503277116619100
4616759 239 16271934840027595139
5080951 261 15195267730712939069
5104073 3 18059574762239433977
54039377 194 18335140835747948718
6058803 2 17770772721656564645
6081469 158 17967530177940394981
9962374 69 18340481253226987702

> <PUBCHEM_SHAPE_MULTIPOLES>
602.26
29.04
3.16
1.3
36.89
2.16
-0.05
-26.89
-6.66
-5.89
-0.02
-0.68
-0.65
-1.58

> <PUBCHEM_SHAPE_SELFOVERLAP>
1306.322

> <PUBCHEM_SHAPE_VOLUME>
331.4

> <PUBCHEM_COORDINATE_TYPE>
2
5
10

$$$$
