25210579
  -OEChem-10052115173D

 62 66  0     0  0  0  0  0  0999 V2000
    5.9379   -0.0826   -0.9200 F   0  0  0  0  0  0  0  0  0  0  0  0
    6.5797   -1.9551    0.0062 F   0  0  0  0  0  0  0  0  0  0  0  0
    6.8292   -0.0812    1.1024 F   0  0  0  0  0  0  0  0  0  0  0  0
   -6.2633   -0.8897   -1.5781 O   0  0  0  0  0  0  0  0  0  0  0  0
    4.7323   -0.9487    0.8193 O   0  0  0  0  0  0  0  0  0  0  0  0
    0.8268    2.8637   -0.1986 N   0  0  0  0  0  0  0  0  0  0  0  0
   -1.1715    4.8876   -0.4635 N   0  0  0  0  0  0  0  0  0  0  0  0
   -2.5889   -1.4718    1.0829 N   0  0  0  0  0  0  0  0  0  0  0  0
   -6.2901    0.1657    0.4779 N   0  0  0  0  0  0  0  0  0  0  0  0
    2.3601   -1.7221   -0.4819 N   0  0  0  0  0  0  0  0  0  0  0  0
    0.0281   -1.8816   -0.3285 N   0  0  0  0  0  0  0  0  0  0  0  0
    1.3555   -3.7643   -1.0362 N   0  0  0  0  0  0  0  0  0  0  0  0
    1.2193    4.2584   -0.4224 C   0  0  0  0  0  0  0  0  0  0  0  0
   -0.5048    2.6647    0.3874 C   0  0  0  0  0  0  0  0  0  0  0  0
    0.1134    5.0159   -1.1616 C   0  0  0  0  0  0  0  0  0  0  0  0
   -1.5546    3.4727   -0.3787 C   0  0  0  0  0  0  0  0  0  0  0  0
    1.8078    1.8988    0.0554 C   0  0  0  0  0  0  0  0  0  0  0  0
   -3.8394   -0.9248    1.0622 C   0  0  0  0  0  0  0  0  0  0  0  0
   -4.5321   -0.2841    2.2045 C   0  0  0  0  0  0  0  0  0  0  0  0
   -2.2074    5.6592   -1.1494 C   0  0  0  0  0  0  0  0  0  0  0  0
   -4.3716   -1.0855   -0.1997 C   0  0  0  0  0  0  0  0  0  0  0  0
   -2.3120   -1.9932   -0.1573 C   0  0  0  0  0  0  0  0  0  0  0  0
   -5.5639    0.6976    1.6365 C   0  0  0  0  0  0  0  0  0  0  0  0
   -3.4040   -1.7718   -0.9725 C   0  0  0  0  0  0  0  0  0  0  0  0
    1.6026    0.5754   -0.3347 C   0  0  0  0  0  0  0  0  0  0  0  0
    2.9914    2.2606    0.6990 C   0  0  0  0  0  0  0  0  0  0  0  0
   -5.7035   -0.6100   -0.5221 C   0  0  0  0  0  0  0  0  0  0  0  0
    2.5808   -0.3862   -0.0813 C   0  0  0  0  0  0  0  0  0  0  0  0
   -1.7090   -1.5111    2.2318 C   0  0  0  0  0  0  0  0  0  0  0  0
   -1.0714   -2.6499   -0.4732 C   0  0  0  0  0  0  0  0  0  0  0  0
    3.9696    1.2991    0.9523 C   0  0  0  0  0  0  0  0  0  0  0  0
    3.7643   -0.0243    0.5620 C   0  0  0  0  0  0  0  0  0  0  0  0
    1.1913   -2.4932   -0.6228 C   0  0  0  0  0  0  0  0  0  0  0  0
   -1.0385   -3.9652   -0.8894 C   0  0  0  0  0  0  0  0  0  0  0  0
    0.2151   -4.4749   -1.1592 C   0  0  0  0  0  0  0  0  0  0  0  0
    6.0209   -0.7482    0.2515 C   0  0  0  0  0  0  0  0  0  0  0  0
    1.4207    4.7488    0.5387 H   0  0  0  0  0  0  0  0  0  0  0  0
    2.1315    4.3126   -1.0296 H   0  0  0  0  0  0  0  0  0  0  0  0
   -0.8057    1.6107    0.3671 H   0  0  0  0  0  0  0  0  0  0  0  0
   -0.4849    2.9737    1.4405 H   0  0  0  0  0  0  0  0  0  0  0  0
    0.4036    6.0718   -1.2233 H   0  0  0  0  0  0  0  0  0  0  0  0
    0.0348    4.6383   -2.1902 H   0  0  0  0  0  0  0  0  0  0  0  0
   -1.6865    3.0450   -1.3819 H   0  0  0  0  0  0  0  0  0  0  0  0
   -2.5126    3.3741    0.1464 H   0  0  0  0  0  0  0  0  0  0  0  0
   -5.0405   -1.0574    2.7923 H   0  0  0  0  0  0  0  0  0  0  0  0
   -3.8461    0.2526    2.8671 H   0  0  0  0  0  0  0  0  0  0  0  0
   -3.1576    5.5924   -0.6081 H   0  0  0  0  0  0  0  0  0  0  0  0
   -2.3708    5.3142   -2.1769 H   0  0  0  0  0  0  0  0  0  0  0  0
   -1.9382    6.7208   -1.1807 H   0  0  0  0  0  0  0  0  0  0  0  0
   -6.2979    0.9773    2.3986 H   0  0  0  0  0  0  0  0  0  0  0  0
   -5.0655    1.6119    1.2924 H   0  0  0  0  0  0  0  0  0  0  0  0
   -3.4931   -2.0690   -2.0090 H   0  0  0  0  0  0  0  0  0  0  0  0
    0.7010    0.3339   -0.8891 H   0  0  0  0  0  0  0  0  0  0  0  0
    3.1783    3.2778    1.0310 H   0  0  0  0  0  0  0  0  0  0  0  0
   -7.2283    0.5161    0.3106 H   0  0  0  0  0  0  0  0  0  0  0  0
   -1.0401   -0.6486    2.1774 H   0  0  0  0  0  0  0  0  0  0  0  0
   -2.2993   -1.4756    3.1503 H   0  0  0  0  0  0  0  0  0  0  0  0
   -1.1403   -2.4442    2.2296 H   0  0  0  0  0  0  0  0  0  0  0  0
    4.8814    1.5937    1.4644 H   0  0  0  0  0  0  0  0  0  0  0  0
    3.2082   -2.2723   -0.5794 H   0  0  0  0  0  0  0  0  0  0  0  0
   -1.9280   -4.5729   -0.9997 H   0  0  0  0  0  0  0  0  0  0  0  0
    0.3413   -5.4998   -1.4914 H   0  0  0  0  0  0  0  0  0  0  0  0
  1 36  1  0  0  0  0
  2 36  1  0  0  0  0
  3 36  1  0  0  0  0
  4 27  2  0  0  0  0
  5 32  1  0  0  0  0
  5 36  1  0  0  0  0
  6 13  1  0  0  0  0
  6 14  1  0  0  0  0
  6 17  1  0  0  0  0
  7 15  1  0  0  0  0
  7 16  1  0  0  0  0
  7 20  1  0  0  0  0
  8 18  1  0  0  0  0
  8 22  1  0  0  0  0
  8 29  1  0  0  0  0
  9 23  1  0  0  0  0
  9 27  1  0  0  0  0
  9 55  1  0  0  0  0
 10 28  1  0  0  0  0
 10 33  1  0  0  0  0
 10 60  1  0  0  0  0
 11 30  2  0  0  0  0
 11 33  1  0  0  0  0
 12 33  2  0  0  0  0
 12 35  1  0  0  0  0
 13 15  1  0  0  0  0
 13 37  1  0  0  0  0
 13 38  1  0  0  0  0
 14 16  1  0  0  0  0
 14 39  1  0  0  0  0
 14 40  1  0  0  0  0
 15 41  1  0  0  0  0
 15 42  1  0  0  0  0
 16 43  1  0  0  0  0
 16 44  1  0  0  0  0
 17 25  2  0  0  0  0
 17 26  1  0  0  0  0
 18 19  1  0  0  0  0
 18 21  2  0  0  0  0
 19 23  1  0  0  0  0
 19 45  1  0  0  0  0
 19 46  1  0  0  0  0
 20 47  1  0  0  0  0
 20 48  1  0  0  0  0
 20 49  1  0  0  0  0
 21 24  1  0  0  0  0
 21 27  1  0  0  0  0
 22 24  2  0  0  0  0
 22 30  1  0  0  0  0
 23 50  1  0  0  0  0
 23 51  1  0  0  0  0
 24 52  1  0  0  0  0
 25 28  1  0  0  0  0
 25 53  1  0  0  0  0
 26 31  2  0  0  0  0
 26 54  1  0  0  0  0
 28 32  2  0  0  0  0
 29 56  1  0  0  0  0
 29 57  1  0  0  0  0
 29 58  1  0  0  0  0
 30 34  1  0  0  0  0
 31 32  1  0  0  0  0
 31 59  1  0  0  0  0
 34 35  2  0  0  0  0
 34 61  1  0  0  0  0
 35 62  1  0  0  0  0
M  END
> <PUBCHEM_COMPOUND_CID>
25210579

> <PUBCHEM_CONFORMER_RMSD>
1

> <PUBCHEM_CONFORMER_DIVERSEORDER>
1
89
134
131
53
109
148
51
103
78
115
139
140
144
121
23
34
58
104
76
97
84
145
130
99
96
56
123
64
46
136
3
126
125
35
4
42
71
119
61
111
85
14
79
138
132
110
45
55
83
16
44
48
80
101
105
114
72
112
108
70
12
69
20
47
129
122
87
38
59
124
10
135
94
118
37
41
117
73
60
65
102
7
33
62
133
120
88
28
77
9
81
98
54
22
75
128
143
141
137
24
29
19
93
146
95
116
57
32
18
50
63
17
82
36
2
127
147
90
40
43
6
68
91
100
8
52
39
13
113
86
30
25
74
26
49
142
106
11
27
21
67
15
92
66
107
5
31

> <PUBCHEM_MMFF94_PARTIAL_CHARGES>
44
1 -0.34
10 -0.6
11 -0.62
12 -0.62
13 0.37
14 0.37
15 0.27
16 0.27
17 0.1
18 -0.33
19 0.18
2 -0.34
20 0.27
21 -0.09
22 -0.2
23 0.3
24 -0.15
25 -0.15
26 -0.15
27 0.72
28 0.1
29 0.26
3 -0.34
30 0.36
31 -0.15
32 0.08
33 0.72
34 -0.15
35 0.16
36 1.3
4 -0.57
5 -0.36
52 0.15
53 0.15
54 0.15
55 0.37
59 0.15
6 -0.84
60 0.4
61 0.15
62 0.15
7 -0.81
8 0.05
9 -0.73

> <PUBCHEM_EFFECTIVE_ROTOR_COUNT>
7.8

> <PUBCHEM_PHARMACOPHORE_FEATURES>
14
1 10 donor
1 11 acceptor
1 4 acceptor
1 5 acceptor
1 6 cation
1 7 cation
1 8 cation
1 9 donor
4 10 11 12 33 cation
5 8 18 21 22 24 rings
6 11 12 30 33 34 35 rings
6 17 25 26 28 31 32 rings
6 6 7 13 14 15 16 rings
6 9 18 19 21 23 27 rings

> <PUBCHEM_HEAVY_ATOM_COUNT>
36

> <PUBCHEM_ATOM_DEF_STEREO_COUNT>
0

> <PUBCHEM_ATOM_UDEF_STEREO_COUNT>
0

> <PUBCHEM_BOND_DEF_STEREO_COUNT>
0

> <PUBCHEM_BOND_UDEF_STEREO_COUNT>
0

> <PUBCHEM_ISOTOPIC_ATOM_COUNT>
0

> <PUBCHEM_COMPONENT_COUNT>
1

> <PUBCHEM_CACTVS_TAUTO_COUNT>
6

> <PUBCHEM_CONFORMER_ID>
0180AED300000001

> <PUBCHEM_MMFF94_ENERGY>
114.2708

> <PUBCHEM_FEATURE_SELFOVERLAP>
71.147

> <PUBCHEM_SHAPE_FINGERPRINT>
10815517 723 18273212010700116044
10940486 97 17912081961192047142
11513181 2 17130442198316405767
11763389 116 18269551646107266463
12166972 35 18128535053681739963
12788726 201 18187075114444543456
12978246 48 17908428300958074699
13402501 40 18410007724047341573
13583140 156 18041559260309382043
14028597 1 17531791486432908082
14068700 675 18060138751643935136
14117953 113 18413390925694770541
15219462 58 17390818586430693739
15276724 80 18412825798963310084
15483637 11 18050283666084680013
15927050 60 17835798599706566893
15968369 26 17255951278806751204
16087824 20 18410571773423148660
16112460 7 18271529800754245040
16993438 75 18191584151253116392
20764821 26 18410287043161856541
21133410 38 17842563942814798553
21298829 104 18130795504060323369
21796203 349 17975171813027750305
22113638 7 18268146642298672869
25223398 141 18262515897609676660
340366 18 18267585895368296291
46939830 39 17676492769355816781
474 4 18343586256984886035
513202 73 18264774260133247354
5171179 24 17839750266103986470
6328613 192 18198347450003601616

> <PUBCHEM_SHAPE_MULTIPOLES>
672.44
12.97
7.08
1.46
3.87
8.74
0.56
-4.74
3.27
-0.48
-4.15
-1.51
-0.24
0.21

> <PUBCHEM_SHAPE_SELFOVERLAP>
1468.834

> <PUBCHEM_SHAPE_VOLUME>
366.4

> <PUBCHEM_COORDINATE_TYPE>
2
5
10

$$$$
