44352818
  -OEChem-10052115163D

 67 74  0     1  0  0  0  0  0999 V2000
   -5.7712   -0.2339   -0.5120 S   0  0  0  0  0  0  0  0  0  0  0  0
   -1.1354   -0.2381    1.9609 O   0  0  0  0  0  0  0  0  0  0  0  0
   -1.7262    0.4930   -1.2391 O   0  0  0  0  0  0  0  0  0  0  0  0
   -5.6884    0.9013    0.3875 O   0  0  0  0  0  0  0  0  0  0  0  0
   -6.4349   -0.1017   -1.7953 O   0  0  0  0  0  0  0  0  0  0  0  0
    5.6038   -1.5566   -0.6736 O   0  0  0  0  0  0  0  0  0  0  0  0
   -0.1516    1.4398    0.6857 N   0  0  0  0  0  0  0  0  0  0  0  0
    0.2835   -1.5287    0.6447 N   0  0  0  0  0  0  0  0  0  0  0  0
   -4.1972   -0.8932   -0.7399 N   0  0  1  0  0  0  0  0  0  0  0  0
    5.6827    0.7804   -0.7564 N   0  0  0  0  0  0  0  0  0  0  0  0
   -1.4219    0.9127    1.1612 C   0  0  1  0  0  0  0  0  0  0  0  0
   -2.4255    0.6424    0.0044 C   0  0  2  0  0  0  0  0  0  0  0  0
   -3.2015   -0.6439    0.2738 C   0  0  2  0  0  0  0  0  0  0  0  0
   -1.0157   -1.4591    1.2732 C   0  0  2  0  0  0  0  0  0  0  0  0
   -2.2093   -1.7994    0.3691 C   0  0  0  0  0  0  0  0  0  0  0  0
    1.0467    0.8156    0.4276 C   0  0  0  0  0  0  0  0  0  0  0  0
    1.2518   -0.5952    0.3980 C   0  0  0  0  0  0  0  0  0  0  0  0
    2.2111    1.5988    0.0814 C   0  0  0  0  0  0  0  0  0  0  0  0
    2.5946   -1.0163    0.0330 C   0  0  0  0  0  0  0  0  0  0  0  0
   -2.0916    1.8099    2.2287 C   0  0  0  0  0  0  0  0  0  0  0  0
    0.1495    2.7643    0.3361 C   0  0  0  0  0  0  0  0  0  0  0  0
    0.9638   -2.7228    0.3849 C   0  0  0  0  0  0  0  0  0  0  0  0
    1.5470    2.8974    0.0746 C   0  0  0  0  0  0  0  0  0  0  0  0
    3.5074    1.1782   -0.1975 C   0  0  0  0  0  0  0  0  0  0  0  0
    3.6913   -0.1955   -0.2215 C   0  0  0  0  0  0  0  0  0  0  0  0
    2.3209   -2.4585    0.0338 C   0  0  0  0  0  0  0  0  0  0  0  0
    4.7709    1.8866   -0.5545 C   0  0  0  0  0  0  0  0  0  0  0  0
   -0.6929    3.8882    0.2067 C   0  0  0  0  0  0  0  0  0  0  0  0
   -4.1024   -2.2659   -1.3040 C   0  0  0  0  0  0  0  0  0  0  0  0
    5.0847   -0.4624   -0.5725 C   0  0  0  0  0  0  0  0  0  0  0  0
    0.4756   -4.0448    0.4557 C   0  0  0  0  0  0  0  0  0  0  0  0
    2.0582    4.1871   -0.2199 C   0  0  0  0  0  0  0  0  0  0  0  0
    3.1445   -3.5776   -0.2516 C   0  0  0  0  0  0  0  0  0  0  0  0
   -2.5837    0.7131   -2.3517 C   0  0  0  0  0  0  0  0  0  0  0  0
   -0.1496    5.1395   -0.0954 C   0  0  0  0  0  0  0  0  0  0  0  0
    1.2121    5.2932   -0.2902 C   0  0  0  0  0  0  0  0  0  0  0  0
   -6.5735   -1.5558    0.3701 C   0  0  0  0  0  0  0  0  0  0  0  0
    1.3265   -5.1107    0.1673 C   0  0  0  0  0  0  0  0  0  0  0  0
    2.6458   -4.8815   -0.1833 C   0  0  0  0  0  0  0  0  0  0  0  0
   -3.0924    1.5092   -0.0806 H   0  0  0  0  0  0  0  0  0  0  0  0
   -3.6983   -0.5680    1.2501 H   0  0  0  0  0  0  0  0  0  0  0  0
   -0.9821   -2.2168    2.0669 H   0  0  0  0  0  0  0  0  0  0  0  0
   -2.6941   -2.6832    0.8031 H   0  0  0  0  0  0  0  0  0  0  0  0
   -1.7934   -2.1002   -0.5978 H   0  0  0  0  0  0  0  0  0  0  0  0
   -2.5786    2.6963    1.8211 H   0  0  0  0  0  0  0  0  0  0  0  0
   -1.3631    2.1351    2.9817 H   0  0  0  0  0  0  0  0  0  0  0  0
   -2.8658    1.2525    2.7718 H   0  0  0  0  0  0  0  0  0  0  0  0
    4.6854    2.4495   -1.4871 H   0  0  0  0  0  0  0  0  0  0  0  0
    5.1428    2.5124    0.2603 H   0  0  0  0  0  0  0  0  0  0  0  0
   -1.7678    3.8081    0.3161 H   0  0  0  0  0  0  0  0  0  0  0  0
   -4.9272   -2.4039   -2.0149 H   0  0  0  0  0  0  0  0  0  0  0  0
   -4.2163   -3.0528   -0.5548 H   0  0  0  0  0  0  0  0  0  0  0  0
   -3.2125   -2.4065   -1.9218 H   0  0  0  0  0  0  0  0  0  0  0  0
   -0.5561   -4.2461    0.7291 H   0  0  0  0  0  0  0  0  0  0  0  0
    3.1182    4.3230   -0.4193 H   0  0  0  0  0  0  0  0  0  0  0  0
    4.1830   -3.4470   -0.5336 H   0  0  0  0  0  0  0  0  0  0  0  0
    6.6589    0.8975   -1.0090 H   0  0  0  0  0  0  0  0  0  0  0  0
   -1.9849    1.2099   -3.1221 H   0  0  0  0  0  0  0  0  0  0  0  0
   -3.4362    1.3651   -2.1380 H   0  0  0  0  0  0  0  0  0  0  0  0
   -2.9062   -0.2347   -2.7854 H   0  0  0  0  0  0  0  0  0  0  0  0
   -0.8073    6.0004   -0.1831 H   0  0  0  0  0  0  0  0  0  0  0  0
    1.6211    6.2716   -0.5254 H   0  0  0  0  0  0  0  0  0  0  0  0
   -7.5683   -1.2062    0.6569 H   0  0  0  0  0  0  0  0  0  0  0  0
   -6.6715   -2.4277   -0.2777 H   0  0  0  0  0  0  0  0  0  0  0  0
   -5.9977   -1.7894    1.2673 H   0  0  0  0  0  0  0  0  0  0  0  0
    0.9491   -6.1282    0.2190 H   0  0  0  0  0  0  0  0  0  0  0  0
    3.3004   -5.7193   -0.4075 H   0  0  0  0  0  0  0  0  0  0  0  0
  1  4  2  0  0  0  0
  1  5  2  0  0  0  0
  1  9  1  0  0  0  0
  1 37  1  0  0  0  0
  2 11  1  0  0  0  0
  2 14  1  0  0  0  0
  3 12  1  0  0  0  0
  3 34  1  0  0  0  0
  6 30  2  0  0  0  0
  7 11  1  0  0  0  0
  7 16  1  0  0  0  0
  7 21  1  0  0  0  0
  8 14  1  0  0  0  0
  8 17  1  0  0  0  0
  8 22  1  0  0  0  0
  9 13  1  0  0  0  0
  9 29  1  0  0  0  0
 10 27  1  0  0  0  0
 10 30  1  0  0  0  0
 10 57  1  0  0  0  0
 11 12  1  0  0  0  0
 11 20  1  0  0  0  0
 12 13  1  0  0  0  0
 12 40  1  0  0  0  0
 13 15  1  0  0  0  0
 13 41  1  0  0  0  0
 14 15  1  0  0  0  0
 14 42  1  0  0  0  0
 15 43  1  0  0  0  0
 15 44  1  0  0  0  0
 16 17  2  0  0  0  0
 16 18  1  0  0  0  0
 17 19  1  0  0  0  0
 18 23  1  0  0  0  0
 18 24  2  0  0  0  0
 19 25  2  0  0  0  0
 19 26  1  0  0  0  0
 20 45  1  0  0  0  0
 20 46  1  0  0  0  0
 20 47  1  0  0  0  0
 21 23  1  0  0  0  0
 21 28  2  0  0  0  0
 22 26  1  0  0  0  0
 22 31  2  0  0  0  0
 23 32  2  0  0  0  0
 24 25  1  0  0  0  0
 24 27  1  0  0  0  0
 25 30  1  0  0  0  0
 26 33  2  0  0  0  0
 27 48  1  0  0  0  0
 27 49  1  0  0  0  0
 28 35  1  0  0  0  0
 28 50  1  0  0  0  0
 29 51  1  0  0  0  0
 29 52  1  0  0  0  0
 29 53  1  0  0  0  0
 31 38  1  0  0  0  0
 31 54  1  0  0  0  0
 32 36  1  0  0  0  0
 32 55  1  0  0  0  0
 33 39  1  0  0  0  0
 33 56  1  0  0  0  0
 34 58  1  0  0  0  0
 34 59  1  0  0  0  0
 34 60  1  0  0  0  0
 35 36  2  0  0  0  0
 35 61  1  0  0  0  0
 36 62  1  0  0  0  0
 37 63  1  0  0  0  0
 37 64  1  0  0  0  0
 37 65  1  0  0  0  0
 38 39  2  0  0  0  0
 38 66  1  0  0  0  0
 39 67  1  0  0  0  0
M  END
> <PUBCHEM_COMPOUND_CID>
44352818

> <PUBCHEM_CONFORMER_RMSD>
0.8

> <PUBCHEM_CONFORMER_DIVERSEORDER>
2
6
5
1
3
4

> <PUBCHEM_MMFF94_PARTIAL_CHARGES>
44
1 1.33
10 -0.73
11 0.54
12 0.28
13 0.36
14 0.54
16 -0.05
17 -0.05
18 -0.01
19 -0.01
2 -0.56
21 -0.15
22 -0.15
24 -0.14
25 0.09
27 0.44
28 -0.15
29 0.36
3 -0.56
30 0.54
31 -0.15
32 -0.15
33 -0.15
34 0.28
35 -0.15
36 -0.15
37 0.11
38 -0.15
39 -0.15
4 -0.65
5 -0.65
50 0.15
54 0.15
55 0.15
56 0.15
57 0.37
6 -0.57
61 0.15
62 0.15
66 0.15
67 0.15
7 -0.04
8 -0.04
9 -0.85

> <PUBCHEM_EFFECTIVE_ROTOR_COUNT>
4.2

> <PUBCHEM_PHARMACOPHORE_FEATURES>
16
1 10 donor
1 2 acceptor
1 3 acceptor
1 4 acceptor
1 5 acceptor
1 6 acceptor
1 7 cation
1 8 cation
5 10 24 25 27 30 rings
5 7 16 18 21 23 rings
5 8 17 19 22 26 rings
6 16 17 18 19 24 25 rings
6 2 11 12 13 14 15 rings
6 21 23 28 32 35 36 rings
6 22 26 31 33 38 39 rings
7 2 7 8 11 14 16 17 rings

> <PUBCHEM_HEAVY_ATOM_COUNT>
39

> <PUBCHEM_ATOM_DEF_STEREO_COUNT>
4

> <PUBCHEM_ATOM_UDEF_STEREO_COUNT>
0

> <PUBCHEM_BOND_DEF_STEREO_COUNT>
0

> <PUBCHEM_BOND_UDEF_STEREO_COUNT>
0

> <PUBCHEM_ISOTOPIC_ATOM_COUNT>
0

> <PUBCHEM_COMPONENT_COUNT>
1

> <PUBCHEM_CACTVS_TAUTO_COUNT>
2

> <PUBCHEM_CONFORMER_ID>
02A4C53200000002

> <PUBCHEM_MMFF94_ENERGY>
180.385

> <PUBCHEM_FEATURE_SELFOVERLAP>
82.174

> <PUBCHEM_SHAPE_FINGERPRINT>
10653451 467 17898587607755952579
10675989 125 18409169905098625108
10693767 8 18202277000744249398
10930396 42 18124565779121661992
1100329 8 18051139391205110330
11115154 58 17846492631104860153
11135609 187 18338237171258861480
11445158 3 17465142535683703721
11513181 2 17837498453684643110
11763715 3 18049188595283913047
12788726 201 18190736436383148408
13140716 1 17545344307075200194
1361 2 18339077219353106827
13911987 19 18262252109202276492
14068700 675 18131348635085626432
14681490 219 18337953385409975277
14790565 3 17978516661054860515
15320467 1 18410577309466694263
15324884 4 17463130489592041713
15328829 1 17702967893409758331
15420108 30 17625282822361772281
15439362 3 18050566545310506953
15444296 8 17695915423106313055
15484559 13 18412258471473422006
15927050 60 17690008838937687772
18681886 176 18339637962168338978
19319366 153 18056191617281096197
19930381 70 18409449167587033666
20028762 73 18272089371180548446
20642791 105 16827832800023520472
20775438 99 17617050825869626173
21133410 171 17468148364188122939
23559900 14 18268143339490291801
24771293 8 18128805525379740328
24771750 20 17971767824128674189
283562 15 18341057316027280776
3178227 256 18337965605014211739
3882209 13 17685183128999894026
4353968 344 18196657294690266198
46194498 28 17822289144991094013
463206 1 18410291445076267951
484989 97 17976263756997171931
6004065 56 18339919436733709521
70251023 43 18121219770878315507
9961470 85 17838895190245875664

> <PUBCHEM_SHAPE_MULTIPOLES>
757.18
10.75
6.87
1.3
10.46
1.18
0.05
-3.46
4.13
-5.85
-0.06
1.44
0.2
-0.44

> <PUBCHEM_SHAPE_SELFOVERLAP>
1716.109

> <PUBCHEM_SHAPE_VOLUME>
399.6

> <PUBCHEM_COORDINATE_TYPE>
2
5
10

$$$$
