9834334
  -OEChem-10062121553D

 16 17  0     0  0  0  0  0  0999 V2000
   -3.6450   -1.0947   -0.0003 Br  0  0  0  0  0  0  0  0  0  0  0  0
    2.4239    0.2944   -0.0001 N   0  0  0  0  0  0  0  0  0  0  0  0
    1.7380    1.4568   -0.0002 N   0  0  0  0  0  0  0  0  0  0  0  0
   -0.6550    1.8522    0.0001 N   0  0  0  0  0  0  0  0  0  0  0  0
    2.2025   -2.0529    0.0002 N   0  0  0  0  0  0  0  0  0  0  0  0
    0.3571   -0.3584    0.0000 C   0  0  0  0  0  0  0  0  0  0  0  0
    1.6416   -0.8282   -0.0001 C   0  0  0  0  0  0  0  0  0  0  0  0
    0.4585    1.0662    0.0000 C   0  0  0  0  0  0  0  0  0  0  0  0
   -0.7937   -1.1320    0.0000 C   0  0  0  0  0  0  0  0  0  0  0  0
   -1.9237   -0.3072    0.0002 C   0  0  0  0  0  0  0  0  0  0  0  0
   -1.8043    1.1038    0.0002 C   0  0  0  0  0  0  0  0  0  0  0  0
   -0.8267   -2.2122   -0.0001 H   0  0  0  0  0  0  0  0  0  0  0  0
    3.4350    0.3391   -0.0001 H   0  0  0  0  0  0  0  0  0  0  0  0
   -2.7034    1.7189    0.0002 H   0  0  0  0  0  0  0  0  0  0  0  0
    1.6446   -2.9011    0.0004 H   0  0  0  0  0  0  0  0  0  0  0  0
    3.2085   -2.1908    0.0002 H   0  0  0  0  0  0  0  0  0  0  0  0
  1 10  1  0  0  0  0
  2  3  1  0  0  0  0
  2  7  1  0  0  0  0
  2 13  1  0  0  0  0
  3  8  2  0  0  0  0
  4  8  1  0  0  0  0
  4 11  2  0  0  0  0
  5  7  1  0  0  0  0
  5 15  1  0  0  0  0
  5 16  1  0  0  0  0
  6  7  2  0  0  0  0
  6  8  1  0  0  0  0
  6  9  1  0  0  0  0
  9 10  2  0  0  0  0
  9 12  1  0  0  0  0
 10 11  1  0  0  0  0
 11 14  1  0  0  0  0
M  END
> <PUBCHEM_COMPOUND_CID>
9834334

> <PUBCHEM_CONFORMER_RMSD>
0.4

> <PUBCHEM_CONFORMER_DIVERSEORDER>
1

> <PUBCHEM_MMFF94_PARTIAL_CHARGES>
15
1 -0.11
10 0.11
11 0.16
12 0.15
13 0.27
14 0.15
15 0.4
16 0.4
2 0.3
3 -0.71
4 -0.57
5 -0.88
7 -0.07
8 0.54
9 -0.15

> <PUBCHEM_EFFECTIVE_ROTOR_COUNT>
0

> <PUBCHEM_PHARMACOPHORE_FEATURES>
8
1 1 hydrophobe
1 2 donor
1 4 acceptor
1 5 cation
1 5 donor
3 3 4 8 cation
5 2 3 6 7 8 rings
6 4 6 8 9 10 11 rings

> <PUBCHEM_HEAVY_ATOM_COUNT>
11

> <PUBCHEM_ATOM_DEF_STEREO_COUNT>
0

> <PUBCHEM_ATOM_UDEF_STEREO_COUNT>
0

> <PUBCHEM_BOND_DEF_STEREO_COUNT>
0

> <PUBCHEM_BOND_UDEF_STEREO_COUNT>
0

> <PUBCHEM_ISOTOPIC_ATOM_COUNT>
0

> <PUBCHEM_COMPONENT_COUNT>
1

> <PUBCHEM_CACTVS_TAUTO_COUNT>
7

> <PUBCHEM_CONFORMER_ID>
00960F5E00000001

> <PUBCHEM_MMFF94_ENERGY>
23.0058

> <PUBCHEM_FEATURE_SELFOVERLAP>
40.784

> <PUBCHEM_SHAPE_FINGERPRINT>
12897270 3 18337674221083432781
14128692 85 18338805494200168966
14325111 11 18410855482125257185
161256 15 18411702097045689508
16945 1 18338516455596171845
193761 8 18338516318152080037
19973954 147 18410856512479694773
20201158 50 18262517108362757283
20645477 70 18411131459792411759
20871998 184 18057879147774348639
20871998 22 18270970024797550894
21040471 1 17834394514678083360
21501502 16 18338804415957662241
21501925 9 18337658763501701706
23402655 69 18340189844597596197
23552423 10 18261116231490234270
23559900 14 17549539610040614262
241688 4 18263926540224357177
2748010 2 18339074891575882021
29004967 10 18335706090985302529
5084963 1 18272650108565857451
528886 8 18195523924684535347

> <PUBCHEM_SHAPE_MULTIPOLES>
212.39
4.28
1.9
0.6
2.73
0.03
0
-1.55
0
-0.55
0
0.1
-0.02
0

> <PUBCHEM_SHAPE_SELFOVERLAP>
452.223

> <PUBCHEM_SHAPE_VOLUME>
122.8

> <PUBCHEM_COORDINATE_TYPE>
2
5
10

$$$$
