44355186
  -OEChem-10062122013D

 68 74  0     1  0  0  0  0  0999 V2000
    4.2412   -0.4622    1.0596 O   0  0  0  0  0  0  0  0  0  0  0  0
    3.5615    1.9439   -1.5016 O   0  0  0  0  0  0  0  0  0  0  0  0
    6.3038    0.5280   -1.7023 O   0  0  0  0  0  0  0  0  0  0  0  0
    6.5865   -1.4638    2.2519 O   0  0  0  0  0  0  0  0  0  0  0  0
   -2.8531   -2.8801   -0.7231 O   0  0  0  0  0  0  0  0  0  0  0  0
   -4.2018    1.5533   -0.4686 O   0  0  0  0  0  0  0  0  0  0  0  0
    3.7448   -5.0307   -0.1540 O   0  0  0  0  0  0  0  0  0  0  0  0
    0.0995    6.9334    0.5354 O   0  0  0  0  0  0  0  0  0  0  0  0
   -6.0750   -3.0249    2.2076 O   0  0  0  0  0  0  0  0  0  0  0  0
   -7.6331    0.1313   -0.1295 O   0  0  0  0  0  0  0  0  0  0  0  0
    2.0205   -0.4679    0.0711 N   0  0  0  0  0  0  0  0  0  0  0  0
    1.2111    2.1893    0.2236 N   0  0  0  0  0  0  0  0  0  0  0  0
   -3.8953   -0.7732   -0.6492 N   0  0  0  0  0  0  0  0  0  0  0  0
   -5.2019   -1.1513   -0.8368 N   0  0  0  0  0  0  0  0  0  0  0  0
    3.2951    0.3108    0.2918 C   0  0  2  0  0  0  0  0  0  0  0  0
    3.9950    0.6864   -1.0120 C   0  0  2  0  0  0  0  0  0  0  0  0
    0.7156   -0.1350   -0.0508 C   0  0  0  0  0  0  0  0  0  0  0  0
    5.4488    0.7184   -0.5914 C   0  0  1  0  0  0  0  0  0  0  0  0
    5.5065   -0.4501    0.3779 C   0  0  1  0  0  0  0  0  0  0  0  0
   -0.3167   -1.1093   -0.2625 C   0  0  0  0  0  0  0  0  0  0  0  0
    1.9525   -1.8463   -0.0656 C   0  0  0  0  0  0  0  0  0  0  0  0
    0.3084    1.2021    0.0259 C   0  0  0  0  0  0  0  0  0  0  0  0
    0.5934   -2.2641   -0.2639 C   0  0  0  0  0  0  0  0  0  0  0  0
   -1.6760   -0.8399   -0.3964 C   0  0  0  0  0  0  0  0  0  0  0  0
   -1.0974    1.4538   -0.1153 C   0  0  0  0  0  0  0  0  0  0  0  0
   -2.0811    0.4901   -0.3200 C   0  0  0  0  0  0  0  0  0  0  0  0
    6.6283   -0.3351    1.3941 C   0  0  0  0  0  0  0  0  0  0  0  0
   -0.9836    2.9122    0.0337 C   0  0  0  0  0  0  0  0  0  0  0  0
    0.3840    3.3024    0.2302 C   0  0  0  0  0  0  0  0  0  0  0  0
   -2.8529   -1.6703   -0.6108 C   0  0  0  0  0  0  0  0  0  0  0  0
    3.0106   -2.7673   -0.0277 C   0  0  0  0  0  0  0  0  0  0  0  0
   -3.5268    0.5432   -0.4838 C   0  0  0  0  0  0  0  0  0  0  0  0
    0.3613   -3.6520   -0.4209 C   0  0  0  0  0  0  0  0  0  0  0  0
    2.7272   -4.1242   -0.1879 C   0  0  0  0  0  0  0  0  0  0  0  0
    1.4236   -4.5617   -0.3818 C   0  0  0  0  0  0  0  0  0  0  0  0
   -1.9530    3.9440    0.0159 C   0  0  0  0  0  0  0  0  0  0  0  0
    0.7519    4.6461    0.3983 C   0  0  0  0  0  0  0  0  0  0  0  0
   -5.8468   -1.3893    0.4478 C   0  0  0  0  0  0  0  0  0  0  0  0
   -1.5752    5.2804    0.1845 C   0  0  0  0  0  0  0  0  0  0  0  0
   -0.2430    5.6241    0.3726 C   0  0  0  0  0  0  0  0  0  0  0  0
   -5.4986   -2.7986    0.9271 C   0  0  0  0  0  0  0  0  0  0  0  0
   -7.3599   -1.1956    0.3069 C   0  0  0  0  0  0  0  0  0  0  0  0
    3.0924    1.1035    1.0034 H   0  0  0  0  0  0  0  0  0  0  0  0
    3.8230   -0.0540   -1.8018 H   0  0  0  0  0  0  0  0  0  0  0  0
    5.7080    1.6695   -0.1127 H   0  0  0  0  0  0  0  0  0  0  0  0
    5.6413   -1.3914   -0.1643 H   0  0  0  0  0  0  0  0  0  0  0  0
    6.5028    0.5578    2.0153 H   0  0  0  0  0  0  0  0  0  0  0  0
    7.6052   -0.2996    0.9020 H   0  0  0  0  0  0  0  0  0  0  0  0
    2.2056    2.2489    0.1768 H   0  0  0  0  0  0  0  0  0  0  0  0
    4.0375   -2.4922    0.1089 H   0  0  0  0  0  0  0  0  0  0  0  0
   -0.6435   -4.0323   -0.5741 H   0  0  0  0  0  0  0  0  0  0  0  0
    3.8907    2.6368   -0.9044 H   0  0  0  0  0  0  0  0  0  0  0  0
    6.0758   -0.3176   -2.1246 H   0  0  0  0  0  0  0  0  0  0  0  0
    1.2170   -5.6221   -0.5054 H   0  0  0  0  0  0  0  0  0  0  0  0
   -3.0040    3.7152   -0.1284 H   0  0  0  0  0  0  0  0  0  0  0  0
    1.7949    4.9128    0.5452 H   0  0  0  0  0  0  0  0  0  0  0  0
   -5.6703   -0.3889   -1.3265 H   0  0  0  0  0  0  0  0  0  0  0  0
    7.3125   -1.3646    2.8911 H   0  0  0  0  0  0  0  0  0  0  0  0
   -5.5143   -0.6532    1.1939 H   0  0  0  0  0  0  0  0  0  0  0  0
   -2.3403    6.0529    0.1667 H   0  0  0  0  0  0  0  0  0  0  0  0
    4.5850   -4.5622   -0.0113 H   0  0  0  0  0  0  0  0  0  0  0  0
   -4.4263   -2.9352    1.0650 H   0  0  0  0  0  0  0  0  0  0  0  0
   -5.8712   -3.5637    0.2370 H   0  0  0  0  0  0  0  0  0  0  0  0
   -7.7851   -1.8947   -0.4221 H   0  0  0  0  0  0  0  0  0  0  0  0
   -7.8649   -1.3452    1.2667 H   0  0  0  0  0  0  0  0  0  0  0  0
    1.0628    6.9956    0.6542 H   0  0  0  0  0  0  0  0  0  0  0  0
   -5.8408   -3.9312    2.4710 H   0  0  0  0  0  0  0  0  0  0  0  0
   -8.5992    0.2130   -0.2049 H   0  0  0  0  0  0  0  0  0  0  0  0
  1 15  1  0  0  0  0
  1 19  1  0  0  0  0
  2 16  1  0  0  0  0
  2 52  1  0  0  0  0
  3 18  1  0  0  0  0
  3 53  1  0  0  0  0
  4 27  1  0  0  0  0
  4 58  1  0  0  0  0
  5 30  2  0  0  0  0
  6 32  2  0  0  0  0
  7 34  1  0  0  0  0
  7 61  1  0  0  0  0
  8 40  1  0  0  0  0
  8 66  1  0  0  0  0
  9 41  1  0  0  0  0
  9 67  1  0  0  0  0
 10 42  1  0  0  0  0
 10 68  1  0  0  0  0
 11 15  1  0  0  0  0
 11 17  1  0  0  0  0
 11 21  1  0  0  0  0
 12 22  1  0  0  0  0
 12 29  1  0  0  0  0
 12 49  1  0  0  0  0
 13 14  1  0  0  0  0
 13 30  1  0  0  0  0
 13 32  1  0  0  0  0
 14 38  1  0  0  0  0
 14 57  1  0  0  0  0
 15 16  1  0  0  0  0
 15 43  1  0  0  0  0
 16 18  1  0  0  0  0
 16 44  1  0  0  0  0
 17 20  1  0  0  0  0
 17 22  2  0  0  0  0
 18 19  1  0  0  0  0
 18 45  1  0  0  0  0
 19 27  1  0  0  0  0
 19 46  1  0  0  0  0
 20 23  1  0  0  0  0
 20 24  2  0  0  0  0
 21 23  2  0  0  0  0
 21 31  1  0  0  0  0
 22 25  1  0  0  0  0
 23 33  1  0  0  0  0
 24 26  1  0  0  0  0
 24 30  1  0  0  0  0
 25 26  2  0  0  0  0
 25 28  1  0  0  0  0
 26 32  1  0  0  0  0
 27 47  1  0  0  0  0
 27 48  1  0  0  0  0
 28 29  2  0  0  0  0
 28 36  1  0  0  0  0
 29 37  1  0  0  0  0
 31 34  2  0  0  0  0
 31 50  1  0  0  0  0
 33 35  2  0  0  0  0
 33 51  1  0  0  0  0
 34 35  1  0  0  0  0
 35 54  1  0  0  0  0
 36 39  2  0  0  0  0
 36 55  1  0  0  0  0
 37 40  2  0  0  0  0
 37 56  1  0  0  0  0
 38 41  1  0  0  0  0
 38 42  1  0  0  0  0
 38 59  1  0  0  0  0
 39 40  1  0  0  0  0
 39 60  1  0  0  0  0
 41 62  1  0  0  0  0
 41 63  1  0  0  0  0
 42 64  1  0  0  0  0
 42 65  1  0  0  0  0
M  END
> <PUBCHEM_COMPOUND_CID>
44355186

> <PUBCHEM_CONFORMER_RMSD>
1

> <PUBCHEM_CONFORMER_DIVERSEORDER>
1
2
3
4

> <PUBCHEM_MMFF94_PARTIAL_CHARGES>
55
1 -0.56
10 -0.68
11 -0.04
12 -0.05
13 -0.11
14 -0.64
15 0.54
16 0.28
17 -0.05
18 0.28
19 0.28
2 -0.68
20 -0.01
21 -0.15
22 -0.05
24 0.09
25 -0.01
26 0.09
27 0.28
29 -0.15
3 -0.68
30 0.54
31 -0.15
32 0.54
33 -0.15
34 0.08
35 -0.15
36 -0.15
37 -0.15
38 0.27
39 -0.15
4 -0.68
40 0.08
41 0.28
42 0.28
49 0.27
5 -0.57
50 0.15
51 0.15
52 0.4
53 0.4
54 0.15
55 0.15
56 0.15
57 0.36
58 0.4
6 -0.57
60 0.15
61 0.45
66 0.45
67 0.4
68 0.4
7 -0.53
8 -0.53
9 -0.68

> <PUBCHEM_EFFECTIVE_ROTOR_COUNT>
7.2

> <PUBCHEM_PHARMACOPHORE_FEATURES>
26
1 1 acceptor
1 10 acceptor
1 10 donor
1 11 cation
1 12 cation
1 12 donor
1 14 donor
1 2 acceptor
1 2 donor
1 3 acceptor
1 3 donor
1 4 acceptor
1 4 donor
1 5 acceptor
1 6 acceptor
1 7 donor
1 8 donor
1 9 acceptor
1 9 donor
5 1 15 16 18 19 rings
5 11 17 20 21 23 rings
5 12 22 25 28 29 rings
5 13 24 26 30 32 rings
6 17 20 22 24 25 26 rings
6 21 23 31 33 34 35 rings
6 28 29 36 37 39 40 rings

> <PUBCHEM_HEAVY_ATOM_COUNT>
42

> <PUBCHEM_ATOM_DEF_STEREO_COUNT>
4

> <PUBCHEM_ATOM_UDEF_STEREO_COUNT>
0

> <PUBCHEM_BOND_DEF_STEREO_COUNT>
0

> <PUBCHEM_BOND_UDEF_STEREO_COUNT>
0

> <PUBCHEM_ISOTOPIC_ATOM_COUNT>
0

> <PUBCHEM_COMPONENT_COUNT>
1

> <PUBCHEM_CACTVS_TAUTO_COUNT>
209

> <PUBCHEM_CONFORMER_ID>
02A4CE7200000001

> <PUBCHEM_MMFF94_ENERGY>
158.8052

> <PUBCHEM_FEATURE_SELFOVERLAP>
132.443

> <PUBCHEM_SHAPE_FINGERPRINT>
10050765 1 18051691036952704122
10190108 129 18270138862794436051
102385 1 17908144278739157854
1100329 8 18196370552917442727
11227688 84 18341601616958305919
11445158 3 17969219125751853855
11513181 2 17698147466296705270
11963148 33 18335414716168374059
12058002 1 17533245023150496406
12788726 201 18335133155502158096
13140716 1 18197492037618640121
13617811 41 18410856568709928420
13911987 19 18335709394216223284
14068700 675 18059571451484475281
14068700 686 18199178500147169370
14394314 77 18268422602637589344
14725015 67 18342452656507208120
14790565 3 17835243720376327367
14918310 93 17346055371560346687
14955137 171 18338239370360757419
15200665 1 17908700627776069609
15320467 1 18411697703241359285
15439362 3 17836366317285300173
16087824 20 18339924806588054845
16112460 7 18128266776944273480
17492 89 18194118508644380622
19301679 30 18338513023901965634
19315092 285 16444444837715334802
19319366 153 17822844420597358994
19611394 137 18115878553986571267
20642791 105 18337097957317657728
21049683 271 18116440421708285141
21796203 349 18119836804530749955
22311459 1 18339922718785088535
23558518 356 18047475517592207698
23559900 14 17550654527388435554
24180151 248 18128837265034986318
24771293 8 17914883464868439120
24771750 20 18044945820736975597
3178227 256 18266752453023052699
4144715 1 17978793403094103706
469060 322 18341061747721237912
5104073 3 18267864986854929643
9961470 85 17692236453706613928
9962374 69 18267298911157073483

> <PUBCHEM_SHAPE_MULTIPOLES>
785.72
14.31
7.95
1.1
6.97
9.92
-0.32
-10.87
-3.38
0.4
-0.97
-0.8
-0.4
0.32

> <PUBCHEM_SHAPE_SELFOVERLAP>
1779.008

> <PUBCHEM_SHAPE_VOLUME>
411.1

> <PUBCHEM_COORDINATE_TYPE>
2
5
10

$$$$
