11532676
  -OEChem-10062121563D

 56 59  0     1  0  0  0  0  0999 V2000
    5.7766   -3.6999   -1.0601 Cl  0  0  0  0  0  0  0  0  0  0  0  0
    3.4861   -1.9719   -1.7664 F   0  0  0  0  0  0  0  0  0  0  0  0
   -5.2045   -1.0122    1.8465 O   0  0  0  0  0  0  0  0  0  0  0  0
   -3.1501    3.1565   -0.1198 O   0  0  0  0  0  0  0  0  0  0  0  0
   -3.6928   -3.7441   -0.4394 N   0  0  0  0  0  0  0  0  0  0  0  0
   -2.4088   -0.8143    0.4256 N   0  0  1  0  0  0  0  0  0  0  0  0
   -5.5900   -0.6302   -0.3769 N   0  0  0  0  0  0  0  0  0  0  0  0
    1.4916    4.1961    0.0601 N   0  0  0  0  0  0  0  0  0  0  0  0
    2.5185    0.2081   -0.3545 N   0  0  0  0  0  0  0  0  0  0  0  0
    3.1541    2.4594   -0.1025 N   0  0  0  0  0  0  0  0  0  0  0  0
   -3.5182   -1.7634    0.2463 C   0  0  0  0  0  0  0  0  0  0  0  0
   -3.1544   -3.1457    0.8067 C   0  0  0  0  0  0  0  0  0  0  0  0
   -3.4359   -2.4529   -1.1229 C   0  0  0  0  0  0  0  0  0  0  0  0
   -4.8349   -1.1108    0.6727 C   0  0  0  0  0  0  0  0  0  0  0  0
   -2.6457    0.3608   -0.4140 C   0  0  0  0  0  0  0  0  0  0  0  0
   -2.8242   -4.7960   -0.9440 C   0  0  0  0  0  0  0  0  0  0  0  0
   -2.3283   -0.4314    1.8339 C   0  0  0  0  0  0  0  0  0  0  0  0
   -1.5592    1.3764   -0.2885 C   0  0  0  0  0  0  0  0  0  0  0  0
   -1.8571    2.7272   -0.1474 C   0  0  0  0  0  0  0  0  0  0  0  0
   -0.2301    0.9654   -0.3133 C   0  0  0  0  0  0  0  0  0  0  0  0
    0.8012    1.9136   -0.1959 C   0  0  0  0  0  0  0  0  0  0  0  0
   -0.8258    3.6639   -0.0313 C   0  0  0  0  0  0  0  0  0  0  0  0
    0.5130    3.2806   -0.0528 C   0  0  0  0  0  0  0  0  0  0  0  0
    2.1499    1.5694   -0.2133 C   0  0  0  0  0  0  0  0  0  0  0  0
   -3.7465    3.4966   -1.3698 C   0  0  0  0  0  0  0  0  0  0  0  0
    2.7586    3.7358    0.0296 C   0  0  0  0  0  0  0  0  0  0  0  0
    3.6232   -0.5263    0.1045 C   0  0  0  0  0  0  0  0  0  0  0  0
    4.0960   -1.6227   -0.6233 C   0  0  0  0  0  0  0  0  0  0  0  0
    4.2596   -0.1639    1.2956 C   0  0  0  0  0  0  0  0  0  0  0  0
    5.1945   -2.3496   -0.1644 C   0  0  0  0  0  0  0  0  0  0  0  0
    5.3580   -0.8909    1.7544 C   0  0  0  0  0  0  0  0  0  0  0  0
    5.8255   -1.9837    1.0245 C   0  0  0  0  0  0  0  0  0  0  0  0
   -3.6962   -3.4494    1.7091 H   0  0  0  0  0  0  0  0  0  0  0  0
   -2.0839   -3.3197    0.9854 H   0  0  0  0  0  0  0  0  0  0  0  0
   -2.4561   -2.3826   -1.6193 H   0  0  0  0  0  0  0  0  0  0  0  0
   -4.1852   -2.2174   -1.8829 H   0  0  0  0  0  0  0  0  0  0  0  0
   -3.5960    0.8391   -0.1656 H   0  0  0  0  0  0  0  0  0  0  0  0
   -2.6981    0.0799   -1.4736 H   0  0  0  0  0  0  0  0  0  0  0  0
   -3.1401   -5.0905   -1.9505 H   0  0  0  0  0  0  0  0  0  0  0  0
   -1.7670   -4.5086   -0.9929 H   0  0  0  0  0  0  0  0  0  0  0  0
   -2.9026   -5.6828   -0.3060 H   0  0  0  0  0  0  0  0  0  0  0  0
   -2.3811   -1.2986    2.5024 H   0  0  0  0  0  0  0  0  0  0  0  0
   -3.0980    0.2842    2.1456 H   0  0  0  0  0  0  0  0  0  0  0  0
   -1.3582    0.0273    2.0555 H   0  0  0  0  0  0  0  0  0  0  0  0
   -5.2877   -0.6427   -1.3438 H   0  0  0  0  0  0  0  0  0  0  0  0
   -6.4853   -0.1861   -0.2004 H   0  0  0  0  0  0  0  0  0  0  0  0
   -0.0055   -0.0911   -0.4334 H   0  0  0  0  0  0  0  0  0  0  0  0
   -1.0778    4.7175    0.0796 H   0  0  0  0  0  0  0  0  0  0  0  0
    2.0009   -0.2683   -1.0882 H   0  0  0  0  0  0  0  0  0  0  0  0
   -3.7195    2.6479   -2.0605 H   0  0  0  0  0  0  0  0  0  0  0  0
   -4.7906    3.7659   -1.1886 H   0  0  0  0  0  0  0  0  0  0  0  0
   -3.2353    4.3567   -1.8136 H   0  0  0  0  0  0  0  0  0  0  0  0
    3.5422    4.4781    0.1214 H   0  0  0  0  0  0  0  0  0  0  0  0
    3.9072    0.6745    1.8907 H   0  0  0  0  0  0  0  0  0  0  0  0
    5.8476   -0.6080    2.6818 H   0  0  0  0  0  0  0  0  0  0  0  0
    6.6820   -2.5410    1.3950 H   0  0  0  0  0  0  0  0  0  0  0  0
  1 30  1  0  0  0  0
  2 28  1  0  0  0  0
  3 14  2  0  0  0  0
  4 19  1  0  0  0  0
  4 25  1  0  0  0  0
  5 12  1  0  0  0  0
  5 13  1  0  0  0  0
  5 16  1  0  0  0  0
  6 11  1  0  0  0  0
  6 15  1  0  0  0  0
  6 17  1  0  0  0  0
  7 14  1  0  0  0  0
  7 45  1  0  0  0  0
  7 46  1  0  0  0  0
  8 23  1  0  0  0  0
  8 26  2  0  0  0  0
  9 24  1  0  0  0  0
  9 27  1  0  0  0  0
  9 49  1  0  0  0  0
 10 24  2  0  0  0  0
 10 26  1  0  0  0  0
 11 12  1  0  0  0  0
 11 13  1  0  0  0  0
 11 14  1  0  0  0  0
 12 33  1  0  0  0  0
 12 34  1  0  0  0  0
 13 35  1  0  0  0  0
 13 36  1  0  0  0  0
 15 18  1  0  0  0  0
 15 37  1  0  0  0  0
 15 38  1  0  0  0  0
 16 39  1  0  0  0  0
 16 40  1  0  0  0  0
 16 41  1  0  0  0  0
 17 42  1  0  0  0  0
 17 43  1  0  0  0  0
 17 44  1  0  0  0  0
 18 19  1  0  0  0  0
 18 20  2  0  0  0  0
 19 22  2  0  0  0  0
 20 21  1  0  0  0  0
 20 47  1  0  0  0  0
 21 23  2  0  0  0  0
 21 24  1  0  0  0  0
 22 23  1  0  0  0  0
 22 48  1  0  0  0  0
 25 50  1  0  0  0  0
 25 51  1  0  0  0  0
 25 52  1  0  0  0  0
 26 53  1  0  0  0  0
 27 28  2  0  0  0  0
 27 29  1  0  0  0  0
 28 30  1  0  0  0  0
 29 31  2  0  0  0  0
 29 54  1  0  0  0  0
 30 32  2  0  0  0  0
 31 32  1  0  0  0  0
 31 55  1  0  0  0  0
 32 56  1  0  0  0  0
M  END
> <PUBCHEM_COMPOUND_CID>
11532676

> <PUBCHEM_CONFORMER_RMSD>
1

> <PUBCHEM_CONFORMER_DIVERSEORDER>
1
73
72
65
52
74
33
49
66
5
69
67
32
45
40
42
30
43
50
48
14
57
38
63
75
51
53
62
27
12
23
37
56
21
18
39
26
34
41
64
36
19
3
55
46
16
29
4
61
59
13
11
31
28
54
15
17
25
60
70
2
47
44
71
35
6
20
68
58
22
24
9
7
8
10

> <PUBCHEM_MMFF94_PARTIAL_CHARGES>
40
1 -0.18
10 -0.62
11 0.26
12 0.21
13 0.21
14 0.58
15 0.41
16 0.27
17 0.27
18 -0.14
19 0.08
2 -0.19
20 -0.15
22 -0.15
23 0.31
24 0.41
25 0.28
26 0.47
27 0.1
28 0.19
29 -0.15
3 -0.57
30 0.18
31 -0.15
32 -0.15
4 -0.36
45 0.37
46 0.37
47 0.15
48 0.15
49 0.4
5 -0.69
53 0.15
54 0.15
55 0.15
56 0.15
6 -0.75
7 -0.8
8 -0.62
9 -0.6

> <PUBCHEM_EFFECTIVE_ROTOR_COUNT>
7.8

> <PUBCHEM_PHARMACOPHORE_FEATURES>
12
1 3 acceptor
1 4 acceptor
1 5 cation
1 6 cation
1 7 donor
1 9 donor
3 8 10 26 cation
3 9 10 24 cation
4 5 11 12 13 rings
6 18 19 20 21 22 23 rings
6 27 28 29 30 31 32 rings
6 8 10 21 23 24 26 rings

> <PUBCHEM_HEAVY_ATOM_COUNT>
32

> <PUBCHEM_ATOM_DEF_STEREO_COUNT>
0

> <PUBCHEM_ATOM_UDEF_STEREO_COUNT>
0

> <PUBCHEM_BOND_DEF_STEREO_COUNT>
0

> <PUBCHEM_BOND_UDEF_STEREO_COUNT>
0

> <PUBCHEM_ISOTOPIC_ATOM_COUNT>
0

> <PUBCHEM_COMPONENT_COUNT>
1

> <PUBCHEM_CACTVS_TAUTO_COUNT>
6

> <PUBCHEM_CONFORMER_ID>
00AFF98400000001

> <PUBCHEM_MMFF94_ENERGY>
130.7105

> <PUBCHEM_FEATURE_SELFOVERLAP>
61.069

> <PUBCHEM_SHAPE_FINGERPRINT>
10928967 22 18335995194251998026
10940486 97 18189344472464914644
11135926 11 18120651598307965740
12107183 9 18341628009816669529
12422481 6 18130797737016347531
12608794 3 18269294412722215337
13140716 1 18411135797261254024
13690498 29 18261123937051979924
14117953 113 18342178830434839375
14705955 166 17417247620029811913
14844126 61 18263357001859533010
14866123 147 18266464209478602873
15042514 8 18337674092314119709
15250474 111 17911235345232813255
15320294 125 17390781168601374082
15320467 1 17330272767113242262
15361156 5 18187374284406873082
15927050 60 17692527811350208429
16628084 112 18053095418608978551
17492 89 18410290350006637718
19315092 285 16914241065033855843
19611394 137 18341038641946814986
20775530 9 18186517722221032980
21133410 52 17335884065366774446
21133410 58 17906431579290542655
229767 44 18342749477233132859
23559900 14 18336817671646039417
3383291 50 18267298734361183961
3737641 26 18266188416010375621
3882209 13 17622406821728693614
4073 2 18268984286098105754
437795 96 18128256688409785622
44062 13 18261674749158803332
463206 1 18261675960255860898
5080951 261 17898543437995047278
513202 73 18186812374737942801
56633871 153 18341619234898498059
613672 6 18338779149134779286

> <PUBCHEM_SHAPE_MULTIPOLES>
611.52
13.13
6.58
1.31
9.51
0.65
0.31
-13.24
1.53
-2.38
-1.96
0.13
-0.76
1.32

> <PUBCHEM_SHAPE_SELFOVERLAP>
1322.652

> <PUBCHEM_SHAPE_VOLUME>
339.3

> <PUBCHEM_COORDINATE_TYPE>
2
5
10

$$$$
