18451363
  -OEChem-10052115193D

 45 48  0     0  0  0  0  0  0999 V2000
   -6.5858    0.0024   -2.1532 S   0  0  0  0  0  0  0  0  0  0  0  0
    7.1598    2.1081    0.4653 F   0  0  0  0  0  0  0  0  0  0  0  0
    5.4078    2.2102   -0.8091 F   0  0  0  0  0  0  0  0  0  0  0  0
    5.1728    2.0438    1.3462 F   0  0  0  0  0  0  0  0  0  0  0  0
    1.9367   -1.6690   -0.3492 O   0  0  0  0  0  0  0  0  0  0  0  0
    1.2183    0.5599   -0.2778 N   0  0  0  0  0  0  0  0  0  0  0  0
   -6.3196   -0.2284    2.3121 N   0  0  0  0  0  0  0  0  0  0  0  0
    3.4675    0.0768   -0.0697 N   0  0  0  0  0  0  0  0  0  0  0  0
   -3.9719   -0.0164    2.1402 N   0  0  0  0  0  0  0  0  0  0  0  0
   -4.3575    0.1236   -0.8991 C   0  0  0  0  0  0  0  0  0  0  0  0
   -5.3563   -0.0207    0.1210 C   0  0  0  0  0  0  0  0  0  0  0  0
   -2.9284    0.2364   -0.7395 C   0  0  0  0  0  0  0  0  0  0  0  0
   -6.6370   -0.0999   -0.4333 C   0  0  0  0  0  0  0  0  0  0  0  0
   -4.8876    0.1500   -2.1673 C   0  0  0  0  0  0  0  0  0  0  0  0
   -2.1360   -0.9115   -0.7311 C   0  0  0  0  0  0  0  0  0  0  0  0
   -2.3386    1.4921   -0.5943 C   0  0  0  0  0  0  0  0  0  0  0  0
   -5.2344   -0.0895    1.5179 C   0  0  0  0  0  0  0  0  0  0  0  0
   -0.1641    0.4519   -0.4325 C   0  0  0  0  0  0  0  0  0  0  0  0
   -0.7538   -0.8037   -0.5777 C   0  0  0  0  0  0  0  0  0  0  0  0
   -0.9565    1.6000   -0.4409 C   0  0  0  0  0  0  0  0  0  0  0  0
   -7.7713   -0.2439    0.3746 C   0  0  0  0  0  0  0  0  0  0  0  0
    4.7037   -0.6059    0.0170 C   0  0  0  0  0  0  0  0  0  0  0  0
    5.8970    0.0944    0.1934 C   0  0  0  0  0  0  0  0  0  0  0  0
   -7.5357   -0.3010    1.7369 C   0  0  0  0  0  0  0  0  0  0  0  0
    2.1870   -0.4726   -0.2429 C   0  0  0  0  0  0  0  0  0  0  0  0
    4.7191   -1.9977   -0.0750 C   0  0  0  0  0  0  0  0  0  0  0  0
    7.1056   -0.5968    0.2777 C   0  0  0  0  0  0  0  0  0  0  0  0
    5.9107    1.5852    0.2950 C   0  0  0  0  0  0  0  0  0  0  0  0
    5.9277   -2.6891    0.0095 C   0  0  0  0  0  0  0  0  0  0  0  0
    7.1208   -1.9886    0.1858 C   0  0  0  0  0  0  0  0  0  0  0  0
   -4.3658    0.2485   -3.1100 H   0  0  0  0  0  0  0  0  0  0  0  0
   -2.5814   -1.8976   -0.8419 H   0  0  0  0  0  0  0  0  0  0  0  0
   -2.9422    2.3967   -0.5973 H   0  0  0  0  0  0  0  0  0  0  0  0
   -0.2111   -1.7381   -0.5809 H   0  0  0  0  0  0  0  0  0  0  0  0
   -0.5103    2.5848   -0.3281 H   0  0  0  0  0  0  0  0  0  0  0  0
   -8.7719   -0.3071   -0.0361 H   0  0  0  0  0  0  0  0  0  0  0  0
    1.5736    1.5075   -0.1772 H   0  0  0  0  0  0  0  0  0  0  0  0
   -8.3632   -0.4120    2.4310 H   0  0  0  0  0  0  0  0  0  0  0  0
    3.5138    1.0892    0.0033 H   0  0  0  0  0  0  0  0  0  0  0  0
    3.8455   -2.6176   -0.2116 H   0  0  0  0  0  0  0  0  0  0  0  0
    8.0469   -0.0720    0.4149 H   0  0  0  0  0  0  0  0  0  0  0  0
   -3.9400   -0.0718    3.1500 H   0  0  0  0  0  0  0  0  0  0  0  0
   -3.1101    0.0858    1.6323 H   0  0  0  0  0  0  0  0  0  0  0  0
    5.9413   -3.7729   -0.0620 H   0  0  0  0  0  0  0  0  0  0  0  0
    8.0617   -2.5271    0.2515 H   0  0  0  0  0  0  0  0  0  0  0  0
  1 13  1  0  0  0  0
  1 14  1  0  0  0  0
  2 28  1  0  0  0  0
  3 28  1  0  0  0  0
  4 28  1  0  0  0  0
  5 25  2  0  0  0  0
  6 18  1  0  0  0  0
  6 25  1  0  0  0  0
  6 37  1  0  0  0  0
  7 17  2  0  0  0  0
  7 24  1  0  0  0  0
  8 22  1  0  0  0  0
  8 25  1  0  0  0  0
  8 39  1  0  0  0  0
  9 17  1  0  0  0  0
  9 42  1  0  0  0  0
  9 43  1  0  0  0  0
 10 11  1  0  0  0  0
 10 12  1  0  0  0  0
 10 14  2  0  0  0  0
 11 13  2  0  0  0  0
 11 17  1  0  0  0  0
 12 15  2  0  0  0  0
 12 16  1  0  0  0  0
 13 21  1  0  0  0  0
 14 31  1  0  0  0  0
 15 19  1  0  0  0  0
 15 32  1  0  0  0  0
 16 20  2  0  0  0  0
 16 33  1  0  0  0  0
 18 19  2  0  0  0  0
 18 20  1  0  0  0  0
 19 34  1  0  0  0  0
 20 35  1  0  0  0  0
 21 24  2  0  0  0  0
 21 36  1  0  0  0  0
 22 23  1  0  0  0  0
 22 26  2  0  0  0  0
 23 27  2  0  0  0  0
 23 28  1  0  0  0  0
 24 38  1  0  0  0  0
 26 29  1  0  0  0  0
 26 40  1  0  0  0  0
 27 30  1  0  0  0  0
 27 41  1  0  0  0  0
 29 30  2  0  0  0  0
 29 44  1  0  0  0  0
 30 45  1  0  0  0  0
M  END
> <PUBCHEM_COMPOUND_CID>
18451363

> <PUBCHEM_CONFORMER_RMSD>
0.8

> <PUBCHEM_CONFORMER_DIVERSEORDER>
1
22
26
19
6
7
24
8
21
11
3
9
14
10
5
27
4
25
2
28
20
23
18
15
12
13
16
17

> <PUBCHEM_MMFF94_PARTIAL_CHARGES>
44
1 -0.08
10 -0.05
12 0.05
13 0.04
14 -0.11
15 -0.15
16 -0.15
17 0.41
18 0.12
19 -0.15
2 -0.34
20 -0.15
21 -0.15
22 0.12
23 -0.14
24 0.16
25 0.69
26 -0.15
27 -0.15
28 1.16
29 -0.15
3 -0.34
30 -0.15
31 0.15
32 0.15
33 0.15
34 0.15
35 0.15
36 0.15
37 0.37
38 0.15
39 0.37
4 -0.34
40 0.15
41 0.15
42 0.4
43 0.4
44 0.15
45 0.15
5 -0.57
6 -0.55
7 -0.62
8 -0.55
9 -0.9

> <PUBCHEM_EFFECTIVE_ROTOR_COUNT>
6

> <PUBCHEM_PHARMACOPHORE_FEATURES>
9
1 5 acceptor
1 6 donor
1 8 donor
1 9 donor
3 7 9 17 cation
5 1 10 11 13 14 rings
6 12 15 16 18 19 20 rings
6 22 23 26 27 29 30 rings
6 7 11 13 17 21 24 rings

> <PUBCHEM_HEAVY_ATOM_COUNT>
30

> <PUBCHEM_ATOM_DEF_STEREO_COUNT>
0

> <PUBCHEM_ATOM_UDEF_STEREO_COUNT>
0

> <PUBCHEM_BOND_DEF_STEREO_COUNT>
0

> <PUBCHEM_BOND_UDEF_STEREO_COUNT>
0

> <PUBCHEM_ISOTOPIC_ATOM_COUNT>
0

> <PUBCHEM_COMPONENT_COUNT>
1

> <PUBCHEM_CACTVS_TAUTO_COUNT>
6

> <PUBCHEM_CONFORMER_ID>
01198BA300000001

> <PUBCHEM_MMFF94_ENERGY>
91.0267

> <PUBCHEM_FEATURE_SELFOVERLAP>
45.785

> <PUBCHEM_SHAPE_FINGERPRINT>
10 15 17676205818464185476
10299344 5 17704069598958713222
10638233 991 17704350004515201032
11315181 36 14418139509243579015
11524674 6 17967535683978536763
11719270 70 17095240311197966266
12098696 120 18115031922456027620
12236239 1 17632294575741786983
13533116 47 18343015580648237838
14251764 18 17632574963785764575
14849402 71 17774438407682791281
14856354 85 16486967428055023437
150020 25 17676485016860329070
15183329 4 17131834287126249096
15328684 2 17131554916768657259
15352257 5 17312823749323633179
15392192 104 17775290490581712447
15419008 47 17676200273392986077
15419008 91 17240749718488042445
15510794 2 17749385962065433243
15716309 27 18272931609634027767
1577012 14 17489870448811963985
17844677 252 18339361864696462988
19377110 9 17846218825884224144
20157964 124 18411414021653745878
21267235 1 18410576142005963710
21315759 40 17775559832217353990
21521721 280 18342175587628788642
21623969 137 18334299738531409935
21792934 111 18410849932727402053
23081809 10 17632572755792863958
23522609 53 17703523184571937792
23559900 14 18339067310974786053
249057 3 15791452622074854815
2747138 104 18040442087585517665
3004659 81 15719401632805168598
3044373 193 16660649596214500244
3383291 50 17385732421871027867
3418910 222 17385736802263488108
394071 54 18342177791136973964
397830 11 17531534298800033412
4073 2 18260827155065403818
437795 51 18186521007876562546
445580 37 15267070254820829299
44880568 143 16805323271313743349
5085150 59 16153427259811770107
5104073 3 18263078825734444024
57527295 17 17897701243054905719
5758199 1 17775566450704019159
58083652 198 18343291561750419041
6691757 9 16487255492144887287
9962374 69 18340473496949399318
999808 66 18113623370170685459

> <PUBCHEM_SHAPE_MULTIPOLES>
573.62
26.07
1.89
1.61
8.16
0.16
0.34
-3.22
5.07
5.35
0.03
-4.43
0
1.68

> <PUBCHEM_SHAPE_SELFOVERLAP>
1262.214

> <PUBCHEM_SHAPE_VOLUME>
313.2

> <PUBCHEM_COORDINATE_TYPE>
2
5
10

$$$$
