24905190
  -OEChem-10052115143D

 38 41  0     0  0  0  0  0  0999 V2000
    2.1252   -0.9908    0.0570 N   0  0  0  0  0  0  0  0  0  0  0  0
    0.8647   -1.3669    0.3420 N   0  0  0  0  0  0  0  0  0  0  0  0
   -4.1681   -0.4197   -1.3083 N   0  0  0  0  0  0  0  0  0  0  0  0
    3.4047    1.0195   -0.3726 N   0  0  0  0  0  0  0  0  0  0  0  0
    2.0091    3.0172   -0.2649 N   0  0  0  0  0  0  0  0  0  0  0  0
   -0.3282    2.9337    0.2118 N   0  0  0  0  0  0  0  0  0  0  0  0
    3.1573   -1.9931   -0.0634 C   0  0  0  0  0  0  0  0  0  0  0  0
    0.1947   -0.2098    0.3765 C   0  0  0  0  0  0  0  0  0  0  0  0
    1.0170    0.9021    0.1159 C   0  0  0  0  0  0  0  0  0  0  0  0
    2.2722    0.3567   -0.0887 C   0  0  0  0  0  0  0  0  0  0  0  0
   -1.2106   -0.2085    0.6578 C   0  0  0  0  0  0  0  0  0  0  0  0
   -2.1316   -0.3114   -0.4036 C   0  0  0  0  0  0  0  0  0  0  0  0
    3.3624   -2.7506    1.2508 C   0  0  0  0  0  0  0  0  0  0  0  0
    2.8690   -2.9627   -1.2123 C   0  0  0  0  0  0  0  0  0  0  0  0
   -3.4972   -0.3090   -0.1111 C   0  0  0  0  0  0  0  0  0  0  0  0
    0.9051    2.2852    0.0193 C   0  0  0  0  0  0  0  0  0  0  0  0
   -1.6888   -0.1070    1.9692 C   0  0  0  0  0  0  0  0  0  0  0  0
   -2.0073   -0.4268   -1.8163 C   0  0  0  0  0  0  0  0  0  0  0  0
   -3.9898   -0.2082    1.1948 C   0  0  0  0  0  0  0  0  0  0  0  0
   -3.0573   -0.1068    2.2313 C   0  0  0  0  0  0  0  0  0  0  0  0
   -3.2762   -0.4915   -2.3445 C   0  0  0  0  0  0  0  0  0  0  0  0
    3.1736    2.3483   -0.4408 C   0  0  0  0  0  0  0  0  0  0  0  0
    4.0937   -1.4718   -0.2958 H   0  0  0  0  0  0  0  0  0  0  0  0
    3.5769   -2.0567    2.0712 H   0  0  0  0  0  0  0  0  0  0  0  0
    4.2042   -3.4463    1.1685 H   0  0  0  0  0  0  0  0  0  0  0  0
    2.4742   -3.3291    1.5282 H   0  0  0  0  0  0  0  0  0  0  0  0
    3.7008   -3.6626   -1.3452 H   0  0  0  0  0  0  0  0  0  0  0  0
    2.7303   -2.4204   -2.1542 H   0  0  0  0  0  0  0  0  0  0  0  0
    1.9618   -3.5492   -1.0297 H   0  0  0  0  0  0  0  0  0  0  0  0
   -0.9943   -0.0261    2.8030 H   0  0  0  0  0  0  0  0  0  0  0  0
   -1.0917   -0.4598   -2.3911 H   0  0  0  0  0  0  0  0  0  0  0  0
   -5.0550   -0.2081    1.3999 H   0  0  0  0  0  0  0  0  0  0  0  0
   -5.1736   -0.4441   -1.4069 H   0  0  0  0  0  0  0  0  0  0  0  0
   -3.4069   -0.0267    3.2575 H   0  0  0  0  0  0  0  0  0  0  0  0
   -3.6231   -0.5819   -3.3642 H   0  0  0  0  0  0  0  0  0  0  0  0
    4.0372    2.9645   -0.6669 H   0  0  0  0  0  0  0  0  0  0  0  0
   -1.1678    2.4147    0.4233 H   0  0  0  0  0  0  0  0  0  0  0  0
   -0.3654    3.9410    0.1324 H   0  0  0  0  0  0  0  0  0  0  0  0
  1  2  1  0  0  0  0
  1  7  1  0  0  0  0
  1 10  1  0  0  0  0
  2  8  2  0  0  0  0
  3 15  1  0  0  0  0
  3 21  1  0  0  0  0
  3 33  1  0  0  0  0
  4 10  2  0  0  0  0
  4 22  1  0  0  0  0
  5 16  1  0  0  0  0
  5 22  2  0  0  0  0
  6 16  1  0  0  0  0
  6 37  1  0  0  0  0
  6 38  1  0  0  0  0
  7 13  1  0  0  0  0
  7 14  1  0  0  0  0
  7 23  1  0  0  0  0
  8  9  1  0  0  0  0
  8 11  1  0  0  0  0
  9 10  1  0  0  0  0
  9 16  2  0  0  0  0
 11 12  2  0  0  0  0
 11 17  1  0  0  0  0
 12 15  1  0  0  0  0
 12 18  1  0  0  0  0
 13 24  1  0  0  0  0
 13 25  1  0  0  0  0
 13 26  1  0  0  0  0
 14 27  1  0  0  0  0
 14 28  1  0  0  0  0
 14 29  1  0  0  0  0
 15 19  2  0  0  0  0
 17 20  2  0  0  0  0
 17 30  1  0  0  0  0
 18 21  2  0  0  0  0
 18 31  1  0  0  0  0
 19 20  1  0  0  0  0
 19 32  1  0  0  0  0
 20 34  1  0  0  0  0
 21 35  1  0  0  0  0
 22 36  1  0  0  0  0
M  END
> <PUBCHEM_COMPOUND_CID>
24905190

> <PUBCHEM_CONFORMER_RMSD>
0.6

> <PUBCHEM_CONFORMER_DIVERSEORDER>
1
4
5
6
3
2

> <PUBCHEM_MMFF94_PARTIAL_CHARGES>
27
1 0.31
10 0.11
11 0.05
15 -0.15
16 0.41
17 -0.15
18 -0.15
19 -0.15
2 -0.71
20 -0.15
21 -0.3
22 0.47
3 0.03
30 0.15
31 0.15
32 0.15
33 0.27
34 0.15
35 0.15
36 0.15
37 0.4
38 0.4
4 -0.57
5 -0.62
6 -0.9
7 0.26
8 0.23

> <PUBCHEM_EFFECTIVE_ROTOR_COUNT>
2

> <PUBCHEM_PHARMACOPHORE_FEATURES>
12
1 2 acceptor
1 3 cation
1 3 donor
1 6 cation
1 6 donor
3 1 4 10 cation
3 4 5 22 cation
3 7 13 14 hydrophobe
5 1 2 8 9 10 rings
5 3 12 15 18 21 rings
6 11 12 15 17 19 20 rings
6 4 5 9 10 16 22 rings

> <PUBCHEM_HEAVY_ATOM_COUNT>
22

> <PUBCHEM_ATOM_DEF_STEREO_COUNT>
0

> <PUBCHEM_ATOM_UDEF_STEREO_COUNT>
0

> <PUBCHEM_BOND_DEF_STEREO_COUNT>
0

> <PUBCHEM_BOND_UDEF_STEREO_COUNT>
0

> <PUBCHEM_ISOTOPIC_ATOM_COUNT>
0

> <PUBCHEM_COMPONENT_COUNT>
1

> <PUBCHEM_CACTVS_TAUTO_COUNT>
9

> <PUBCHEM_CONFORMER_ID>
017C05E600000001

> <PUBCHEM_MMFF94_ENERGY>
46.099

> <PUBCHEM_FEATURE_SELFOVERLAP>
61.267

> <PUBCHEM_SHAPE_FINGERPRINT>
10369192 42 17535779577941633980
11578080 2 17313399906264176484
11582403 64 16453975593410020413
11640471 11 17702685369886254209
116883 192 18124871266184175404
12160290 23 17328586116649838328
12236239 1 17774731943169657369
12363563 72 18191019002598231906
12422481 6 17697347039560660337
12553582 1 18267030453371584278
12623949 98 17973757888957666259
12707595 3 18188493462927891642
13009979 54 17704075070752693183
13083527 12 18196065821431146642
13134695 92 18334847286900334958
13140716 1 18121507014507385384
13583140 156 18198641002296460865
13911987 19 18046071724770136140
14840074 17 18342163476480396770
15842332 3 17846504750779440811
16945 1 18337678610935869072
17357779 13 18261393291514799980
17818456 19 17415292632516042409
1813 80 18056494854525267502
18219364 16 18044942521727104009
18915476 22 18187365471176218754
19049666 15 17676199148300736641
19784866 34 18123758809673090768
20361792 2 18340769217525002266
20645476 183 17917437591983350999
20645477 70 18408319990667902790
21041028 32 18266188239937744120
21133665 82 14304133995285708519
21639500 275 18338232794428470536
22112679 90 17704357658172938857
2255824 54 18342181119688811204
23114952 82 17894349990503504268
23175994 123 18116435847251330475
23526113 38 17967802847516892625
23559900 14 16515682208911517466
23598291 2 17988370286287993119
238 59 18045475733421647391
25 1 18263362662684678172
2748010 2 18193555571876054288
474 4 18126006206950060552
57527295 17 17896023361407361747
6049 1 17458634405983222747
621550 5 17170432600091042987
633830 44 17983883308363861020
6438718 38 17765436448161050201
6992083 37 17774166673838944139
7471813 234 18266721524936985270
7615 1 17846498127760444587
77492 1 17846786225692744121
81228 2 17760643664501908408
88987 49 16128383648863440947

> <PUBCHEM_SHAPE_MULTIPOLES>
422.86
7.25
2.99
1.79
2.22
1.02
0.08
-2.63
0.6
-4.89
0.26
2.27
-0.69
-0.65

> <PUBCHEM_SHAPE_SELFOVERLAP>
950.394

> <PUBCHEM_SHAPE_VOLUME>
222.1

> <PUBCHEM_COORDINATE_TYPE>
2
5
10

$$$$
