54613583
  -OEChem-10052115173D

 40 43  0     1  0  0  0  0  0999 V2000
    4.5191   -1.8311   -0.1577 Cl  0  0  0  0  0  0  0  0  0  0  0  0
    5.8848    0.9676   -0.8656 Cl  0  0  0  0  0  0  0  0  0  0  0  0
   -1.0906   -2.9073    1.0895 O   0  0  0  0  0  0  0  0  0  0  0  0
   -2.3020   -1.0163    0.5816 N   0  0  0  0  0  0  0  0  0  0  0  0
   -4.9140    0.1805   -1.6959 N   0  0  0  0  0  0  0  0  0  0  0  0
    1.3501   -1.4228    0.2977 N   0  0  0  0  0  0  0  0  0  0  0  0
   -1.3166    2.1801    2.7310 N   0  0  0  0  0  0  0  0  0  0  0  0
   -2.4138    0.3149   -0.0859 C   0  0  0  0  0  0  0  0  0  0  0  0
   -1.1720    1.2143    0.2807 C   0  0  2  0  0  0  0  0  0  0  0  0
   -3.7444    0.9948    0.3300 C   0  0  0  0  0  0  0  0  0  0  0  0
   -2.4490    0.1007   -1.6272 C   0  0  0  0  0  0  0  0  0  0  0  0
    0.0803    0.3984    0.1928 C   0  0  0  0  0  0  0  0  0  0  0  0
   -4.9861    0.3055   -0.2431 C   0  0  0  0  0  0  0  0  0  0  0  0
   -3.7346   -0.5774   -2.1035 C   0  0  0  0  0  0  0  0  0  0  0  0
    0.0660   -0.9655    0.4134 C   0  0  0  0  0  0  0  0  0  0  0  0
   -1.1146   -1.7353    0.7213 C   0  0  0  0  0  0  0  0  0  0  0  0
    1.4210    0.7789   -0.0970 C   0  0  0  0  0  0  0  0  0  0  0  0
    2.1954   -0.3829   -0.0243 C   0  0  0  0  0  0  0  0  0  0  0  0
   -1.2529    1.7553    1.6532 C   0  0  0  0  0  0  0  0  0  0  0  0
    2.0565    1.9978   -0.4085 C   0  0  0  0  0  0  0  0  0  0  0  0
    1.7212   -2.8131    0.4704 C   0  0  0  0  0  0  0  0  0  0  0  0
    3.5763   -0.3839   -0.2522 C   0  0  0  0  0  0  0  0  0  0  0  0
    3.4368    2.0103   -0.6390 C   0  0  0  0  0  0  0  0  0  0  0  0
    4.1830    0.8364   -0.5618 C   0  0  0  0  0  0  0  0  0  0  0  0
   -1.1156    2.0585   -0.4183 H   0  0  0  0  0  0  0  0  0  0  0  0
   -3.7397    2.0393   -0.0105 H   0  0  0  0  0  0  0  0  0  0  0  0
   -3.8442    1.0139    1.4222 H   0  0  0  0  0  0  0  0  0  0  0  0
   -1.5961   -0.5012   -1.9629 H   0  0  0  0  0  0  0  0  0  0  0  0
   -2.3623    1.0724   -2.1325 H   0  0  0  0  0  0  0  0  0  0  0  0
   -3.1614   -1.5127    0.7947 H   0  0  0  0  0  0  0  0  0  0  0  0
   -5.8694    0.9011    0.0135 H   0  0  0  0  0  0  0  0  0  0  0  0
   -5.1310   -0.6797    0.2151 H   0  0  0  0  0  0  0  0  0  0  0  0
   -3.7927   -1.6069   -1.7305 H   0  0  0  0  0  0  0  0  0  0  0  0
   -3.7182   -0.6384   -3.1974 H   0  0  0  0  0  0  0  0  0  0  0  0
   -5.7520   -0.2906   -2.0356 H   0  0  0  0  0  0  0  0  0  0  0  0
    1.4881    2.9214   -0.4713 H   0  0  0  0  0  0  0  0  0  0  0  0
    2.3561   -2.8929    1.3562 H   0  0  0  0  0  0  0  0  0  0  0  0
    0.8778   -3.4819    0.5876 H   0  0  0  0  0  0  0  0  0  0  0  0
    2.2330   -3.1469   -0.4354 H   0  0  0  0  0  0  0  0  0  0  0  0
    3.9134    2.9583   -0.8793 H   0  0  0  0  0  0  0  0  0  0  0  0
  1 22  1  0  0  0  0
  2 24  1  0  0  0  0
  3 16  2  0  0  0  0
  4  8  1  0  0  0  0
  4 16  1  0  0  0  0
  4 30  1  0  0  0  0
  5 13  1  0  0  0  0
  5 14  1  0  0  0  0
  5 35  1  0  0  0  0
  6 15  1  0  0  0  0
  6 18  1  0  0  0  0
  6 21  1  0  0  0  0
  7 19  3  0  0  0  0
  8  9  1  0  0  0  0
  8 10  1  0  0  0  0
  8 11  1  0  0  0  0
  9 12  1  0  0  0  0
  9 19  1  0  0  0  0
  9 25  1  0  0  0  0
 10 13  1  0  0  0  0
 10 26  1  0  0  0  0
 10 27  1  0  0  0  0
 11 14  1  0  0  0  0
 11 28  1  0  0  0  0
 11 29  1  0  0  0  0
 12 15  2  0  0  0  0
 12 17  1  0  0  0  0
 13 31  1  0  0  0  0
 13 32  1  0  0  0  0
 14 33  1  0  0  0  0
 14 34  1  0  0  0  0
 15 16  1  0  0  0  0
 17 18  2  0  0  0  0
 17 20  1  0  0  0  0
 18 22  1  0  0  0  0
 20 23  2  0  0  0  0
 20 36  1  0  0  0  0
 21 37  1  0  0  0  0
 21 38  1  0  0  0  0
 21 39  1  0  0  0  0
 22 24  2  0  0  0  0
 23 24  1  0  0  0  0
 23 40  1  0  0  0  0
M  END
> <PUBCHEM_COMPOUND_CID>
54613583

> <PUBCHEM_CONFORMER_RMSD>
0.6

> <PUBCHEM_CONFORMER_DIVERSEORDER>
1
4
2
3

> <PUBCHEM_MMFF94_PARTIAL_CHARGES>
25
1 -0.18
12 -0.18
13 0.27
14 0.27
15 -0.24
16 0.71
18 -0.15
19 0.36
2 -0.18
20 -0.15
21 0.26
22 0.18
23 -0.15
24 0.18
3 -0.57
30 0.37
35 0.36
36 0.15
4 -0.73
40 0.15
5 -0.9
6 0.05
7 -0.56
8 0.3
9 0.38

> <PUBCHEM_EFFECTIVE_ROTOR_COUNT>
1.4

> <PUBCHEM_PHARMACOPHORE_FEATURES>
10
1 3 acceptor
1 4 donor
1 5 cation
1 5 donor
1 6 cation
1 7 acceptor
5 6 12 15 17 18 rings
6 17 18 20 22 23 24 rings
6 4 8 9 12 15 16 rings
6 5 8 10 11 13 14 rings

> <PUBCHEM_HEAVY_ATOM_COUNT>
24

> <PUBCHEM_ATOM_DEF_STEREO_COUNT>
0

> <PUBCHEM_ATOM_UDEF_STEREO_COUNT>
1

> <PUBCHEM_BOND_DEF_STEREO_COUNT>
0

> <PUBCHEM_BOND_UDEF_STEREO_COUNT>
0

> <PUBCHEM_ISOTOPIC_ATOM_COUNT>
0

> <PUBCHEM_COMPONENT_COUNT>
1

> <PUBCHEM_CACTVS_TAUTO_COUNT>
2

> <PUBCHEM_CONFORMER_ID>
0341564F00000001

> <PUBCHEM_MMFF94_ENERGY>
52.8287

> <PUBCHEM_FEATURE_SELFOVERLAP>
50.929

> <PUBCHEM_SHAPE_FINGERPRINT>
10290309 65 16831780038489012552
10366900 7 17989491840167817960
10967382 1 18335426738244740370
11796584 16 15482673476514963933
12236239 1 18201438043660379765
12293681 160 18272930510054231505
12403259 415 18117846714344254476
12553582 1 17974019349560376162
12592029 89 17676200239074691794
12730499 353 17967811626952440863
12788726 201 17703235018378571073
12969540 114 17676471866097672039
13009979 54 17841707405206323906
13140716 1 18261955249536504418
13583140 156 16660648487601189088
14787075 74 18341055202908152195
15196674 1 18334581260794653634
15420108 30 16903283997834409280
16945 1 18334848416070545299
17349148 13 18340481175928190770
18186145 218 18261101976741575429
192875 21 18342172246233805672
19862831 5 18342737433469620757
200 152 18201719556785302965
20510252 161 18051145979616429264
20645477 56 17676766560561563964
20645477 70 18114182995682133186
20775438 99 16692410264861328991
21033648 144 18262516013341445044
21033648 29 17531515542567491909
21033650 10 17344097146279382776
23227448 37 17895758529212437911
23402539 116 18131355223639499700
23419403 2 17553485091050546393
23559900 14 18339363084688909336
25 1 18260824903805766679
25147074 1 18200036110341862410
266924 1 18201441307339737137
2748010 2 18191312791203462442
2838139 119 17240748619039451636
335352 9 18334016060594945542
350125 39 17971768906243725546
3545911 37 18261680354481391420
4409770 3 15533020483566797521
474 4 18335707156475087740
5104073 3 18260553346251298256
59755656 520 18334580156967005103
7471813 234 17989194933052164416
9981440 41 17408218718427273216

> <PUBCHEM_SHAPE_MULTIPOLES>
471.85
9.78
2.54
1.55
3.04
1.13
-0.19
-1.73
4.76
1.45
-1.02
-1.84
-0.55
-0.99

> <PUBCHEM_SHAPE_SELFOVERLAP>
1023.27

> <PUBCHEM_SHAPE_VOLUME>
259

> <PUBCHEM_COORDINATE_TYPE>
2
5
10

$$$$
