49830277
  -OEChem-10052115193D

 39 42  0     0  0  0  0  0  0999 V2000
    3.2889    2.9895   -0.8910 O   0  0  0  0  0  0  0  0  0  0  0  0
   -2.8575   -2.8577   -0.4975 N   0  0  0  0  0  0  0  0  0  0  0  0
   -0.5097   -3.3887   -0.4036 N   0  0  0  0  0  0  0  0  0  0  0  0
    5.4567    2.6850   -0.2078 N   0  0  0  0  0  0  0  0  0  0  0  0
   -1.4693   -1.1503   -0.1171 C   0  0  0  0  0  0  0  0  0  0  0  0
   -2.8025   -0.6622   -0.1403 C   0  0  0  0  0  0  0  0  0  0  0  0
   -1.5383   -2.5220   -0.3427 C   0  0  0  0  0  0  0  0  0  0  0  0
   -0.1955   -0.5895    0.0700 C   0  0  0  0  0  0  0  0  0  0  0  0
    0.9053   -1.4427    0.0168 C   0  0  0  0  0  0  0  0  0  0  0  0
   -3.6349   -1.7350   -0.3763 C   0  0  0  0  0  0  0  0  0  0  0  0
   -3.2989    0.6721    0.0371 C   0  0  0  0  0  0  0  0  0  0  0  0
    2.2429   -0.9275    0.1992 C   0  0  0  0  0  0  0  0  0  0  0  0
    0.6918   -2.7945   -0.2167 C   0  0  0  0  0  0  0  0  0  0  0  0
    2.5456    0.3793   -0.1833 C   0  0  0  0  0  0  0  0  0  0  0  0
   -4.1831    0.9536    1.0785 C   0  0  0  0  0  0  0  0  0  0  0  0
   -2.8981    1.6873   -0.8312 C   0  0  0  0  0  0  0  0  0  0  0  0
    3.2316   -1.7375    0.7578 C   0  0  0  0  0  0  0  0  0  0  0  0
    3.8369    0.8761   -0.0074 C   0  0  0  0  0  0  0  0  0  0  0  0
    4.5230   -1.2407    0.9337 C   0  0  0  0  0  0  0  0  0  0  0  0
    4.8257    0.0662    0.5511 C   0  0  0  0  0  0  0  0  0  0  0  0
   -4.6666    2.2507    1.2516 C   0  0  0  0  0  0  0  0  0  0  0  0
   -3.3815    2.9842   -0.6583 C   0  0  0  0  0  0  0  0  0  0  0  0
   -4.2657    3.2659    0.3831 C   0  0  0  0  0  0  0  0  0  0  0  0
    4.1533    2.2387   -0.4055 C   0  0  0  0  0  0  0  0  0  0  0  0
   -0.1117    0.4719    0.2773 H   0  0  0  0  0  0  0  0  0  0  0  0
   -4.7100   -1.8079   -0.4717 H   0  0  0  0  0  0  0  0  0  0  0  0
   -3.2037   -3.7905   -0.6743 H   0  0  0  0  0  0  0  0  0  0  0  0
    1.5129   -3.5022   -0.3003 H   0  0  0  0  0  0  0  0  0  0  0  0
    1.7972    1.0157   -0.6486 H   0  0  0  0  0  0  0  0  0  0  0  0
   -4.5045    0.1779    1.7697 H   0  0  0  0  0  0  0  0  0  0  0  0
   -2.2123    1.4869   -1.6511 H   0  0  0  0  0  0  0  0  0  0  0  0
    3.0347   -2.7507    1.0972 H   0  0  0  0  0  0  0  0  0  0  0  0
    5.2909   -1.8696    1.3750 H   0  0  0  0  0  0  0  0  0  0  0  0
    5.8472    0.3852    0.7190 H   0  0  0  0  0  0  0  0  0  0  0  0
   -5.3542    2.4704    2.0630 H   0  0  0  0  0  0  0  0  0  0  0  0
   -3.0700    3.7747   -1.3348 H   0  0  0  0  0  0  0  0  0  0  0  0
   -4.6420    4.2758    0.5178 H   0  0  0  0  0  0  0  0  0  0  0  0
    5.7011    3.6347   -0.4710 H   0  0  0  0  0  0  0  0  0  0  0  0
    6.2178    2.1450    0.1828 H   0  0  0  0  0  0  0  0  0  0  0  0
  1 24  2  0  0  0  0
  2  7  1  0  0  0  0
  2 10  1  0  0  0  0
  2 27  1  0  0  0  0
  3  7  1  0  0  0  0
  3 13  2  0  0  0  0
  4 24  1  0  0  0  0
  4 38  1  0  0  0  0
  4 39  1  0  0  0  0
  5  6  1  0  0  0  0
  5  7  2  0  0  0  0
  5  8  1  0  0  0  0
  6 10  2  0  0  0  0
  6 11  1  0  0  0  0
  8  9  2  0  0  0  0
  8 25  1  0  0  0  0
  9 12  1  0  0  0  0
  9 13  1  0  0  0  0
 10 26  1  0  0  0  0
 11 15  2  0  0  0  0
 11 16  1  0  0  0  0
 12 14  2  0  0  0  0
 12 17  1  0  0  0  0
 13 28  1  0  0  0  0
 14 18  1  0  0  0  0
 14 29  1  0  0  0  0
 15 21  1  0  0  0  0
 15 30  1  0  0  0  0
 16 22  2  0  0  0  0
 16 31  1  0  0  0  0
 17 19  2  0  0  0  0
 17 32  1  0  0  0  0
 18 20  2  0  0  0  0
 18 24  1  0  0  0  0
 19 20  1  0  0  0  0
 19 33  1  0  0  0  0
 20 34  1  0  0  0  0
 21 23  2  0  0  0  0
 21 35  1  0  0  0  0
 22 23  1  0  0  0  0
 22 36  1  0  0  0  0
 23 37  1  0  0  0  0
M  END
> <PUBCHEM_COMPOUND_CID>
49830277

> <PUBCHEM_CONFORMER_RMSD>
0.6

> <PUBCHEM_CONFORMER_DIVERSEORDER>
1
6
12
15
2
5
16
11
10
13
3
8
14
9
4
7

> <PUBCHEM_MMFF94_PARTIAL_CHARGES>
36
1 -0.57
10 -0.3
11 0.05
13 0.16
14 -0.15
15 -0.15
16 -0.15
17 -0.15
18 0.09
19 -0.15
2 0.03
20 -0.15
21 -0.15
22 -0.15
23 -0.15
24 0.54
25 0.15
26 0.15
27 0.27
28 0.15
29 0.15
3 -0.57
30 0.15
31 0.15
32 0.15
33 0.15
34 0.15
35 0.15
36 0.15
37 0.15
38 0.37
39 0.37
4 -0.8
6 -0.05
7 0.11
8 -0.15

> <PUBCHEM_EFFECTIVE_ROTOR_COUNT>
3

> <PUBCHEM_PHARMACOPHORE_FEATURES>
9
1 1 acceptor
1 2 cation
1 2 donor
1 3 acceptor
1 4 donor
5 2 5 6 7 10 rings
6 11 15 16 21 22 23 rings
6 12 14 17 18 19 20 rings
6 3 5 7 8 9 13 rings

> <PUBCHEM_HEAVY_ATOM_COUNT>
24

> <PUBCHEM_ATOM_DEF_STEREO_COUNT>
0

> <PUBCHEM_ATOM_UDEF_STEREO_COUNT>
0

> <PUBCHEM_BOND_DEF_STEREO_COUNT>
0

> <PUBCHEM_BOND_UDEF_STEREO_COUNT>
0

> <PUBCHEM_ISOTOPIC_ATOM_COUNT>
0

> <PUBCHEM_COMPONENT_COUNT>
1

> <PUBCHEM_CACTVS_TAUTO_COUNT>
4

> <PUBCHEM_CONFORMER_ID>
02F8598500000001

> <PUBCHEM_MMFF94_ENERGY>
74.8979

> <PUBCHEM_FEATURE_SELFOVERLAP>
45.784

> <PUBCHEM_SHAPE_FINGERPRINT>
10670039 82 18264498445807219676
10871710 139 18340486789603382055
12107183 9 18264761057308697698
12173636 292 18269545186387048686
12390115 104 18270696327911154425
12403259 118 18337099094892771226
12403260 363 18338502101826505487
12633257 1 18336539409330603516
12788726 201 18199178680214562407
12925494 130 17473547950223639969
12978246 48 18337955580107329681
13140716 1 18335141951310317243
13583140 156 17169261555746054675
13965767 371 18042124249980891223
14117953 113 18050846615837699796
14251764 38 18411134740534833436
14251764 75 18199479770486405193
14739800 52 18054773243086895800
14767858 380 18200290166959713733
14790565 3 18409451418835601444
14848178 96 18198900323193743273
14950920 106 17313104141915357176
14957384 54 17970333837484907209
15342168 16 18198628735843729545
16760501 71 18337680711402068097
17834072 32 18339360768899339141
17844677 252 18410016550390205842
20715895 44 18123464982164676241
21033648 29 17845065460384698210
21049683 271 17830445443554923567
21623110 236 18408602574321221381
21864079 5 18410012126130292134
22907989 373 18268689754025254663
23227448 37 18411698760177841093
235170 7 13685717395293382217
23559900 14 17988646229943412774
245318 6 18041580124885719477
283562 15 18338792437980383963
335352 9 18196369213452428254
350125 39 18341612655240053113
38570 142 17315386793317912860
474 4 18196932167631549803
5048184 11 18411984645885822777
5081480 168 17198279767499193343
5104073 3 18261386767744535482
633830 44 18343019960950923542
636775 72 17835802268638201712
6371009 1 18267280128167088799
6700243 42 17192954111553732350
7064713 232 18411695478670203144
7808743 9 18412545439644154000

> <PUBCHEM_SHAPE_MULTIPOLES>
473.1
11.47
4.42
0.92
4.73
0.62
0.13
9.76
2.06
-1.33
-0.85
-0.34
0.26
-1.68

> <PUBCHEM_SHAPE_SELFOVERLAP>
1071.213

> <PUBCHEM_SHAPE_VOLUME>
247.7

> <PUBCHEM_COORDINATE_TYPE>
2
5
10

$$$$
