24905232
  -OEChem-10052115143D

 41 44  0     0  0  0  0  0  0999 V2000
    2.9355    1.0457   -0.0470 N   0  0  0  0  0  0  0  0  0  0  0  0
    1.6492    1.4021    0.1269 N   0  0  0  0  0  0  0  0  0  0  0  0
    4.2885   -0.9488   -0.2786 N   0  0  0  0  0  0  0  0  0  0  0  0
    2.9347   -2.9750   -0.1683 N   0  0  0  0  0  0  0  0  0  0  0  0
    0.5672   -2.9296    0.1320 N   0  0  0  0  0  0  0  0  0  0  0  0
   -4.5485    0.1346    0.9151 N   0  0  0  0  0  0  0  0  0  0  0  0
   -6.7611    0.1345    0.0328 N   0  0  0  0  0  0  0  0  0  0  0  0
    3.9503    2.0678   -0.1448 C   0  0  0  0  0  0  0  0  0  0  0  0
    1.8694   -0.8706    0.0303 C   0  0  0  0  0  0  0  0  0  0  0  0
    3.1234   -0.3030   -0.1115 C   0  0  0  0  0  0  0  0  0  0  0  0
    1.0050    0.2308    0.1731 C   0  0  0  0  0  0  0  0  0  0  0  0
   -0.4190    0.2063    0.3530 C   0  0  0  0  0  0  0  0  0  0  0  0
    4.0418    2.8952    1.1398 C   0  0  0  0  0  0  0  0  0  0  0  0
    3.7247    2.9708   -1.3600 C   0  0  0  0  0  0  0  0  0  0  0  0
    1.7964   -2.2592   -0.0023 C   0  0  0  0  0  0  0  0  0  0  0  0
   -1.2653    0.2304   -0.7517 C   0  0  0  0  0  0  0  0  0  0  0  0
   -2.6597    0.2067   -0.5798 C   0  0  0  0  0  0  0  0  0  0  0  0
   -0.9611    0.1586    1.6314 C   0  0  0  0  0  0  0  0  0  0  0  0
   -3.2172    0.1582    0.7152 C   0  0  0  0  0  0  0  0  0  0  0  0
   -2.3475    0.1350    1.8021 C   0  0  0  0  0  0  0  0  0  0  0  0
    4.0934   -2.2851   -0.2943 C   0  0  0  0  0  0  0  0  0  0  0  0
   -3.5347    0.2303   -1.6742 C   0  0  0  0  0  0  0  0  0  0  0  0
   -4.9069    0.2060   -1.4713 C   0  0  0  0  0  0  0  0  0  0  0  0
   -5.3585    0.1584   -0.1680 C   0  0  0  0  0  0  0  0  0  0  0  0
    4.9129    1.5605   -0.2823 H   0  0  0  0  0  0  0  0  0  0  0  0
    4.2116    2.2491    2.0083 H   0  0  0  0  0  0  0  0  0  0  0  0
    4.8713    3.6079    1.0821 H   0  0  0  0  0  0  0  0  0  0  0  0
    3.1227    3.4631    1.3225 H   0  0  0  0  0  0  0  0  0  0  0  0
    3.6676    2.3789   -2.2802 H   0  0  0  0  0  0  0  0  0  0  0  0
    4.5477    3.6851   -1.4689 H   0  0  0  0  0  0  0  0  0  0  0  0
    2.7934    3.5416   -1.2735 H   0  0  0  0  0  0  0  0  0  0  0  0
   -0.8459    0.2673   -1.7563 H   0  0  0  0  0  0  0  0  0  0  0  0
   -0.3214    0.1385    2.5105 H   0  0  0  0  0  0  0  0  0  0  0  0
   -2.7473    0.0974    2.8137 H   0  0  0  0  0  0  0  0  0  0  0  0
    4.9851   -2.8887   -0.4254 H   0  0  0  0  0  0  0  0  0  0  0  0
   -3.1512    0.2676   -2.6913 H   0  0  0  0  0  0  0  0  0  0  0  0
    0.5589   -3.9404    0.1019 H   0  0  0  0  0  0  0  0  0  0  0  0
   -0.2972   -2.4234    0.2558 H   0  0  0  0  0  0  0  0  0  0  0  0
   -5.5856    0.2235   -2.3173 H   0  0  0  0  0  0  0  0  0  0  0  0
   -7.3551    0.5683   -0.6632 H   0  0  0  0  0  0  0  0  0  0  0  0
   -7.0872    0.1061    0.9909 H   0  0  0  0  0  0  0  0  0  0  0  0
  1  2  1  0  0  0  0
  1  8  1  0  0  0  0
  1 10  1  0  0  0  0
  2 11  2  0  0  0  0
  3 10  2  0  0  0  0
  3 21  1  0  0  0  0
  4 15  1  0  0  0  0
  4 21  2  0  0  0  0
  5 15  1  0  0  0  0
  5 37  1  0  0  0  0
  5 38  1  0  0  0  0
  6 19  1  0  0  0  0
  6 24  2  0  0  0  0
  7 24  1  0  0  0  0
  7 40  1  0  0  0  0
  7 41  1  0  0  0  0
  8 13  1  0  0  0  0
  8 14  1  0  0  0  0
  8 25  1  0  0  0  0
  9 10  1  0  0  0  0
  9 11  1  0  0  0  0
  9 15  2  0  0  0  0
 11 12  1  0  0  0  0
 12 16  2  0  0  0  0
 12 18  1  0  0  0  0
 13 26  1  0  0  0  0
 13 27  1  0  0  0  0
 13 28  1  0  0  0  0
 14 29  1  0  0  0  0
 14 30  1  0  0  0  0
 14 31  1  0  0  0  0
 16 17  1  0  0  0  0
 16 32  1  0  0  0  0
 17 19  2  0  0  0  0
 17 22  1  0  0  0  0
 18 20  2  0  0  0  0
 18 33  1  0  0  0  0
 19 20  1  0  0  0  0
 20 34  1  0  0  0  0
 21 35  1  0  0  0  0
 22 23  2  0  0  0  0
 22 36  1  0  0  0  0
 23 24  1  0  0  0  0
 23 39  1  0  0  0  0
M  END
> <PUBCHEM_COMPOUND_CID>
24905232

> <PUBCHEM_CONFORMER_RMSD>
0.6

> <PUBCHEM_CONFORMER_DIVERSEORDER>
2
5
4
3
6
1

> <PUBCHEM_MMFF94_PARTIAL_CHARGES>
30
1 0.31
10 0.11
11 0.23
12 0.05
15 0.41
16 -0.15
18 -0.15
19 0.31
2 -0.71
20 -0.15
21 0.47
22 -0.15
23 -0.15
24 0.41
3 -0.57
32 0.15
33 0.15
34 0.15
35 0.15
36 0.15
37 0.4
38 0.4
39 0.15
4 -0.62
40 0.4
41 0.4
5 -0.9
6 -0.62
7 -0.9
8 0.26

> <PUBCHEM_EFFECTIVE_ROTOR_COUNT>
2

> <PUBCHEM_PHARMACOPHORE_FEATURES>
12
1 2 acceptor
1 5 cation
1 5 donor
1 7 donor
3 1 3 10 cation
3 3 4 21 cation
3 6 7 24 cation
3 8 13 14 hydrophobe
5 1 2 9 10 11 rings
6 12 16 17 18 19 20 rings
6 3 4 9 10 15 21 rings
6 6 17 19 22 23 24 rings

> <PUBCHEM_HEAVY_ATOM_COUNT>
24

> <PUBCHEM_ATOM_DEF_STEREO_COUNT>
0

> <PUBCHEM_ATOM_UDEF_STEREO_COUNT>
0

> <PUBCHEM_BOND_DEF_STEREO_COUNT>
0

> <PUBCHEM_BOND_UDEF_STEREO_COUNT>
0

> <PUBCHEM_ISOTOPIC_ATOM_COUNT>
0

> <PUBCHEM_COMPONENT_COUNT>
1

> <PUBCHEM_CACTVS_TAUTO_COUNT>
14

> <PUBCHEM_CONFORMER_ID>
017C061000000002

> <PUBCHEM_MMFF94_ENERGY>
69.8389

> <PUBCHEM_FEATURE_SELFOVERLAP>
61.207

> <PUBCHEM_SHAPE_FINGERPRINT>
10366900 7 17895768283162404778
10411042 1 17978792312304259678
12107183 9 17623862223399683393
12236239 1 17703791383899083939
12403259 415 17749107773276683461
12616971 3 18060420188345234591
12730499 353 18336271227045422425
13009979 54 17272857502718906770
13140716 1 18338799039560805026
13533116 47 18342740710893417569
13631057 29 17841138172137793759
13836976 161 18343584031901260990
13911987 19 18120669173266934428
13955234 65 18411412904339925850
15375358 24 17749105621229127041
15961568 22 16733272355939573780
17138139 8 17557113376290985623
17818456 19 17271176310505672809
17844677 252 18336831896994085237
1813 80 17914348879116534630
18186145 218 17604150324775989577
200 152 18272367521435249203
20369508 70 17968651610744087810
20511986 3 17631996603284333585
20554085 129 17774147050840680056
20600515 1 16081369717134386933
20612939 158 18412546500432413269
20645477 70 18335421248828240626
21033648 29 17748819701166993821
21065201 7 16587749728433854339
21709351 56 18270401564173832749
22149856 69 18264506108476969923
2255824 54 18342462513198598606
23557571 272 17095526154256156463
23559900 14 16660650630958499066
25147074 1 17916600746958645592
3004659 81 17775004552948818815
312423 11 18130799905811197953
42630746 31 18413668020058013922
4340502 62 18341326794437120826
46194498 28 18259985950753563221
474 4 18270679891425137024
495365 180 18408320012490600312
5281201 14 18260547775441643405
6025842 7 18412263947614083766
6034566 193 17828494900477380228
6327066 14 17973729366106129708
633830 44 18057630757099335416
70251023 43 18268995284659998642
7471813 234 18059290955575724456
77492 1 17704076161615870570
8272917 22 18412266124967246093

> <PUBCHEM_SHAPE_MULTIPOLES>
459.04
11.83
2.8
1.33
12.84
0.56
0.11
-2.97
-1.86
-6.48
-0.26
1.04
-0.5
0.21

> <PUBCHEM_SHAPE_SELFOVERLAP>
1027.586

> <PUBCHEM_SHAPE_VOLUME>
240.2

> <PUBCHEM_COORDINATE_TYPE>
2
5
10

$$$$
