49830490
  -OEChem-10052120443D

 51 53  0     1  0  0  0  0  0999 V2000
    4.8056   -1.8410    0.1819 O   0  0  0  0  0  0  0  0  0  0  0  0
   -0.4652    3.5334    0.1784 O   0  0  0  0  0  0  0  0  0  0  0  0
    0.7969    1.5921    0.3029 N   0  0  0  0  0  0  0  0  0  0  0  0
   -7.5149   -2.3358   -0.1820 N   0  0  0  0  0  0  0  0  0  0  0  0
    2.0868    2.2367    0.4004 C   0  0  2  0  0  0  0  0  0  0  0  0
    3.1694    1.4024   -0.2497 C   0  0  0  0  0  0  0  0  0  0  0  0
    2.4083    2.5807    1.8533 C   0  0  0  0  0  0  0  0  0  0  0  0
    3.4926    0.1497    0.2717 C   0  0  0  0  0  0  0  0  0  0  0  0
    3.8443    1.8867   -1.3703 C   0  0  0  0  0  0  0  0  0  0  0  0
    4.4907   -0.6187   -0.3275 C   0  0  0  0  0  0  0  0  0  0  0  0
   -0.4115    2.2908    0.1969 C   0  0  0  0  0  0  0  0  0  0  0  0
   -1.6287    1.4982    0.1322 C   0  0  0  0  0  0  0  0  0  0  0  0
    4.8423    1.1183   -1.9694 C   0  0  0  0  0  0  0  0  0  0  0  0
    5.1657   -0.1345   -1.4479 C   0  0  0  0  0  0  0  0  0  0  0  0
   -3.9642   -0.0225    0.0078 C   0  0  0  0  0  0  0  0  0  0  0  0
    6.1521   -2.2845    0.0198 C   0  0  0  0  0  0  0  0  0  0  0  0
   -2.8354    2.0353    0.5808 C   0  0  0  0  0  0  0  0  0  0  0  0
   -1.5898    0.2007   -0.3786 C   0  0  0  0  0  0  0  0  0  0  0  0
   -4.0030    1.2750    0.5186 C   0  0  0  0  0  0  0  0  0  0  0  0
   -2.7576   -0.5596   -0.4406 C   0  0  0  0  0  0  0  0  0  0  0  0
    6.5087   -3.2065    1.1757 C   0  0  0  0  0  0  0  0  0  0  0  0
   -5.1753   -0.8112   -0.0565 C   0  0  0  0  0  0  0  0  0  0  0  0
    7.9382   -3.7080    1.0778 C   0  0  0  0  0  0  0  0  0  0  0  0
   -6.1870   -0.6154    0.8771 C   0  0  0  0  0  0  0  0  0  0  0  0
   -5.3321   -1.7684   -1.0527 C   0  0  0  0  0  0  0  0  0  0  0  0
   -7.3267   -1.3963    0.7719 C   0  0  0  0  0  0  0  0  0  0  0  0
   -6.5101   -2.4977   -1.0719 C   0  0  0  0  0  0  0  0  0  0  0  0
    2.0112    3.1897   -0.1394 H   0  0  0  0  0  0  0  0  0  0  0  0
    0.7788    0.5835    0.4124 H   0  0  0  0  0  0  0  0  0  0  0  0
    1.6570    3.2635    2.2659 H   0  0  0  0  0  0  0  0  0  0  0  0
    3.3867    3.0667    1.9363 H   0  0  0  0  0  0  0  0  0  0  0  0
    2.4185    1.6912    2.4931 H   0  0  0  0  0  0  0  0  0  0  0  0
    2.9726   -0.2419    1.1424 H   0  0  0  0  0  0  0  0  0  0  0  0
    3.6031    2.8598   -1.7897 H   0  0  0  0  0  0  0  0  0  0  0  0
    5.3631    1.4930   -2.8458 H   0  0  0  0  0  0  0  0  0  0  0  0
    5.9292   -0.7117   -1.9609 H   0  0  0  0  0  0  0  0  0  0  0  0
    6.2390   -2.8215   -0.9319 H   0  0  0  0  0  0  0  0  0  0  0  0
    6.8570   -1.4429    0.0304 H   0  0  0  0  0  0  0  0  0  0  0  0
   -2.8869    3.0449    0.9804 H   0  0  0  0  0  0  0  0  0  0  0  0
   -0.6771   -0.2467   -0.7614 H   0  0  0  0  0  0  0  0  0  0  0  0
   -4.9242    1.7444    0.8530 H   0  0  0  0  0  0  0  0  0  0  0  0
   -2.6752   -1.5727   -0.8246 H   0  0  0  0  0  0  0  0  0  0  0  0
    6.3643   -2.6786    2.1260 H   0  0  0  0  0  0  0  0  0  0  0  0
    5.8160   -4.0564    1.1952 H   0  0  0  0  0  0  0  0  0  0  0  0
    8.1659   -4.3709    1.9184 H   0  0  0  0  0  0  0  0  0  0  0  0
    8.6491   -2.8758    1.1001 H   0  0  0  0  0  0  0  0  0  0  0  0
    8.0945   -4.2691    0.1509 H   0  0  0  0  0  0  0  0  0  0  0  0
   -6.1182    0.0930    1.6954 H   0  0  0  0  0  0  0  0  0  0  0  0
   -4.5968   -1.9524   -1.8283 H   0  0  0  0  0  0  0  0  0  0  0  0
   -8.1421   -1.2878    1.4795 H   0  0  0  0  0  0  0  0  0  0  0  0
   -6.6850   -3.2514   -1.8327 H   0  0  0  0  0  0  0  0  0  0  0  0
  1 10  1  0  0  0  0
  1 16  1  0  0  0  0
  2 11  2  0  0  0  0
  3  5  1  0  0  0  0
  3 11  1  0  0  0  0
  3 29  1  0  0  0  0
  4 26  2  0  0  0  0
  4 27  1  0  0  0  0
  5  6  1  0  0  0  0
  5  7  1  0  0  0  0
  5 28  1  0  0  0  0
  6  8  2  0  0  0  0
  6  9  1  0  0  0  0
  7 30  1  0  0  0  0
  7 31  1  0  0  0  0
  7 32  1  0  0  0  0
  8 10  1  0  0  0  0
  8 33  1  0  0  0  0
  9 13  2  0  0  0  0
  9 34  1  0  0  0  0
 10 14  2  0  0  0  0
 11 12  1  0  0  0  0
 12 17  2  0  0  0  0
 12 18  1  0  0  0  0
 13 14  1  0  0  0  0
 13 35  1  0  0  0  0
 14 36  1  0  0  0  0
 15 19  2  0  0  0  0
 15 20  1  0  0  0  0
 15 22  1  0  0  0  0
 16 21  1  0  0  0  0
 16 37  1  0  0  0  0
 16 38  1  0  0  0  0
 17 19  1  0  0  0  0
 17 39  1  0  0  0  0
 18 20  2  0  0  0  0
 18 40  1  0  0  0  0
 19 41  1  0  0  0  0
 20 42  1  0  0  0  0
 21 23  1  0  0  0  0
 21 43  1  0  0  0  0
 21 44  1  0  0  0  0
 22 24  2  0  0  0  0
 22 25  1  0  0  0  0
 23 45  1  0  0  0  0
 23 46  1  0  0  0  0
 23 47  1  0  0  0  0
 24 26  1  0  0  0  0
 24 48  1  0  0  0  0
 25 27  2  0  0  0  0
 25 49  1  0  0  0  0
 26 50  1  0  0  0  0
 27 51  1  0  0  0  0
M  END
> <PUBCHEM_COMPOUND_CID>
49830490

> <PUBCHEM_CONFORMER_RMSD>
0.8

> <PUBCHEM_CONFORMER_DIVERSEORDER>
1
18
7
129
162
88
51
146
163
126
90
150
183
151
66
123
42
184
157
33
171
17
107
41
175
15
112
105
21
176
134
137
174
149
147
76
24
168
120
124
99
25
98
78
187
23
63
182
166
77
74
173
108
169
135
64
83
185
131
139
69
186
138
12
11
70
125
158
165
110
93
75
32
81
85
54
20
60
96
109
26
121
16
178
57
130
101
180
36
10
117
30
22
104
13
128
45
71
97
102
6
46
143
116
179
62
153
127
133
14
132
65
94
114
188
140
87
118
2
35
79
177
189
82
160
68
44
144
3
47
53
49
159
106
48
113
154
8
19
95
170
89
115
39
111
40
28
5
100
161
59
58
92
181
156
38
43
167
145
91
52
122
50
119
73
84
37
80
61
67
141
72
31
172
55
103
164
34
9
155
56
27
136
29
148
152
86
4
142

> <PUBCHEM_MMFF94_PARTIAL_CHARGES>
35
1 -0.36
10 0.08
11 0.54
12 0.09
13 -0.15
14 -0.15
16 0.28
17 -0.15
18 -0.15
19 -0.15
2 -0.57
20 -0.15
24 -0.15
25 -0.15
26 0.16
27 0.16
29 0.37
3 -0.73
33 0.15
34 0.15
35 0.15
36 0.15
39 0.15
4 -0.62
40 0.15
41 0.15
42 0.15
48 0.15
49 0.15
5 0.44
50 0.15
51 0.15
6 -0.14
8 -0.15
9 -0.15

> <PUBCHEM_EFFECTIVE_ROTOR_COUNT>
8

> <PUBCHEM_PHARMACOPHORE_FEATURES>
8
1 1 acceptor
1 2 acceptor
1 23 hydrophobe
1 3 donor
1 4 acceptor
6 12 15 17 18 19 20 rings
6 4 22 24 25 26 27 rings
6 6 8 9 10 13 14 rings

> <PUBCHEM_HEAVY_ATOM_COUNT>
27

> <PUBCHEM_ATOM_DEF_STEREO_COUNT>
0

> <PUBCHEM_ATOM_UDEF_STEREO_COUNT>
1

> <PUBCHEM_BOND_DEF_STEREO_COUNT>
0

> <PUBCHEM_BOND_UDEF_STEREO_COUNT>
0

> <PUBCHEM_ISOTOPIC_ATOM_COUNT>
0

> <PUBCHEM_COMPONENT_COUNT>
1

> <PUBCHEM_CACTVS_TAUTO_COUNT>
2

> <PUBCHEM_CONFORMER_ID>
02F85A5A00000001

> <PUBCHEM_MMFF94_ENERGY>
83.5206

> <PUBCHEM_FEATURE_SELFOVERLAP>
40.597

> <PUBCHEM_SHAPE_FINGERPRINT>
10 15 11023830600304876845
10319926 262 16773810186178186977
10533779 1 9294999129453142722
10622 236 18262513698200629794
11991303 11 17824533073090282685
1200032 147 11311767385414364694
12166972 35 18041002855647814213
12422481 6 16415210030761719437
13533116 47 18339926021018690561
13782708 43 18335137609472791119
14216079 64 18343023333164466495
14251764 75 10159688106355600062
14344974 204 17976816494536890866
14347332 77 18412827988858827005
14428016 204 11815889076544050034
14565420 104 16770689935092567072
15183329 4 18130797801836184247
15475509 35 18343579651392957864
15519825 34 15051150394862570511
15803439 3 14779558854990744224
1979834 28 16558761091704145692
19841028 212 18334294275211599634
208703 8 18336257947539988202
21130935 74 18198624531360936459
21304303 94 17967535726800849048
21344244 181 17894917364431808435
21344244 78 16272210803590003240
21585481 104 17022902311735355053
21585483 132 18041271072493934354
21792938 131 18335975403279880499
21792938 703 18040723571832743362
23522609 53 18052575220074134545
23559900 14 17970633119955488577
23569943 247 18410293593298700131
270888 7 9439394740416972010
2748736 6 8430322303396397319
3004659 81 18186520999455224512
3472631 163 8214148447335282273
34797466 226 16371009675998976885
397830 11 12463287051112866517
406291 66 18335698291974416522
4073 2 17910393123599265897
439807 62 18334861606168390255
46194498 28 17313664983029780533
465052 167 17917440855494254268
474113 269 18341601604284328895
5104073 3 17775569740707348145
5372103 7 15938672981048344316
54039377 194 18337393743378613030
5718773 13 18410007711236636994
5874358 3 17345169269138213647
6201460 15 17539114070397458394
6327066 14 8934706808639973730
7970288 3 18411978052942367750
96874 4 18410571777649622070

> <PUBCHEM_SHAPE_MULTIPOLES>
533.95
22.3
4.13
1.34
4.99
1.21
-0.18
28.54
0.88
-5.12
1.21
-1.48
-0.13
-3.48

> <PUBCHEM_SHAPE_SELFOVERLAP>
1143.773

> <PUBCHEM_SHAPE_VOLUME>
294.4

> <PUBCHEM_COORDINATE_TYPE>
2
5
10

$$$$
