52945752
  -OEChem-10052115143D

 51 55  0     0  0  0  0  0  0999 V2000
   -9.5472    1.7371    0.0035 O   0  0  0  0  0  0  0  0  0  0  0  0
   -3.9768   -1.5264   -0.2772 O   0  0  0  0  0  0  0  0  0  0  0  0
   -7.0057    0.4906    0.3016 N   0  0  0  0  0  0  0  0  0  0  0  0
    3.8558   -1.3987    0.0037 N   0  0  0  0  0  0  0  0  0  0  0  0
    3.4677    0.9717   -0.0513 N   0  0  0  0  0  0  0  0  0  0  0  0
    4.8802   -2.2897    0.0654 N   0  0  0  0  0  0  0  0  0  0  0  0
    7.7058    2.8254    0.1111 N   0  0  0  0  0  0  0  0  0  0  0  0
    8.7065    1.9303    0.1725 N   0  0  0  0  0  0  0  0  0  0  0  0
   -8.0367    0.3929    1.3444 C   0  0  0  0  0  0  0  0  0  0  0  0
   -7.6362    0.6449   -1.0167 C   0  0  0  0  0  0  0  0  0  0  0  0
   -6.1316   -0.6802    0.3249 C   0  0  0  0  0  0  0  0  0  0  0  0
   -8.9440    1.6187    1.2925 C   0  0  0  0  0  0  0  0  0  0  0  0
   -8.5521    1.8656   -1.0126 C   0  0  0  0  0  0  0  0  0  0  0  0
   -4.7991   -0.3684   -0.3376 C   0  0  0  0  0  0  0  0  0  0  0  0
   -2.6224   -1.3208   -0.2356 C   0  0  0  0  0  0  0  0  0  0  0  0
    0.1347   -0.9037   -0.1518 C   0  0  0  0  0  0  0  0  0  0  0  0
    1.5879   -0.6849   -0.1092 C   0  0  0  0  0  0  0  0  0  0  0  0
    4.3230   -0.0861    0.0050 C   0  0  0  0  0  0  0  0  0  0  0  0
    5.6956   -0.1622    0.0691 C   0  0  0  0  0  0  0  0  0  0  0  0
    2.4922   -1.6765   -0.0519 C   0  0  0  0  0  0  0  0  0  0  0  0
   -1.7986   -2.2338    0.4229 C   0  0  0  0  0  0  0  0  0  0  0  0
   -2.0677   -0.1993   -0.8520 C   0  0  0  0  0  0  0  0  0  0  0  0
   -0.4202   -2.0252    0.4648 C   0  0  0  0  0  0  0  0  0  0  0  0
   -0.6892    0.0093   -0.8101 C   0  0  0  0  0  0  0  0  0  0  0  0
    2.2030    0.6802   -0.1035 C   0  0  0  0  0  0  0  0  0  0  0  0
    6.6674    0.9038    0.0969 C   0  0  0  0  0  0  0  0  0  0  0  0
    5.9773   -1.5344    0.1037 C   0  0  0  0  0  0  0  0  0  0  0  0
    6.4645    2.2619    0.0641 C   0  0  0  0  0  0  0  0  0  0  0  0
    8.0660    0.7583    0.1634 C   0  0  0  0  0  0  0  0  0  0  0  0
   -7.5737    0.3400    2.3365 H   0  0  0  0  0  0  0  0  0  0  0  0
   -8.6376   -0.5144    1.1995 H   0  0  0  0  0  0  0  0  0  0  0  0
   -6.8881    0.7851   -1.8031 H   0  0  0  0  0  0  0  0  0  0  0  0
   -8.2256   -0.2477   -1.2644 H   0  0  0  0  0  0  0  0  0  0  0  0
   -6.6005   -1.5622   -0.1312 H   0  0  0  0  0  0  0  0  0  0  0  0
   -5.9119   -0.9726    1.3611 H   0  0  0  0  0  0  0  0  0  0  0  0
   -9.7485    1.5183    2.0281 H   0  0  0  0  0  0  0  0  0  0  0  0
   -8.3946    2.5390    1.5254 H   0  0  0  0  0  0  0  0  0  0  0  0
   -7.9888    2.7941   -0.8585 H   0  0  0  0  0  0  0  0  0  0  0  0
   -9.0684    1.9474   -1.9745 H   0  0  0  0  0  0  0  0  0  0  0  0
   -4.9314   -0.1010   -1.3911 H   0  0  0  0  0  0  0  0  0  0  0  0
   -4.3446    0.4771    0.1966 H   0  0  0  0  0  0  0  0  0  0  0  0
    2.2326   -2.7290   -0.0549 H   0  0  0  0  0  0  0  0  0  0  0  0
   -2.2262   -3.1070    0.9082 H   0  0  0  0  0  0  0  0  0  0  0  0
   -2.6694    0.5182   -1.4020 H   0  0  0  0  0  0  0  0  0  0  0  0
    0.1882   -2.7480    1.0018 H   0  0  0  0  0  0  0  0  0  0  0  0
   -0.2863    0.8783   -1.3229 H   0  0  0  0  0  0  0  0  0  0  0  0
    1.4983    1.5266   -0.1251 H   0  0  0  0  0  0  0  0  0  0  0  0
    6.9350   -2.0332    0.1556 H   0  0  0  0  0  0  0  0  0  0  0  0
    5.5757    2.8745    0.0125 H   0  0  0  0  0  0  0  0  0  0  0  0
    8.6568   -0.1461    0.2058 H   0  0  0  0  0  0  0  0  0  0  0  0
    7.9422    3.8097    0.1048 H   0  0  0  0  0  0  0  0  0  0  0  0
  1 12  1  0  0  0  0
  1 13  1  0  0  0  0
  2 14  1  0  0  0  0
  2 15  1  0  0  0  0
  3  9  1  0  0  0  0
  3 10  1  0  0  0  0
  3 11  1  0  0  0  0
  4  6  1  0  0  0  0
  4 18  1  0  0  0  0
  4 20  1  0  0  0  0
  5 18  1  0  0  0  0
  5 25  2  0  0  0  0
  6 27  2  0  0  0  0
  7  8  1  0  0  0  0
  7 28  1  0  0  0  0
  7 51  1  0  0  0  0
  8 29  2  0  0  0  0
  9 12  1  0  0  0  0
  9 30  1  0  0  0  0
  9 31  1  0  0  0  0
 10 13  1  0  0  0  0
 10 32  1  0  0  0  0
 10 33  1  0  0  0  0
 11 14  1  0  0  0  0
 11 34  1  0  0  0  0
 11 35  1  0  0  0  0
 12 36  1  0  0  0  0
 12 37  1  0  0  0  0
 13 38  1  0  0  0  0
 13 39  1  0  0  0  0
 14 40  1  0  0  0  0
 14 41  1  0  0  0  0
 15 21  2  0  0  0  0
 15 22  1  0  0  0  0
 16 17  1  0  0  0  0
 16 23  2  0  0  0  0
 16 24  1  0  0  0  0
 17 20  2  0  0  0  0
 17 25  1  0  0  0  0
 18 19  2  0  0  0  0
 19 26  1  0  0  0  0
 19 27  1  0  0  0  0
 20 42  1  0  0  0  0
 21 23  1  0  0  0  0
 21 43  1  0  0  0  0
 22 24  2  0  0  0  0
 22 44  1  0  0  0  0
 23 45  1  0  0  0  0
 24 46  1  0  0  0  0
 25 47  1  0  0  0  0
 26 28  2  0  0  0  0
 26 29  1  0  0  0  0
 27 48  1  0  0  0  0
 28 49  1  0  0  0  0
 29 50  1  0  0  0  0
M  END
> <PUBCHEM_COMPOUND_CID>
52945752

> <PUBCHEM_CONFORMER_RMSD>
0.8

> <PUBCHEM_CONFORMER_DIVERSEORDER>
1
77
12
59
19
48
68
34
11
29
36
75
70
60
25
35
65
28
50
46
26
2
39
78
44
3
16
74
66
32
72
79
55
14
67
57
24
8
38
31
73
41
9
71
33
18
10
61
76
15
54
45
40
42
56
5
51
17
47
63
62
21
7
52
30
13
53
58
49
37
43
27
23
64
22
4
69
6
20

> <PUBCHEM_MMFF94_PARTIAL_CHARGES>
37
1 -0.56
10 0.27
11 0.27
12 0.28
13 0.28
14 0.28
15 0.08
16 0.03
17 -0.01
18 -0.03
2 -0.36
20 -0.18
21 -0.15
22 -0.15
23 -0.15
24 -0.15
25 0.38
27 0.14
28 -0.3
29 0.14
3 -0.81
4 0.6
42 0.15
43 0.15
44 0.15
45 0.15
46 0.15
47 0.06
48 0.15
49 0.15
5 -0.58
50 0.15
51 0.27
6 -0.71
7 0.3
8 -0.71
9 0.27

> <PUBCHEM_EFFECTIVE_ROTOR_COUNT>
7.2

> <PUBCHEM_PHARMACOPHORE_FEATURES>
12
1 1 acceptor
1 2 acceptor
1 3 cation
1 5 acceptor
1 6 acceptor
1 7 donor
1 8 acceptor
5 4 6 18 19 27 rings
5 7 8 26 28 29 rings
6 1 3 9 10 12 13 rings
6 15 16 21 22 23 24 rings
6 4 5 17 18 20 25 rings

> <PUBCHEM_HEAVY_ATOM_COUNT>
29

> <PUBCHEM_ATOM_DEF_STEREO_COUNT>
0

> <PUBCHEM_ATOM_UDEF_STEREO_COUNT>
0

> <PUBCHEM_BOND_DEF_STEREO_COUNT>
0

> <PUBCHEM_BOND_UDEF_STEREO_COUNT>
0

> <PUBCHEM_ISOTOPIC_ATOM_COUNT>
0

> <PUBCHEM_COMPONENT_COUNT>
1

> <PUBCHEM_CACTVS_TAUTO_COUNT>
1

> <PUBCHEM_CONFORMER_ID>
0327E35800000001

> <PUBCHEM_MMFF94_ENERGY>
69.3231

> <PUBCHEM_FEATURE_SELFOVERLAP>
61.028

> <PUBCHEM_SHAPE_FINGERPRINT>
10 15 17967812739438420377
10066227 49 9295296036130686165
10411042 1 18050566237254665950
11181472 205 17703238316575603610
11315181 36 18201719558040817275
11386260 185 14189567568362334346
11578821 258 18342458145307335121
11607047 141 17822844270468845298
12539765 74 18201444670352358862
13553643 46 18334009476078492533
13668630 136 11383830463893271027
14617042 71 18335986471511101356
14849402 71 18341333370586510793
15183329 4 16845575305738416667
15198563 99 13758085056591516163
15461852 350 16988556936296999263
155225 1 18271807905146914225
15706992 2 18270975608729269777
1577012 14 18413383250625668239
15840311 113 18410015429777794716
16989713 51 16772939463664806631
1754908 1 15863790612493733785
1754911 235 17918275363476612324
1818759 1 11530477813967484624
19315958 150 18409733954263520134
195137 175 18131913771683627869
2026 5 9295298235428508201
20771845 140 14707202224176766864
22149856 69 15430310274645348105
22224240 67 17967816038058213235
23524908 199 17703801293549036606
23576562 1 15984239964196826665
24771293 8 18260546757829780511
306946 40 17385994050368203637
3178227 256 16226049998082922607
33532 11 8790886280715769993
3633792 109 18273219690450203330
3711267 37 18341344331359121249
4073 2 18261113019003247786
4169191 19 18273497854222919401
4516262 110 18336538319369259735
4760202 170 16629957859166055032
54039377 194 9223223049905694857
5758199 1 18334013891552123379
59682541 35 17894636959376155097
6081469 158 12391516377569000760
636775 72 18409730635098039849
9953998 17 17675926517373884043

> <PUBCHEM_SHAPE_MULTIPOLES>
555.18
32.4
2.47
0.88
32.37
0.35
-0.06
26.4
-4.07
-2.45
-0.18
1.85
0.17
0.16

> <PUBCHEM_SHAPE_SELFOVERLAP>
1218.458

> <PUBCHEM_SHAPE_VOLUME>
300.3

> <PUBCHEM_COORDINATE_TYPE>
2
5
10

$$$$
