2850534
  -OEChem-10062122033D

 34 37  0     0  0  0  0  0  0999 V2000
    3.8255    1.9948   -0.0002 N   0  0  0  0  0  0  0  0  0  0  0  0
   -3.2120   -1.4332    0.0005 N   0  0  0  0  0  0  0  0  0  0  0  0
   -2.7043    0.7308    0.0012 N   0  0  0  0  0  0  0  0  0  0  0  0
   -0.9372   -0.9129    0.0003 N   0  0  0  0  0  0  0  0  0  0  0  0
    0.0777   -0.0268   -0.0001 N   0  0  0  0  0  0  0  0  0  0  0  0
    3.8309   -0.2361   -0.0007 C   0  0  0  0  0  0  0  0  0  0  0  0
    4.6518    0.8937    0.0001 C   0  0  0  0  0  0  0  0  0  0  0  0
    2.4850    0.2256   -0.0015 C   0  0  0  0  0  0  0  0  0  0  0  0
    2.5141    1.6011   -0.0012 C   0  0  0  0  0  0  0  0  0  0  0  0
   -4.4151   -0.7749    0.0001 C   0  0  0  0  0  0  0  0  0  0  0  0
    4.4315   -1.5108   -0.0006 C   0  0  0  0  0  0  0  0  0  0  0  0
   -4.0714    0.5741    0.0006 C   0  0  0  0  0  0  0  0  0  0  0  0
    6.0488    0.8122    0.0009 C   0  0  0  0  0  0  0  0  0  0  0  0
   -2.2707   -0.4751    0.0010 C   0  0  0  0  0  0  0  0  0  0  0  0
    1.2805   -0.5552   -0.0008 C   0  0  0  0  0  0  0  0  0  0  0  0
    5.8278   -1.6076    0.0005 C   0  0  0  0  0  0  0  0  0  0  0  0
    6.6220   -0.4627    0.0011 C   0  0  0  0  0  0  0  0  0  0  0  0
   -5.7341   -1.2300   -0.0007 C   0  0  0  0  0  0  0  0  0  0  0  0
   -5.0913    1.5406    0.0006 C   0  0  0  0  0  0  0  0  0  0  0  0
   -6.7365   -0.2544   -0.0009 C   0  0  0  0  0  0  0  0  0  0  0  0
   -6.4229    1.1069   -0.0002 C   0  0  0  0  0  0  0  0  0  0  0  0
    4.1419    2.9546    0.0003 H   0  0  0  0  0  0  0  0  0  0  0  0
    1.7251    2.3406   -0.0011 H   0  0  0  0  0  0  0  0  0  0  0  0
    3.8281   -2.4141   -0.0012 H   0  0  0  0  0  0  0  0  0  0  0  0
    6.6680    1.7029    0.0015 H   0  0  0  0  0  0  0  0  0  0  0  0
   -3.0730   -2.4355    0.0001 H   0  0  0  0  0  0  0  0  0  0  0  0
    1.4040   -1.6536   -0.0008 H   0  0  0  0  0  0  0  0  0  0  0  0
    6.2966   -2.5881    0.0007 H   0  0  0  0  0  0  0  0  0  0  0  0
    7.7046   -0.5610    0.0018 H   0  0  0  0  0  0  0  0  0  0  0  0
   -5.9749   -2.2870   -0.0011 H   0  0  0  0  0  0  0  0  0  0  0  0
   -4.8581    2.6005    0.0011 H   0  0  0  0  0  0  0  0  0  0  0  0
   -0.7248   -1.9077   -0.0002 H   0  0  0  0  0  0  0  0  0  0  0  0
   -7.7791   -0.5623   -0.0015 H   0  0  0  0  0  0  0  0  0  0  0  0
   -7.2240    1.8416   -0.0003 H   0  0  0  0  0  0  0  0  0  0  0  0
  1  7  1  0  0  0  0
  1  9  1  0  0  0  0
  1 22  1  0  0  0  0
  2 10  1  0  0  0  0
  2 14  1  0  0  0  0
  2 26  1  0  0  0  0
  3 12  1  0  0  0  0
  3 14  2  0  0  0  0
  4  5  1  0  0  0  0
  4 14  1  0  0  0  0
  4 32  1  0  0  0  0
  5 15  2  3  0  0  0
  6  7  1  0  0  0  0
  6  8  1  0  0  0  0
  6 11  2  0  0  0  0
  7 13  2  0  0  0  0
  8  9  2  0  0  0  0
  8 15  1  0  0  0  0
  9 23  1  0  0  0  0
 10 12  1  0  0  0  0
 10 18  2  0  0  0  0
 11 16  1  0  0  0  0
 11 24  1  0  0  0  0
 12 19  2  0  0  0  0
 13 17  1  0  0  0  0
 13 25  1  0  0  0  0
 15 27  1  0  0  0  0
 16 17  2  0  0  0  0
 16 28  1  0  0  0  0
 17 29  1  0  0  0  0
 18 20  1  0  0  0  0
 18 30  1  0  0  0  0
 19 21  1  0  0  0  0
 19 31  1  0  0  0  0
 20 21  2  0  0  0  0
 20 33  1  0  0  0  0
 21 34  1  0  0  0  0
M  END
> <PUBCHEM_COMPOUND_CID>
2850534

> <PUBCHEM_CONFORMER_RMSD>
0.6

> <PUBCHEM_CONFORMER_DIVERSEORDER>
1
19
16
13
22
20
6
18
2
7
15
8
5
12
14
9
17
23
4
3
21
11
10

> <PUBCHEM_MMFF94_PARTIAL_CHARGES>
33
1 0.03
10 -0.15
11 -0.15
12 0.23
13 -0.15
14 0.27
15 0.48
16 -0.15
17 -0.15
18 -0.15
19 -0.15
2 0.03
20 -0.15
21 -0.15
22 0.27
23 0.15
24 0.15
25 0.15
26 0.27
27 0.06
28 0.15
29 0.15
3 -0.57
30 0.15
31 0.15
32 0.4
33 0.15
34 0.15
4 -0.44
5 -0.49
7 -0.15
8 -0.09
9 -0.3

> <PUBCHEM_EFFECTIVE_ROTOR_COUNT>
3

> <PUBCHEM_PHARMACOPHORE_FEATURES>
10
1 1 cation
1 1 donor
1 2 donor
1 4 donor
1 5 acceptor
4 2 3 4 14 cation
5 1 6 7 8 9 rings
5 2 3 10 12 14 rings
6 10 12 18 19 20 21 rings
6 6 7 11 13 16 17 rings

> <PUBCHEM_HEAVY_ATOM_COUNT>
21

> <PUBCHEM_ATOM_DEF_STEREO_COUNT>
0

> <PUBCHEM_ATOM_UDEF_STEREO_COUNT>
0

> <PUBCHEM_BOND_DEF_STEREO_COUNT>
0

> <PUBCHEM_BOND_UDEF_STEREO_COUNT>
1

> <PUBCHEM_ISOTOPIC_ATOM_COUNT>
0

> <PUBCHEM_COMPONENT_COUNT>
1

> <PUBCHEM_CACTVS_TAUTO_COUNT>
4

> <PUBCHEM_CONFORMER_ID>
002B7EE600000001

> <PUBCHEM_MMFF94_ENERGY>
39.462

> <PUBCHEM_FEATURE_SELFOVERLAP>
50.994

> <PUBCHEM_SHAPE_FINGERPRINT>
100830 39 18337107844063497349
10411042 1 18121780518668963570
10595046 47 18340205301256303695
10638233 991 15864081974426807038
11315181 36 18202567285283751137
11524674 6 16272209721807033287
11719270 70 17917711271357608046
12091667 2 18413108373140405355
12107183 9 17762619482153759538
12166972 35 18409169934705239817
12236239 1 18412825789275999459
12516196 113 18059855069338669360
13167372 99 18343023259338042017
13533116 47 13973697083432037444
13785724 45 17836367047619690038
14170010 4 18410572903627009016
14251752 14 18272087175918892961
14251764 18 18335419080291567358
14341114 176 18408608062724702196
14933364 13 18408605859543557869
15183329 4 18412266107866563144
15196674 1 18410293635704416673
15537594 2 14490469806975033521
15778101 99 18411702042197850617
17844677 252 18410300215531056121
19489759 90 17967814955736464705
20281389 69 18407758135983960841
21267235 1 18409736157296367090
21315763 129 18412545418496553405
21315763 28 18411135849074362479
221357 26 18407757028156666124
23402539 116 18201433692694744989
23536379 177 18411418401502328179
23559900 14 18411132580250920113
23569943 247 17242723196047420298
29717793 49 17989211434648454924
3004659 81 18408322181639021216
3014965 18 18336542725177536470
328311 84 18261399940066444299
3545911 37 18410575093258288257
4073 2 17968663834268589050
4214541 1 18410575089306199329
4325135 7 18273492391098489343
5104073 3 18410293635487847427
542803 24 17458346351005708533
54446538 1 18411981364667932665
59755656 215 18334296431332635142
59755656 520 17822007631871425643
9996256 80 18410572903315824631

> <PUBCHEM_SHAPE_MULTIPOLES>
407.27
20.62
1.68
0.6
5.55
0.21
0
-0.38
0
-0.61
0
-0.01
0
0

> <PUBCHEM_SHAPE_SELFOVERLAP>
918.246

> <PUBCHEM_SHAPE_VOLUME>
215.9

> <PUBCHEM_COORDINATE_TYPE>
2
5
10

$$$$
