11851810
  -OEChem-10052120443D

 52 57  0     0  0  0  0  0  0999 V2000
   -0.2574   -2.4893   -3.0957 O   0  0  0  0  0  0  0  0  0  0  0  0
   -4.2268   -0.4959   -1.9862 O   0  0  0  0  0  0  0  0  0  0  0  0
    3.1765    0.9154   -0.3377 N   0  0  0  0  0  0  0  0  0  0  0  0
    4.8579    3.1908   -0.7181 N   0  0  0  0  0  0  0  0  0  0  0  0
    1.1453   -0.1596   -0.7324 N   0  0  0  0  0  0  0  0  0  0  0  0
    2.7169   -1.0273    0.8750 N   0  0  0  0  0  0  0  0  0  0  0  0
   -2.4049   -1.6303   -2.8745 N   0  0  0  0  0  0  0  0  0  0  0  0
   -3.1311    0.7227    2.3222 N   0  0  0  0  0  0  0  0  0  0  0  0
    2.5965    2.1967   -0.7625 C   0  0  0  0  0  0  0  0  0  0  0  0
    4.4661    0.9999    0.3563 C   0  0  0  0  0  0  0  0  0  0  0  0
    3.6363    3.0343   -1.5062 C   0  0  0  0  0  0  0  0  0  0  0  0
    5.4391    1.8815   -0.4264 C   0  0  0  0  0  0  0  0  0  0  0  0
    2.3030   -0.1402   -0.0525 C   0  0  0  0  0  0  0  0  0  0  0  0
   -0.9329   -1.1849   -1.1908 C   0  0  0  0  0  0  0  0  0  0  0  0
    0.3224   -1.1903   -0.4364 C   0  0  0  0  0  0  0  0  0  0  0  0
   -2.0997   -0.6001   -0.8609 C   0  0  0  0  0  0  0  0  0  0  0  0
   -2.4348    0.1888    0.2833 C   0  0  0  0  0  0  0  0  0  0  0  0
    0.6421   -2.1723    0.5076 C   0  0  0  0  0  0  0  0  0  0  0  0
   -2.3293    1.5998    0.4341 C   0  0  0  0  0  0  0  0  0  0  0  0
    1.8826   -2.0441    1.1536 C   0  0  0  0  0  0  0  0  0  0  0  0
   -2.7724    1.9085    1.7220 C   0  0  0  0  0  0  0  0  0  0  0  0
   -1.1135   -1.8567   -2.5012 C   0  0  0  0  0  0  0  0  0  0  0  0
   -3.0708   -0.8824   -1.9490 C   0  0  0  0  0  0  0  0  0  0  0  0
   -2.9305   -0.3223    1.4607 C   0  0  0  0  0  0  0  0  0  0  0  0
   -0.2222   -3.2397    0.8070 C   0  0  0  0  0  0  0  0  0  0  0  0
   -1.8982    2.6472   -0.4040 C   0  0  0  0  0  0  0  0  0  0  0  0
    2.2262   -3.0081    2.0981 C   0  0  0  0  0  0  0  0  0  0  0  0
   -2.8058    3.2176    2.2156 C   0  0  0  0  0  0  0  0  0  0  0  0
    0.1465   -4.1888    1.7552 C   0  0  0  0  0  0  0  0  0  0  0  0
    1.3722   -4.0725    2.4014 C   0  0  0  0  0  0  0  0  0  0  0  0
   -1.9261    3.9615    0.0762 C   0  0  0  0  0  0  0  0  0  0  0  0
   -2.3733    4.2401    1.3663 C   0  0  0  0  0  0  0  0  0  0  0  0
    2.2298    2.7383    0.1188 H   0  0  0  0  0  0  0  0  0  0  0  0
    1.7458    2.0584   -1.4401 H   0  0  0  0  0  0  0  0  0  0  0  0
    4.9283    0.0102    0.4560 H   0  0  0  0  0  0  0  0  0  0  0  0
    4.3138    1.4025    1.3657 H   0  0  0  0  0  0  0  0  0  0  0  0
    3.8724    2.5733   -2.4736 H   0  0  0  0  0  0  0  0  0  0  0  0
    3.2172    4.0244   -1.7165 H   0  0  0  0  0  0  0  0  0  0  0  0
    6.3533    2.0185    0.1615 H   0  0  0  0  0  0  0  0  0  0  0  0
    5.7302    1.3861   -1.3613 H   0  0  0  0  0  0  0  0  0  0  0  0
    5.5298    3.7469   -1.2462 H   0  0  0  0  0  0  0  0  0  0  0  0
   -3.1594   -1.3339    1.7672 H   0  0  0  0  0  0  0  0  0  0  0  0
   -2.8179   -1.9727   -3.7345 H   0  0  0  0  0  0  0  0  0  0  0  0
   -3.4901    0.6367    3.2630 H   0  0  0  0  0  0  0  0  0  0  0  0
   -1.1850   -3.3564    0.3168 H   0  0  0  0  0  0  0  0  0  0  0  0
   -1.5451    2.4472   -1.4118 H   0  0  0  0  0  0  0  0  0  0  0  0
    3.1800   -2.9399    2.6179 H   0  0  0  0  0  0  0  0  0  0  0  0
   -3.1537    3.4354    3.2198 H   0  0  0  0  0  0  0  0  0  0  0  0
   -0.5182   -5.0148    1.9890 H   0  0  0  0  0  0  0  0  0  0  0  0
    1.6678   -4.8091    3.1429 H   0  0  0  0  0  0  0  0  0  0  0  0
   -1.5938    4.7732   -0.5655 H   0  0  0  0  0  0  0  0  0  0  0  0
   -2.3863    5.2682    1.7190 H   0  0  0  0  0  0  0  0  0  0  0  0
  1 22  2  0  0  0  0
  2 23  2  0  0  0  0
  3  9  1  0  0  0  0
  3 10  1  0  0  0  0
  3 13  1  0  0  0  0
  4 11  1  0  0  0  0
  4 12  1  0  0  0  0
  4 41  1  0  0  0  0
  5 13  1  0  0  0  0
  5 15  2  0  0  0  0
  6 13  2  0  0  0  0
  6 20  1  0  0  0  0
  7 22  1  0  0  0  0
  7 23  1  0  0  0  0
  7 43  1  0  0  0  0
  8 21  1  0  0  0  0
  8 24  1  0  0  0  0
  8 44  1  0  0  0  0
  9 11  1  0  0  0  0
  9 33  1  0  0  0  0
  9 34  1  0  0  0  0
 10 12  1  0  0  0  0
 10 35  1  0  0  0  0
 10 36  1  0  0  0  0
 11 37  1  0  0  0  0
 11 38  1  0  0  0  0
 12 39  1  0  0  0  0
 12 40  1  0  0  0  0
 14 15  1  0  0  0  0
 14 16  2  0  0  0  0
 14 22  1  0  0  0  0
 15 18  1  0  0  0  0
 16 17  1  0  0  0  0
 16 23  1  0  0  0  0
 17 19  1  0  0  0  0
 17 24  2  0  0  0  0
 18 20  1  0  0  0  0
 18 25  2  0  0  0  0
 19 21  1  0  0  0  0
 19 26  2  0  0  0  0
 20 27  2  0  0  0  0
 21 28  2  0  0  0  0
 24 42  1  0  0  0  0
 25 29  1  0  0  0  0
 25 45  1  0  0  0  0
 26 31  1  0  0  0  0
 26 46  1  0  0  0  0
 27 30  1  0  0  0  0
 27 47  1  0  0  0  0
 28 32  1  0  0  0  0
 28 48  1  0  0  0  0
 29 30  2  0  0  0  0
 29 49  1  0  0  0  0
 30 50  1  0  0  0  0
 31 32  2  0  0  0  0
 31 51  1  0  0  0  0
 32 52  1  0  0  0  0
M  END
> <PUBCHEM_COMPOUND_CID>
11851810

> <PUBCHEM_CONFORMER_RMSD>
0.8

> <PUBCHEM_CONFORMER_DIVERSEORDER>
1
7
2
5
6
8
3
4

> <PUBCHEM_MMFF94_PARTIAL_CHARGES>
42
1 -0.57
10 0.37
11 0.27
12 0.27
13 0.72
14 -0.01
15 0.34
16 0.06
17 -0.05
2 -0.57
20 0.31
21 -0.15
22 0.62
23 0.62
24 -0.3
25 -0.15
26 -0.15
27 -0.15
28 -0.15
29 -0.15
3 -0.84
30 -0.15
31 -0.15
32 -0.15
4 -0.9
41 0.36
42 0.15
43 0.37
44 0.27
45 0.15
46 0.15
47 0.15
48 0.15
49 0.15
5 -0.62
50 0.15
51 0.15
52 0.15
6 -0.62
7 -0.49
8 0.03
9 0.37

> <PUBCHEM_EFFECTIVE_ROTOR_COUNT>
4.4

> <PUBCHEM_PHARMACOPHORE_FEATURES>
15
1 1 acceptor
1 2 acceptor
1 4 cation
1 4 donor
1 5 acceptor
1 7 donor
1 8 cation
1 8 donor
4 3 5 6 13 cation
5 7 14 16 22 23 rings
5 8 17 19 21 24 rings
6 18 20 25 27 29 30 rings
6 19 21 26 28 31 32 rings
6 3 4 9 10 11 12 rings
6 5 6 13 15 18 20 rings

> <PUBCHEM_HEAVY_ATOM_COUNT>
32

> <PUBCHEM_ATOM_DEF_STEREO_COUNT>
0

> <PUBCHEM_ATOM_UDEF_STEREO_COUNT>
0

> <PUBCHEM_BOND_DEF_STEREO_COUNT>
0

> <PUBCHEM_BOND_UDEF_STEREO_COUNT>
0

> <PUBCHEM_ISOTOPIC_ATOM_COUNT>
0

> <PUBCHEM_COMPONENT_COUNT>
1

> <PUBCHEM_CACTVS_TAUTO_COUNT>
14

> <PUBCHEM_CONFORMER_ID>
00B4D82200000001

> <PUBCHEM_MMFF94_ENERGY>
87.9228

> <PUBCHEM_FEATURE_SELFOVERLAP>
76.248

> <PUBCHEM_SHAPE_FINGERPRINT>
10871710 139 18343304798992664429
1100329 8 17543373986321748139
11007060 377 15940901760343827652
11578080 2 16444769124825753373
11640471 11 18200020729742442899
11763715 3 17481937502451514551
12156800 1 13246418773241264843
12293681 160 18195509609695843901
12403259 327 17250077726504263217
12633257 1 17396150040766393225
12655364 131 17972848442675071098
12788726 201 18130772457176226413
13583140 156 17826804629204025705
13965767 371 16977562639482851603
14787075 74 18048310347661047759
14790565 3 18116444652846585376
14840074 17 18130798867220572073
15219462 58 17898315830572042315
15420108 30 17910943652818607400
17974551 9 17029688347062361193
19319366 153 18410581664584989448
20642791 239 18054205894907212317
21033650 10 18128839571912620972
21756936 100 18339938107541737496
21814621 53 17097209421519421653
21987440 362 17476946566540278052
23419403 2 11894702280381602262
392239 28 18046935910765156387
394222 165 18054243041446378864
4616759 239 17395554552975116648
469060 322 15866317440432788402
57527306 92 17914906554855033303
57527585 103 17399223639543256864
7097593 13 17682974197248781515

> <PUBCHEM_SHAPE_MULTIPOLES>
616.92
7.52
5.99
2.75
5.15
0.91
-1.03
8.04
0.46
2.54
2.32
-2.09
-2.1
-4.71

> <PUBCHEM_SHAPE_SELFOVERLAP>
1400.068

> <PUBCHEM_SHAPE_VOLUME>
321.1

> <PUBCHEM_COORDINATE_TYPE>
2
5
10

$$$$
