24905343
  -OEChem-10052115143D

 42 44  0     0  0  0  0  0  0999 V2000
    3.7039    0.2430    1.9949 O   0  0  0  0  0  0  0  0  0  0  0  0
    4.9277    0.4566   -0.4912 O   0  0  0  0  0  0  0  0  0  0  0  0
   -2.6216    0.9983    0.0713 N   0  0  0  0  0  0  0  0  0  0  0  0
   -1.3433    1.4159    0.0144 N   0  0  0  0  0  0  0  0  0  0  0  0
   -3.9022   -1.0557    0.0124 N   0  0  0  0  0  0  0  0  0  0  0  0
   -2.4618   -3.0103   -0.2235 N   0  0  0  0  0  0  0  0  0  0  0  0
   -0.0849   -2.8505   -0.3720 N   0  0  0  0  0  0  0  0  0  0  0  0
   -3.6818    1.9681    0.2119 C   0  0  0  0  0  0  0  0  0  0  0  0
   -2.7572   -0.3555   -0.0155 C   0  0  0  0  0  0  0  0  0  0  0  0
   -1.4747   -0.8606   -0.1381 C   0  0  0  0  0  0  0  0  0  0  0  0
   -0.6498    0.2793   -0.1132 C   0  0  0  0  0  0  0  0  0  0  0  0
    0.7876    0.3241   -0.2076 C   0  0  0  0  0  0  0  0  0  0  0  0
   -3.7336    2.9228   -0.9836 C   0  0  0  0  0  0  0  0  0  0  0  0
   -3.5635    2.7452    1.5253 C   0  0  0  0  0  0  0  0  0  0  0  0
   -1.3465   -2.2415   -0.2446 C   0  0  0  0  0  0  0  0  0  0  0  0
    1.5645    0.2613    0.9492 C   0  0  0  0  0  0  0  0  0  0  0  0
    1.4018    0.4311   -1.4553 C   0  0  0  0  0  0  0  0  0  0  0  0
    2.9557    0.3054    0.8582 C   0  0  0  0  0  0  0  0  0  0  0  0
    2.7930    0.4754   -1.5463 C   0  0  0  0  0  0  0  0  0  0  0  0
   -3.6534   -2.3785   -0.0982 C   0  0  0  0  0  0  0  0  0  0  0  0
    3.5699    0.4126   -0.3895 C   0  0  0  0  0  0  0  0  0  0  0  0
    4.0939   -1.0534    2.4437 C   0  0  0  0  0  0  0  0  0  0  0  0
    5.4761    0.5666   -1.8031 C   0  0  0  0  0  0  0  0  0  0  0  0
   -4.6289    1.4158    0.2370 H   0  0  0  0  0  0  0  0  0  0  0  0
   -2.8298    3.5386   -1.0501 H   0  0  0  0  0  0  0  0  0  0  0  0
   -4.5938    3.5959   -0.9036 H   0  0  0  0  0  0  0  0  0  0  0  0
   -3.8267    2.3664   -1.9228 H   0  0  0  0  0  0  0  0  0  0  0  0
   -2.6531    3.3543    1.5554 H   0  0  0  0  0  0  0  0  0  0  0  0
   -3.5347    2.0617    2.3812 H   0  0  0  0  0  0  0  0  0  0  0  0
   -4.4202    3.4147    1.6568 H   0  0  0  0  0  0  0  0  0  0  0  0
    1.0939    0.1782    1.9268 H   0  0  0  0  0  0  0  0  0  0  0  0
    0.8092    0.4806   -2.3660 H   0  0  0  0  0  0  0  0  0  0  0  0
    3.2007    0.5589   -2.5477 H   0  0  0  0  0  0  0  0  0  0  0  0
   -4.5254   -3.0235   -0.0848 H   0  0  0  0  0  0  0  0  0  0  0  0
    0.7636   -2.3040   -0.3892 H   0  0  0  0  0  0  0  0  0  0  0  0
   -0.0366   -3.8579   -0.4457 H   0  0  0  0  0  0  0  0  0  0  0  0
    4.6872   -0.9366    3.3547 H   0  0  0  0  0  0  0  0  0  0  0  0
    4.7075   -1.5544    1.6883 H   0  0  0  0  0  0  0  0  0  0  0  0
    3.2126   -1.6601    2.6750 H   0  0  0  0  0  0  0  0  0  0  0  0
    6.5657    0.5883   -1.6960 H   0  0  0  0  0  0  0  0  0  0  0  0
    5.1855    1.5065   -2.2847 H   0  0  0  0  0  0  0  0  0  0  0  0
    5.2346   -0.3084   -2.4161 H   0  0  0  0  0  0  0  0  0  0  0  0
  1 18  1  0  0  0  0
  1 22  1  0  0  0  0
  2 21  1  0  0  0  0
  2 23  1  0  0  0  0
  3  4  1  0  0  0  0
  3  8  1  0  0  0  0
  3  9  1  0  0  0  0
  4 11  2  0  0  0  0
  5  9  2  0  0  0  0
  5 20  1  0  0  0  0
  6 15  1  0  0  0  0
  6 20  2  0  0  0  0
  7 15  1  0  0  0  0
  7 35  1  0  0  0  0
  7 36  1  0  0  0  0
  8 13  1  0  0  0  0
  8 14  1  0  0  0  0
  8 24  1  0  0  0  0
  9 10  1  0  0  0  0
 10 11  1  0  0  0  0
 10 15  2  0  0  0  0
 11 12  1  0  0  0  0
 12 16  2  0  0  0  0
 12 17  1  0  0  0  0
 13 25  1  0  0  0  0
 13 26  1  0  0  0  0
 13 27  1  0  0  0  0
 14 28  1  0  0  0  0
 14 29  1  0  0  0  0
 14 30  1  0  0  0  0
 16 18  1  0  0  0  0
 16 31  1  0  0  0  0
 17 19  2  0  0  0  0
 17 32  1  0  0  0  0
 18 21  2  0  0  0  0
 19 21  1  0  0  0  0
 19 33  1  0  0  0  0
 20 34  1  0  0  0  0
 22 37  1  0  0  0  0
 22 38  1  0  0  0  0
 22 39  1  0  0  0  0
 23 40  1  0  0  0  0
 23 41  1  0  0  0  0
 23 42  1  0  0  0  0
M  END
> <PUBCHEM_COMPOUND_CID>
24905343

> <PUBCHEM_CONFORMER_RMSD>
0.6

> <PUBCHEM_CONFORMER_DIVERSEORDER>
1
17
15
21
14
7
19
8
18
11
12
20
10
9
13
5
6
16
3
2
4

> <PUBCHEM_MMFF94_PARTIAL_CHARGES>
26
1 -0.36
11 0.23
12 0.05
15 0.41
16 -0.15
17 -0.15
18 0.08
19 -0.15
2 -0.36
20 0.47
21 0.08
22 0.28
23 0.28
3 0.31
31 0.15
32 0.15
33 0.15
34 0.15
35 0.4
36 0.4
4 -0.71
5 -0.57
6 -0.62
7 -0.9
8 0.26
9 0.11

> <PUBCHEM_EFFECTIVE_ROTOR_COUNT>
4

> <PUBCHEM_PHARMACOPHORE_FEATURES>
11
1 1 acceptor
1 2 acceptor
1 4 acceptor
1 7 cation
1 7 donor
3 3 5 9 cation
3 5 6 20 cation
3 8 13 14 hydrophobe
5 3 4 9 10 11 rings
6 12 16 17 18 19 21 rings
6 5 6 9 10 15 20 rings

> <PUBCHEM_HEAVY_ATOM_COUNT>
23

> <PUBCHEM_ATOM_DEF_STEREO_COUNT>
0

> <PUBCHEM_ATOM_UDEF_STEREO_COUNT>
0

> <PUBCHEM_BOND_DEF_STEREO_COUNT>
0

> <PUBCHEM_BOND_UDEF_STEREO_COUNT>
0

> <PUBCHEM_ISOTOPIC_ATOM_COUNT>
0

> <PUBCHEM_COMPONENT_COUNT>
1

> <PUBCHEM_CACTVS_TAUTO_COUNT>
5

> <PUBCHEM_CONFORMER_ID>
017C067F00000001

> <PUBCHEM_MMFF94_ENERGY>
75.9646

> <PUBCHEM_FEATURE_SELFOVERLAP>
56.104

> <PUBCHEM_SHAPE_FINGERPRINT>
10165383 225 18197797522059336145
10319926 262 18272072908691462506
11545043 162 17988648501801043038
11725454 13 16914498152916909928
12107183 9 17899685770320118912
12236239 1 17822010942852756582
12390115 104 18129116545452096313
12403259 415 17632300090115901968
12500047 106 18342177747933762220
12553582 1 18193836174547584203
12788726 201 18262520419772233723
13140716 1 18124321768701308379
13583140 156 17845915395467388730
14178342 30 18411695461400396979
14294032 229 18337677409036603621
15042514 8 18195256735450351623
15842332 3 17967533501685996908
16752209 62 18411134774863293495
16988056 13 15882911845350441285
17818456 19 18118671124637071160
19049666 15 17774734073046220159
20510252 161 18272936072105152441
20645477 70 15574980789534871850
21033648 29 17203604887460426832
21065201 7 18343867731813273566
212916 134 18199176313486745497
23175994 123 16845025583972965648
23493267 7 18273220776733713160
23557571 272 18059585692994804501
23559900 14 18129951074935379238
23598291 2 17749380451996757106
2748010 2 18194980547720190151
469060 322 18339099154716660249
495365 180 17202754896141889774
5265222 85 18057341659526301278
573450 72 18334569144612485106
57527295 17 16916226537993331261
59755656 215 18272940410096266903
59755656 520 17773897311007826513
602551 16 18342459287561971782
6049 1 17774724280705525344
7064713 232 18265876009101108362
7615 1 18040994085229877036
77492 1 17822290214558684540
81228 2 18340214110798645779
9849439 229 17910677562299590585
9862522 239 18042113263945606749

> <PUBCHEM_SHAPE_MULTIPOLES>
436.69
9.85
2.95
1.63
7.32
0.96
-0.66
-3.1
0.05
-5.36
0.1
2.53
-0.34
-1.4

> <PUBCHEM_SHAPE_SELFOVERLAP>
947.821

> <PUBCHEM_SHAPE_VOLUME>
239.4

> <PUBCHEM_COORDINATE_TYPE>
2
5
10

$$$$
