10246246
  -OEChem-10062122033D

 46 48  0     0  0  0  0  0  0999 V2000
   -1.9658    2.2469   -0.3038 S   0  0  0  0  0  0  0  0  0  0  0  0
   -5.6551    1.0433    0.0251 O   0  0  0  0  0  0  0  0  0  0  0  0
    2.6794    0.2889   -0.0193 N   0  0  0  0  0  0  0  0  0  0  0  0
    6.8944    0.5462    0.2335 N   0  0  0  0  0  0  0  0  0  0  0  0
    0.4884    1.2263   -0.1573 N   0  0  0  0  0  0  0  0  0  0  0  0
   -3.7312   -1.1213    0.4448 N   0  0  0  0  0  0  0  0  0  0  0  0
   -4.7584    3.0836   -0.4032 N   0  0  0  0  0  0  0  0  0  0  0  0
    5.5266    0.7263   -0.2471 C   0  0  0  0  0  0  0  0  0  0  0  0
    4.6898    1.4483    0.8112 C   0  0  0  0  0  0  0  0  0  0  0  0
    4.8985   -0.6325   -0.5628 C   0  0  0  0  0  0  0  0  0  0  0  0
    3.2366    1.5949    0.3603 C   0  0  0  0  0  0  0  0  0  0  0  0
    3.4424   -0.4836   -1.0059 C   0  0  0  0  0  0  0  0  0  0  0  0
    1.2893    0.1369    0.0482 C   0  0  0  0  0  0  0  0  0  0  0  0
   -0.5898   -1.3344    0.4055 C   0  0  0  0  0  0  0  0  0  0  0  0
    0.7855   -1.1394    0.3277 C   0  0  0  0  0  0  0  0  0  0  0  0
   -1.4446   -0.2326    0.1988 C   0  0  0  0  0  0  0  0  0  0  0  0
   -1.0855   -2.7146    0.7051 C   0  0  0  0  0  0  0  0  0  0  0  0
   -0.8376    0.9893   -0.0722 C   0  0  0  0  0  0  0  0  0  0  0  0
   -2.8703   -0.1002    0.2095 C   0  0  0  0  0  0  0  0  0  0  0  0
   -1.3141   -3.5342   -0.5702 C   0  0  0  0  0  0  0  0  0  0  0  0
   -3.2839    1.1884   -0.0478 C   0  0  0  0  0  0  0  0  0  0  0  0
   -1.7860   -4.9451   -0.2570 C   0  0  0  0  0  0  0  0  0  0  0  0
   -4.6085    1.7188   -0.1231 C   0  0  0  0  0  0  0  0  0  0  0  0
    5.5586    1.3346   -1.1591 H   0  0  0  0  0  0  0  0  0  0  0  0
    5.1079    2.4413    1.0166 H   0  0  0  0  0  0  0  0  0  0  0  0
    4.7149    0.8890    1.7564 H   0  0  0  0  0  0  0  0  0  0  0  0
    4.9351   -1.2793    0.3244 H   0  0  0  0  0  0  0  0  0  0  0  0
    5.4652   -1.1414   -1.3522 H   0  0  0  0  0  0  0  0  0  0  0  0
    2.6676    2.0338    1.1896 H   0  0  0  0  0  0  0  0  0  0  0  0
    3.1716    2.2851   -0.4901 H   0  0  0  0  0  0  0  0  0  0  0  0
    3.3956    0.0260   -1.9765 H   0  0  0  0  0  0  0  0  0  0  0  0
    3.0249   -1.4863   -1.1513 H   0  0  0  0  0  0  0  0  0  0  0  0
    7.4331    0.0216   -0.4548 H   0  0  0  0  0  0  0  0  0  0  0  0
    6.8933   -0.0206    1.0809 H   0  0  0  0  0  0  0  0  0  0  0  0
    1.4633   -1.9728    0.4968 H   0  0  0  0  0  0  0  0  0  0  0  0
   -0.3230   -3.2327    1.3054 H   0  0  0  0  0  0  0  0  0  0  0  0
   -1.9511   -2.7089    1.3704 H   0  0  0  0  0  0  0  0  0  0  0  0
   -2.0563   -3.0420   -1.2098 H   0  0  0  0  0  0  0  0  0  0  0  0
   -0.3862   -3.5903   -1.1527 H   0  0  0  0  0  0  0  0  0  0  0  0
   -1.0468   -5.4809    0.3468 H   0  0  0  0  0  0  0  0  0  0  0  0
   -2.7324   -4.9277    0.2928 H   0  0  0  0  0  0  0  0  0  0  0  0
   -1.9409   -5.5077   -1.1829 H   0  0  0  0  0  0  0  0  0  0  0  0
   -3.4791   -2.0986    0.4881 H   0  0  0  0  0  0  0  0  0  0  0  0
   -4.7356   -0.9707    0.4831 H   0  0  0  0  0  0  0  0  0  0  0  0
   -3.9617    3.6963   -0.5451 H   0  0  0  0  0  0  0  0  0  0  0  0
   -5.6798    3.5023   -0.4734 H   0  0  0  0  0  0  0  0  0  0  0  0
  1 18  1  0  0  0  0
  1 21  1  0  0  0  0
  2 23  2  0  0  0  0
  3 11  1  0  0  0  0
  3 12  1  0  0  0  0
  3 13  1  0  0  0  0
  4  8  1  0  0  0  0
  4 33  1  0  0  0  0
  4 34  1  0  0  0  0
  5 13  2  0  0  0  0
  5 18  1  0  0  0  0
  6 19  1  0  0  0  0
  6 43  1  0  0  0  0
  6 44  1  0  0  0  0
  7 23  1  0  0  0  0
  7 45  1  0  0  0  0
  7 46  1  0  0  0  0
  8  9  1  0  0  0  0
  8 10  1  0  0  0  0
  8 24  1  0  0  0  0
  9 11  1  0  0  0  0
  9 25  1  0  0  0  0
  9 26  1  0  0  0  0
 10 12  1  0  0  0  0
 10 27  1  0  0  0  0
 10 28  1  0  0  0  0
 11 29  1  0  0  0  0
 11 30  1  0  0  0  0
 12 31  1  0  0  0  0
 12 32  1  0  0  0  0
 13 15  1  0  0  0  0
 14 15  2  0  0  0  0
 14 16  1  0  0  0  0
 14 17  1  0  0  0  0
 15 35  1  0  0  0  0
 16 18  2  0  0  0  0
 16 19  1  0  0  0  0
 17 20  1  0  0  0  0
 17 36  1  0  0  0  0
 17 37  1  0  0  0  0
 19 21  2  0  0  0  0
 20 22  1  0  0  0  0
 20 38  1  0  0  0  0
 20 39  1  0  0  0  0
 21 23  1  0  0  0  0
 22 40  1  0  0  0  0
 22 41  1  0  0  0  0
 22 42  1  0  0  0  0
M  END
> <PUBCHEM_COMPOUND_CID>
10246246

> <PUBCHEM_CONFORMER_RMSD>
0.8

> <PUBCHEM_CONFORMER_DIVERSEORDER>
1
20
26
27
28
3
17
15
7
19
10
8
13
24
4
6
29
12
25
21
14
22
23
5
11
18
16
2
9

> <PUBCHEM_MMFF94_PARTIAL_CHARGES>
25
1 -0.08
11 0.37
12 0.37
13 0.41
14 -0.14
15 -0.15
17 0.14
18 0.3
19 0.08
2 -0.57
21 -0.05
23 0.71
3 -0.84
33 0.36
34 0.36
35 0.15
4 -0.99
43 0.4
44 0.4
45 0.37
46 0.37
5 -0.57
6 -0.88
7 -0.8
8 0.27

> <PUBCHEM_EFFECTIVE_ROTOR_COUNT>
5.2

> <PUBCHEM_PHARMACOPHORE_FEATURES>
11
1 2 acceptor
1 22 hydrophobe
1 4 cation
1 4 donor
1 6 cation
1 6 donor
1 7 donor
3 3 5 13 cation
5 1 16 18 19 21 rings
6 3 8 9 10 11 12 rings
6 5 13 14 15 16 18 rings

> <PUBCHEM_HEAVY_ATOM_COUNT>
23

> <PUBCHEM_ATOM_DEF_STEREO_COUNT>
0

> <PUBCHEM_ATOM_UDEF_STEREO_COUNT>
0

> <PUBCHEM_BOND_DEF_STEREO_COUNT>
0

> <PUBCHEM_BOND_UDEF_STEREO_COUNT>
0

> <PUBCHEM_ISOTOPIC_ATOM_COUNT>
0

> <PUBCHEM_COMPONENT_COUNT>
1

> <PUBCHEM_CACTVS_TAUTO_COUNT>
5

> <PUBCHEM_CONFORMER_ID>
009C586600000001

> <PUBCHEM_MMFF94_ENERGY>
53.2283

> <PUBCHEM_FEATURE_SELFOVERLAP>
55.896

> <PUBCHEM_SHAPE_FINGERPRINT>
10319926 262 18268694152525108928
10411042 1 17761212515562059547
11796584 16 18412546514530930314
12236239 1 17313105267988189008
12293681 160 17917427571408191497
12390115 104 18341345396194161745
12403259 415 18343301496178540944
12788726 201 18191012615818605811
12969540 114 18335687313699794029
13140716 1 17830742311060984811
13540713 4 17681844999741303269
13544592 145 18342187622401244422
13583140 156 17702945988955156914
138480 1 17402048894869427847
14508225 48 17980750864324269759
14790565 3 18267024964202510777
15042514 8 18192999450889433619
15131766 46 15215013984093951838
15196674 1 18408887321630033488
15927050 60 18411134718997836590
16087824 20 18409445900757518791
17539 30 18125715931775387975
17980427 23 17458357342301935677
19141452 34 18409167740329639068
200 152 16917066633586145456
20645477 56 18409450288832136048
20645477 70 17274550824145963342
21033648 29 18341602707421407153
21065198 57 18339643447089495448
21236236 1 18412262874188887539
21279426 13 18267589018094123324
21307412 95 17986416429105127886
21478907 32 17906453577885431603
22182313 1 18266204788821587027
22224240 67 18341621404383840937
23227448 37 18339924934455210044
23402539 116 18412539929190602780
23557571 272 18200037368846505118
23558518 356 17972599072019766800
23559900 14 18342740720005669384
23598288 3 17970926658709298159
283562 15 18199752449306770449
293599 30 18409168775047829889
335352 9 18409730647560325348
34934 24 18407758136506011986
350125 39 18045499716693081536
3545911 37 18410857637766803832
38695281 34 18339079277180758799
4073 2 18338796823505093874
4214541 1 18410576219125470720
495365 180 17632566159493204584
5104073 3 18261678069052304136
5283173 99 18341891934987354314
532947 4 18197787591483044222
5385378 56 18193565467454376433
53917941 68 18337938065493797695
559249 180 18334573538807439482
59755656 215 18340492171318638812
59755656 520 18408878529668649974
6669772 16 18271810055833929214
7164475 11 17977105987124448246
7364860 26 17906170655630952975
7399639 24 17265523021537789240
77188 2 17473544033075763591
9709674 26 18271533073935880486
9981440 41 18335987459173361217

> <PUBCHEM_SHAPE_MULTIPOLES>
446.4
12.01
4.05
0.78
12.83
5.74
0.02
-7.93
0.31
-5.71
0.45
0.29
0.1
0.78

> <PUBCHEM_SHAPE_SELFOVERLAP>
938.458

> <PUBCHEM_SHAPE_VOLUME>
254.3

> <PUBCHEM_COORDINATE_TYPE>
2
5
10

$$$$
