44317844
  -OEChem-10062122043D

 36 39  0     0  0  0  0  0  0999 V2000
    1.3309   -4.6225   -0.0115 Cl  0  0  0  0  0  0  0  0  0  0  0  0
    1.2789    1.2189    0.0147 N   0  0  0  0  0  0  0  0  0  0  0  0
   -1.3707   -0.2657    0.0283 N   0  0  0  0  0  0  0  0  0  0  0  0
    4.6225    2.7761   -0.0066 N   0  0  0  0  0  0  0  0  0  0  0  0
    1.0832   -0.1425    0.0103 C   0  0  0  0  0  0  0  0  0  0  0  0
    2.3435   -0.7412   -0.0018 C   0  0  0  0  0  0  0  0  0  0  0  0
    3.3154    0.3090   -0.0045 C   0  0  0  0  0  0  0  0  0  0  0  0
   -0.1056   -0.8810    0.0161 C   0  0  0  0  0  0  0  0  0  0  0  0
    2.6196    1.5174    0.0054 C   0  0  0  0  0  0  0  0  0  0  0  0
    2.4211   -2.1499   -0.0089 C   0  0  0  0  0  0  0  0  0  0  0  0
   -0.0027   -2.2747    0.0092 C   0  0  0  0  0  0  0  0  0  0  0  0
   -2.5976   -1.0043    0.0344 C   0  0  0  0  0  0  0  0  0  0  0  0
    1.2409   -2.9018   -0.0031 C   0  0  0  0  0  0  0  0  0  0  0  0
    4.7185    0.3461   -0.0148 C   0  0  0  0  0  0  0  0  0  0  0  0
    3.2699    2.7446    0.0046 C   0  0  0  0  0  0  0  0  0  0  0  0
   -3.7987   -0.0967    0.0119 C   0  0  0  0  0  0  0  0  0  0  0  0
    5.3009    1.6065   -0.0154 C   0  0  0  0  0  0  0  0  0  0  0  0
   -4.3622    0.3450    1.2090 C   0  0  0  0  0  0  0  0  0  0  0  0
   -4.3480    0.3025   -1.2065 C   0  0  0  0  0  0  0  0  0  0  0  0
   -5.4749    1.1859    1.1877 C   0  0  0  0  0  0  0  0  0  0  0  0
   -5.4606    1.1435   -1.2278 C   0  0  0  0  0  0  0  0  0  0  0  0
   -6.0241    1.5850   -0.0307 C   0  0  0  0  0  0  0  0  0  0  0  0
    0.5383    1.9065    0.0232 H   0  0  0  0  0  0  0  0  0  0  0  0
    3.3914   -2.6397   -0.0186 H   0  0  0  0  0  0  0  0  0  0  0  0
   -1.3962    0.7479    0.0349 H   0  0  0  0  0  0  0  0  0  0  0  0
   -0.8902   -2.9030    0.0147 H   0  0  0  0  0  0  0  0  0  0  0  0
   -2.6602   -1.6438    0.9246 H   0  0  0  0  0  0  0  0  0  0  0  0
   -2.6545   -1.6710   -0.8362 H   0  0  0  0  0  0  0  0  0  0  0  0
    5.3220   -0.5542   -0.0226 H   0  0  0  0  0  0  0  0  0  0  0  0
    2.7519    3.6947    0.0119 H   0  0  0  0  0  0  0  0  0  0  0  0
    6.3820    1.7082   -0.0236 H   0  0  0  0  0  0  0  0  0  0  0  0
   -3.9422    0.0427    2.1647 H   0  0  0  0  0  0  0  0  0  0  0  0
   -3.9170   -0.0330   -2.1461 H   0  0  0  0  0  0  0  0  0  0  0  0
   -5.9134    1.5303    2.1198 H   0  0  0  0  0  0  0  0  0  0  0  0
   -5.8880    1.4549   -2.1764 H   0  0  0  0  0  0  0  0  0  0  0  0
   -6.8903    2.2399   -0.0473 H   0  0  0  0  0  0  0  0  0  0  0  0
  1 13  1  0  0  0  0
  2  5  1  0  0  0  0
  2  9  1  0  0  0  0
  2 23  1  0  0  0  0
  3  8  1  0  0  0  0
  3 12  1  0  0  0  0
  3 25  1  0  0  0  0
  4 15  2  0  0  0  0
  4 17  1  0  0  0  0
  5  6  2  0  0  0  0
  5  8  1  0  0  0  0
  6  7  1  0  0  0  0
  6 10  1  0  0  0  0
  7  9  2  0  0  0  0
  7 14  1  0  0  0  0
  8 11  2  0  0  0  0
  9 15  1  0  0  0  0
 10 13  2  0  0  0  0
 10 24  1  0  0  0  0
 11 13  1  0  0  0  0
 11 26  1  0  0  0  0
 12 16  1  0  0  0  0
 12 27  1  0  0  0  0
 12 28  1  0  0  0  0
 14 17  2  0  0  0  0
 14 29  1  0  0  0  0
 15 30  1  0  0  0  0
 16 18  2  0  0  0  0
 16 19  1  0  0  0  0
 17 31  1  0  0  0  0
 18 20  1  0  0  0  0
 18 32  1  0  0  0  0
 19 21  2  0  0  0  0
 19 33  1  0  0  0  0
 20 22  2  0  0  0  0
 20 34  1  0  0  0  0
 21 22  1  0  0  0  0
 21 35  1  0  0  0  0
 22 36  1  0  0  0  0
M  END
> <PUBCHEM_COMPOUND_CID>
44317844

> <PUBCHEM_CONFORMER_RMSD>
0.6

> <PUBCHEM_CONFORMER_DIVERSEORDER>
1
13
14
12
11
15
8
6
7
4
5
2
10
3
9

> <PUBCHEM_MMFF94_PARTIAL_CHARGES>
32
1 -0.18
10 -0.15
11 -0.15
12 0.51
13 0.18
14 -0.15
15 0.16
16 -0.14
17 0.16
18 -0.15
19 -0.15
2 0.03
20 -0.15
21 -0.15
22 -0.15
23 0.27
24 0.15
25 0.4
26 0.15
29 0.15
3 -0.87
30 0.15
31 0.15
32 0.15
33 0.15
34 0.15
35 0.15
36 0.15
4 -0.62
5 -0.15
8 0.1
9 -0.15

> <PUBCHEM_EFFECTIVE_ROTOR_COUNT>
3

> <PUBCHEM_PHARMACOPHORE_FEATURES>
9
1 2 cation
1 2 donor
1 3 cation
1 3 donor
1 4 acceptor
5 2 5 6 7 9 rings
6 16 18 19 20 21 22 rings
6 4 7 9 14 15 17 rings
6 5 6 8 10 11 13 rings

> <PUBCHEM_HEAVY_ATOM_COUNT>
22

> <PUBCHEM_ATOM_DEF_STEREO_COUNT>
0

> <PUBCHEM_ATOM_UDEF_STEREO_COUNT>
0

> <PUBCHEM_BOND_DEF_STEREO_COUNT>
0

> <PUBCHEM_BOND_UDEF_STEREO_COUNT>
0

> <PUBCHEM_ISOTOPIC_ATOM_COUNT>
0

> <PUBCHEM_COMPONENT_COUNT>
1

> <PUBCHEM_CACTVS_TAUTO_COUNT>
2

> <PUBCHEM_CONFORMER_ID>
02A43C9400000001

> <PUBCHEM_MMFF94_ENERGY>
57.4707

> <PUBCHEM_FEATURE_SELFOVERLAP>
45.857

> <PUBCHEM_SHAPE_FINGERPRINT>
10411042 1 17690568485529528246
10595046 47 18342732997838925383
10693767 8 17987800683926850454
11089746 13 17704067412936703016
11796584 16 13038913209207563685
12107183 9 17478617811270657257
12236239 1 17847059961317800333
12293681 160 17846223297224975944
12390115 104 18195261115799281774
12730499 353 18335990800310088603
12769317 202 18413100662983201201
12788726 201 17059505019781037721
13103583 49 12180115446250561199
13583140 156 16009571594902620093
13631057 29 18127684041068627415
13878862 14 18192128431653576597
13955234 65 18264210218646430603
14790565 3 18337676441835330060
14848178 96 18341609360425624337
15081414 286 18336272262133112644
15188451 53 14707496949233152089
15475509 35 16371282208700914210
15664445 248 17842009788200318030
1601671 61 18261111893890003996
18335252 98 18408886257665327043
19784866 34 18412544340248447155
20157964 124 18410571744022573973
20511986 3 17774427309808817225
20612939 158 18341611460859531383
20645477 70 18337105640908499439
20739085 24 18259991457165685668
21033648 144 18260820523382269343
21033648 29 18268705194037278776
21307412 95 17986140524996262918
22122407 14 18052551980638611961
23402655 69 18201718478700915613
23559900 14 18337952268861663243
23845131 108 18333731347002416891
23929065 36 17409623873034065866
335352 9 18411138048545926870
38695281 34 18413669123453821630
474 4 18411981360320029619
5104073 3 18260264182940587114
5385378 56 18410859815251523483
57724786 102 18198349459895399905
59755656 215 18336831892440304324
633830 44 18271807947046665046
77188 2 17762055437401207502
8272917 22 18340770347059209790
9841814 1 17971751069134510106

> <PUBCHEM_SHAPE_MULTIPOLES>
439.68
13.2
3.83
0.88
14.62
3.98
-0.01
-11.62
-0.11
-5.09
-0.01
1.35
-0.17
0

> <PUBCHEM_SHAPE_SELFOVERLAP>
974.993

> <PUBCHEM_SHAPE_VOLUME>
236.5

> <PUBCHEM_COORDINATE_TYPE>
2
5
10

$$$$
