10246831
  -OEChem-10062122043D

 43 46  0     0  0  0  0  0  0999 V2000
   -2.2069    3.7496    0.7042 O   0  0  0  0  0  0  0  0  0  0  0  0
    2.2038    3.7517   -0.7142 O   0  0  0  0  0  0  0  0  0  0  0  0
    0.0011    4.1800    0.0018 N   0  0  0  0  0  0  0  0  0  0  0  0
   -1.3530   -1.5661    0.4356 N   0  0  0  0  0  0  0  0  0  0  0  0
    1.3525   -1.5667   -0.4336 N   0  0  0  0  0  0  0  0  0  0  0  0
   -0.6601    2.0242    0.2118 C   0  0  0  0  0  0  0  0  0  0  0  0
    0.6604    2.0239   -0.2127 C   0  0  0  0  0  0  0  0  0  0  0  0
   -0.6711   -0.3454    0.2164 C   0  0  0  0  0  0  0  0  0  0  0  0
    0.6711   -0.3457   -0.2149 C   0  0  0  0  0  0  0  0  0  0  0  0
   -1.3554    0.8536    0.4355 C   0  0  0  0  0  0  0  0  0  0  0  0
    1.3553    0.8530   -0.4358 C   0  0  0  0  0  0  0  0  0  0  0  0
   -1.0924    3.4148    0.3484 C   0  0  0  0  0  0  0  0  0  0  0  0
    1.0915    3.4141   -0.3536 C   0  0  0  0  0  0  0  0  0  0  0  0
    0.0041    5.6294    0.0101 C   0  0  0  0  0  0  0  0  0  0  0  0
   -2.6786   -1.8656    0.1748 C   0  0  0  0  0  0  0  0  0  0  0  0
    2.6783   -1.8665   -0.1736 C   0  0  0  0  0  0  0  0  0  0  0  0
   -3.3325   -2.9099    0.8571 C   0  0  0  0  0  0  0  0  0  0  0  0
    3.3312   -2.9115   -0.8555 C   0  0  0  0  0  0  0  0  0  0  0  0
   -3.4121   -1.1347   -0.7796 C   0  0  0  0  0  0  0  0  0  0  0  0
    3.4128   -1.1346    0.7793 C   0  0  0  0  0  0  0  0  0  0  0  0
   -4.6689   -3.2116    0.5950 C   0  0  0  0  0  0  0  0  0  0  0  0
    4.6678   -3.2132   -0.5944 C   0  0  0  0  0  0  0  0  0  0  0  0
   -4.7485   -1.4362   -1.0416 C   0  0  0  0  0  0  0  0  0  0  0  0
    4.7495   -1.4363    1.0404 C   0  0  0  0  0  0  0  0  0  0  0  0
   -5.3768   -2.4747   -0.3543 C   0  0  0  0  0  0  0  0  0  0  0  0
    5.3769   -2.4757    0.3535 C   0  0  0  0  0  0  0  0  0  0  0  0
   -2.3768    0.8894    0.7976 H   0  0  0  0  0  0  0  0  0  0  0  0
    2.3764    0.8884   -0.7988 H   0  0  0  0  0  0  0  0  0  0  0  0
   -0.7775   -2.3264    0.7800 H   0  0  0  0  0  0  0  0  0  0  0  0
    0.7766   -2.3272   -0.7771 H   0  0  0  0  0  0  0  0  0  0  0  0
    0.9442    6.0218   -0.3848 H   0  0  0  0  0  0  0  0  0  0  0  0
   -0.1396    5.9692    1.0399 H   0  0  0  0  0  0  0  0  0  0  0  0
   -0.8380    5.9874   -0.5893 H   0  0  0  0  0  0  0  0  0  0  0  0
   -2.7950   -3.4940    1.6011 H   0  0  0  0  0  0  0  0  0  0  0  0
    2.7929   -3.4961   -1.5985 H   0  0  0  0  0  0  0  0  0  0  0  0
   -2.9530   -0.3433   -1.3664 H   0  0  0  0  0  0  0  0  0  0  0  0
    2.9545   -0.3425    1.3657 H   0  0  0  0  0  0  0  0  0  0  0  0
   -5.1582   -4.0203    1.1299 H   0  0  0  0  0  0  0  0  0  0  0  0
    5.1563   -4.0227   -1.1289 H   0  0  0  0  0  0  0  0  0  0  0  0
   -5.2978   -0.8685   -1.7871 H   0  0  0  0  0  0  0  0  0  0  0  0
    5.2996   -0.8681    1.7848 H   0  0  0  0  0  0  0  0  0  0  0  0
   -6.4168   -2.7109   -0.5599 H   0  0  0  0  0  0  0  0  0  0  0  0
    6.4170   -2.7119    0.5583 H   0  0  0  0  0  0  0  0  0  0  0  0
  1 12  2  0  0  0  0
  2 13  2  0  0  0  0
  3 12  1  0  0  0  0
  3 13  1  0  0  0  0
  3 14  1  0  0  0  0
  4  8  1  0  0  0  0
  4 15  1  0  0  0  0
  4 29  1  0  0  0  0
  5  9  1  0  0  0  0
  5 16  1  0  0  0  0
  5 30  1  0  0  0  0
  6  7  1  0  0  0  0
  6 10  2  0  0  0  0
  6 12  1  0  0  0  0
  7 11  2  0  0  0  0
  7 13  1  0  0  0  0
  8  9  2  0  0  0  0
  8 10  1  0  0  0  0
  9 11  1  0  0  0  0
 10 27  1  0  0  0  0
 11 28  1  0  0  0  0
 14 31  1  0  0  0  0
 14 32  1  0  0  0  0
 14 33  1  0  0  0  0
 15 17  2  0  0  0  0
 15 19  1  0  0  0  0
 16 18  2  0  0  0  0
 16 20  1  0  0  0  0
 17 21  1  0  0  0  0
 17 34  1  0  0  0  0
 18 22  1  0  0  0  0
 18 35  1  0  0  0  0
 19 23  2  0  0  0  0
 19 36  1  0  0  0  0
 20 24  2  0  0  0  0
 20 37  1  0  0  0  0
 21 25  2  0  0  0  0
 21 38  1  0  0  0  0
 22 26  2  0  0  0  0
 22 39  1  0  0  0  0
 23 25  1  0  0  0  0
 23 40  1  0  0  0  0
 24 26  1  0  0  0  0
 24 41  1  0  0  0  0
 25 42  1  0  0  0  0
 26 43  1  0  0  0  0
M  END
> <PUBCHEM_COMPOUND_CID>
10246831

> <PUBCHEM_CONFORMER_RMSD>
0.8

> <PUBCHEM_CONFORMER_DIVERSEORDER>
1
8
4
5
2
9
3
7
6
10

> <PUBCHEM_MMFF94_PARTIAL_CHARGES>
40
1 -0.57
10 -0.15
11 -0.15
12 0.54
13 0.54
14 0.3
15 0.1
16 0.1
17 -0.15
18 -0.15
19 -0.15
2 -0.57
20 -0.15
21 -0.15
22 -0.15
23 -0.15
24 -0.15
25 -0.15
26 -0.15
27 0.15
28 0.15
29 0.4
3 -0.42
30 0.4
34 0.15
35 0.15
36 0.15
37 0.15
38 0.15
39 0.15
4 -0.6
40 0.15
41 0.15
42 0.15
43 0.15
5 -0.6
6 0.09
7 0.09
8 0.1
9 0.1

> <PUBCHEM_EFFECTIVE_ROTOR_COUNT>
4.2

> <PUBCHEM_PHARMACOPHORE_FEATURES>
10
1 1 acceptor
1 2 acceptor
1 4 cation
1 4 donor
1 5 cation
1 5 donor
5 3 6 7 12 13 rings
6 15 17 19 21 23 25 rings
6 16 18 20 22 24 26 rings
6 6 7 8 9 10 11 rings

> <PUBCHEM_HEAVY_ATOM_COUNT>
26

> <PUBCHEM_ATOM_DEF_STEREO_COUNT>
0

> <PUBCHEM_ATOM_UDEF_STEREO_COUNT>
0

> <PUBCHEM_BOND_DEF_STEREO_COUNT>
0

> <PUBCHEM_BOND_UDEF_STEREO_COUNT>
0

> <PUBCHEM_ISOTOPIC_ATOM_COUNT>
0

> <PUBCHEM_COMPONENT_COUNT>
1

> <PUBCHEM_CACTVS_TAUTO_COUNT>
7

> <PUBCHEM_CONFORMER_ID>
009C5AAF00000001

> <PUBCHEM_MMFF94_ENERGY>
103.9812

> <PUBCHEM_FEATURE_SELFOVERLAP>
50.844

> <PUBCHEM_SHAPE_FINGERPRINT>
10074138 170 17904176166980755394
10411042 1 18410576184180734979
10940486 97 17614303069677772270
1100329 8 18337674110111057001
11014199 57 18410579452966630842
11056379 131 18122917434375389630
11265709 11 18410294700687683003
11488393 25 18117563052864836361
12107183 9 18341628005833490803
12516196 113 18410007758355157262
12553582 1 18266481886820538595
12730499 353 17688316003269061131
12788726 201 18117833309440347635
13004483 165 18340473500521413430
13140716 1 18411141307397488736
13690498 29 17985562061210063758
13757389 114 17762358924290396060
13782708 43 17823136895149650547
138480 1 14879471072331345187
13955234 65 17977672231634530747
140371 6 18410579487036959394
14068700 686 18270957935182336070
14508225 48 18411411778784122655
14844126 61 18046633304327783594
14866123 147 17978791212301774947
15042514 8 18267028245525545137
15230672 131 17109879493090940924
15927050 60 17114101630541125316
16087824 20 18122626051473798109
17539 30 18196364827905190415
1813 80 18202012035431848783
19304671 126 17541045075478154087
1979834 28 18126552656018406706
20101258 96 18338249162675410458
20642791 13 18341044099726874566
21049683 271 18043540618636901230
21120745 212 18339658741288805644
21133410 32 15939260068623113882
21304303 172 18341049610264679007
21478907 32 18411138004778705915
21796203 349 17976011887282871730
23536364 44 18191568780155651135
23559900 14 18265041608841195427
255183 313 17839195017253040073
3091708 16 9065153958606121153
3103668 31 18118398450570817117
3178227 256 17760099805293385864
3298306 158 17759245484784736990
3421961 26 18339359798252918459
38695281 34 17546161261003778648
4015057 19 18265603476647812231
5385378 56 17978236281236327033
57527452 28 16127219270866892453
5969126 39 18269825450700024558
59755656 520 17616813237058318270
6004065 56 18266728259356866071
613672 6 18410845568824799719
6442390 28 17402616247153544248
6443956 14 18335979873728651650
6669772 16 17693108765685163820
6673363 416 18340225037991954662
6700243 42 17699040351960516910
7399639 24 18200855328631823338
77188 2 18410856589709861469
7808743 9 17976543815578101906
9658208 31 17693942891225527982
9777508 108 17980193085416143834
9981440 41 17183629788845816416

> <PUBCHEM_SHAPE_MULTIPOLES>
508.39
9.66
7.29
0.91
0
11.28
0
-16.61
0
-0.01
-0.01
0
-0.33
-0.09

> <PUBCHEM_SHAPE_SELFOVERLAP>
1131.757

> <PUBCHEM_SHAPE_VOLUME>
271.4

> <PUBCHEM_COORDINATE_TYPE>
2
5
10

$$$$
