49830584
  -OEChem-10052120443D

 33 34  0     0  0  0  0  0  0999 V2000
   -3.0085   -0.4173    0.6437 O   0  0  0  0  0  0  0  0  0  0  0  0
    1.1847    1.7671   -0.2752 N   0  0  0  0  0  0  0  0  0  0  0  0
    1.7499   -0.5374   -0.3622 N   0  0  0  0  0  0  0  0  0  0  0  0
   -3.0559   -3.9556   -0.3814 N   0  0  0  0  0  0  0  0  0  0  0  0
    3.9705   -1.2471    0.2484 N   0  0  0  0  0  0  0  0  0  0  0  0
    2.3521   -2.8039   -0.4323 N   0  0  0  0  0  0  0  0  0  0  0  0
   -0.2202    1.8112   -0.1606 C   0  0  0  0  0  0  0  0  0  0  0  0
   -2.3176    0.7047    0.3025 C   0  0  0  0  0  0  0  0  0  0  0  0
   -0.9280    0.6611    0.1890 C   0  0  0  0  0  0  0  0  0  0  0  0
   -2.4495   -1.6691    0.2480 C   0  0  0  0  0  0  0  0  0  0  0  0
   -0.9022    3.0050   -0.3966 C   0  0  0  0  0  0  0  0  0  0  0  0
   -2.9995    1.8985    0.0665 C   0  0  0  0  0  0  0  0  0  0  0  0
   -2.2917    3.0486   -0.2834 C   0  0  0  0  0  0  0  0  0  0  0  0
   -3.5794   -2.6652    0.0412 C   0  0  0  0  0  0  0  0  0  0  0  0
    2.1242    0.7324   -0.1013 C   0  0  0  0  0  0  0  0  0  0  0  0
    3.3857    1.0862    0.3319 C   0  0  0  0  0  0  0  0  0  0  0  0
    4.2766    0.0443    0.4907 C   0  0  0  0  0  0  0  0  0  0  0  0
    2.7085   -1.4634   -0.1689 C   0  0  0  0  0  0  0  0  0  0  0  0
   -0.4081   -0.2536    0.4399 H   0  0  0  0  0  0  0  0  0  0  0  0
   -1.7725   -2.0213    1.0357 H   0  0  0  0  0  0  0  0  0  0  0  0
   -1.8962   -1.5812   -0.6970 H   0  0  0  0  0  0  0  0  0  0  0  0
   -0.3635    3.9088   -0.6698 H   0  0  0  0  0  0  0  0  0  0  0  0
    1.6026    2.6580   -0.5296 H   0  0  0  0  0  0  0  0  0  0  0  0
   -4.0818    1.9386    0.1532 H   0  0  0  0  0  0  0  0  0  0  0  0
   -2.8227    3.9779   -0.4673 H   0  0  0  0  0  0  0  0  0  0  0  0
   -4.1539   -2.7771    0.9679 H   0  0  0  0  0  0  0  0  0  0  0  0
   -4.2778   -2.2847   -0.7126 H   0  0  0  0  0  0  0  0  0  0  0  0
    3.6738    2.1092    0.5395 H   0  0  0  0  0  0  0  0  0  0  0  0
   -2.4318   -4.3251    0.3347 H   0  0  0  0  0  0  0  0  0  0  0  0
   -3.8227   -4.6218   -0.4635 H   0  0  0  0  0  0  0  0  0  0  0  0
    5.2918    0.2246    0.8277 H   0  0  0  0  0  0  0  0  0  0  0  0
    1.4152   -3.0161   -0.7463 H   0  0  0  0  0  0  0  0  0  0  0  0
    3.0371   -3.5353   -0.3018 H   0  0  0  0  0  0  0  0  0  0  0  0
  1  8  1  0  0  0  0
  1 10  1  0  0  0  0
  2  7  1  0  0  0  0
  2 15  1  0  0  0  0
  2 23  1  0  0  0  0
  3 15  2  0  0  0  0
  3 18  1  0  0  0  0
  4 14  1  0  0  0  0
  4 29  1  0  0  0  0
  4 30  1  0  0  0  0
  5 17  1  0  0  0  0
  5 18  2  0  0  0  0
  6 18  1  0  0  0  0
  6 32  1  0  0  0  0
  6 33  1  0  0  0  0
  7  9  2  0  0  0  0
  7 11  1  0  0  0  0
  8  9  1  0  0  0  0
  8 12  2  0  0  0  0
  9 19  1  0  0  0  0
 10 14  1  0  0  0  0
 10 20  1  0  0  0  0
 10 21  1  0  0  0  0
 11 13  2  0  0  0  0
 11 22  1  0  0  0  0
 12 13  1  0  0  0  0
 12 24  1  0  0  0  0
 13 25  1  0  0  0  0
 14 26  1  0  0  0  0
 14 27  1  0  0  0  0
 15 16  1  0  0  0  0
 16 17  2  0  0  0  0
 16 28  1  0  0  0  0
 17 31  1  0  0  0  0
M  END
> <PUBCHEM_COMPOUND_CID>
49830584

> <PUBCHEM_CONFORMER_RMSD>
0.6

> <PUBCHEM_CONFORMER_DIVERSEORDER>
1
97
274
288
251
144
190
24
256
315
168
228
10
107
29
19
259
102
263
53
218
103
199
260
176
253
142
221
207
185
131
200
156
310
115
171
162
60
279
22
307
105
93
127
90
314
320
229
28
157
147
135
25
242
42
309
327
269
249
126
49
202
20
70
328
179
149
76
238
35
255
174
236
4
5
65
175
177
323
301
169
257
130
48
289
241
9
312
64
286
208
209
215
234
235
182
63
34
317
71
282
120
13
298
133
124
193
58
271
77
180
56
206
36
155
122
11
98
272
300
290
96
292
284
267
54
43
281
214
299
196
233
72
230
150
111
313
243
27
165
198
305
197
161
227
225
88
192
237
151
318
322
275
2
62
240
308
213
211
134
15
3
264
92
188
87
73
16
145
8
325
330
148
132
303
302
311
316
26
164
113
99
248
89
258
326
254
39
59
295
184
66
244
75
231
118
81
86
123
183
178
101
94
55
216
247
293
84
140
173
40
159
262
246
69
187
83
250
304
222
181
331
116
203
152
78
139
172
119
51
160
266
23
270
104
291
261
67
141
110
50
201
239
114
297
154
224
6
138
163
195
137
329
14
324
252
245
41
277
170
278
210
46
121
268
294
31
194
287
74
91
45
166
189
37
276
129
57
296
158
80
321
265
95
319
30
18
100
21
273
12
191
112
167
125
212
7
217
61
280
52
32
226
223
128
153
205
44
85
186
38
146
143
232
204
17
283
117
306
219
106
285
136
68
109
33
108
220
47
79
82

> <PUBCHEM_MMFF94_PARTIAL_CHARGES>
29
1 -0.36
10 0.28
11 -0.15
12 -0.15
13 -0.15
14 0.27
15 0.41
16 -0.15
17 0.16
18 0.72
19 0.15
2 -0.6
22 0.15
23 0.4
24 0.15
25 0.15
28 0.15
29 0.36
3 -0.62
30 0.36
31 0.15
32 0.4
33 0.4
4 -0.99
5 -0.62
6 -0.9
7 0.1
8 0.08
9 -0.15

> <PUBCHEM_EFFECTIVE_ROTOR_COUNT>
5

> <PUBCHEM_PHARMACOPHORE_FEATURES>
8
1 1 acceptor
1 2 donor
1 4 cation
1 4 donor
1 6 donor
4 3 5 6 18 cation
6 3 5 15 16 17 18 rings
6 7 8 9 11 12 13 rings

> <PUBCHEM_HEAVY_ATOM_COUNT>
18

> <PUBCHEM_ATOM_DEF_STEREO_COUNT>
0

> <PUBCHEM_ATOM_UDEF_STEREO_COUNT>
0

> <PUBCHEM_BOND_DEF_STEREO_COUNT>
0

> <PUBCHEM_BOND_UDEF_STEREO_COUNT>
0

> <PUBCHEM_ISOTOPIC_ATOM_COUNT>
0

> <PUBCHEM_COMPONENT_COUNT>
1

> <PUBCHEM_CACTVS_TAUTO_COUNT>
9

> <PUBCHEM_CONFORMER_ID>
02F85AB800000001

> <PUBCHEM_MMFF94_ENERGY>
64.5165

> <PUBCHEM_FEATURE_SELFOVERLAP>
40.596

> <PUBCHEM_SHAPE_FINGERPRINT>
10366900 7 17988065700319492936
10616163 171 18410858750389738670
1100329 8 14303854719478900508
11265709 11 18265618865224690851
12500047 106 18192708947500965972
12553582 1 18192448573809142491
138480 1 16248844712715697583
14178342 30 18337380574575743240
14251705 54 18266180710939292707
14466204 15 10847053830688964953
14916288 52 18339649923214771878
15006816 218 17185595715762723855
15352361 1 18266456692916634331
19107657 46 18338518543245618412
19141452 34 18412550916355139001
20442098 301 18336827498572624872
21452121 199 18047460403512966737
21478907 32 18337953515076626043
22113638 7 17837486723622808591
23184049 29 18409735062100805727
23559900 14 18411130312841088176
257057 1 18266177425690075493
3421961 26 17906454686239682171
532947 4 17186436842310706655
69090 78 18193271901791624021
8809292 202 18192999222997203688
9709674 26 18269273469765425318

> <PUBCHEM_SHAPE_MULTIPOLES>
339.66
7.54
4.31
0.68
4.24
2.29
-0.02
3.87
-0.82
-4.7
0.78
0
-0.01
0.21

> <PUBCHEM_SHAPE_SELFOVERLAP>
714.978

> <PUBCHEM_SHAPE_VOLUME>
188.4

> <PUBCHEM_COORDINATE_TYPE>
2
5
10

$$$$
