49831009
  -OEChem-10052120443D

 62 66  0     1  0  0  0  0  0999 V2000
   -0.5742    2.3236   -1.8337 O   0  0  0  0  0  0  0  0  0  0  0  0
    3.1959   -0.4580   -1.1434 N   0  0  0  0  0  0  0  0  0  0  0  0
    1.3147    0.9900   -1.5166 N   0  0  0  0  0  0  0  0  0  0  0  0
    5.9285   -2.8492   -0.5726 N   0  0  0  0  0  0  0  0  0  0  0  0
    1.0796   -1.1499   -0.5263 N   0  0  0  0  0  0  0  0  0  0  0  0
   -2.4866   -4.1354    1.3062 N   0  0  0  0  0  0  0  0  0  0  0  0
    5.3115   -1.5163   -0.5217 C   0  0  1  0  0  0  0  0  0  0  0  0
    3.7912   -1.6719   -0.6875 C   0  0  0  0  0  0  0  0  0  0  0  0
    5.7250   -0.8680    0.8170 C   0  0  0  0  0  0  0  0  0  0  0  0
    1.8420   -0.2276   -1.0493 C   0  0  0  0  0  0  0  0  0  0  0  0
   -0.8916    0.2033   -0.8418 C   0  0  0  0  0  0  0  0  0  0  0  0
    5.2451    0.5500    1.0109 C   0  0  0  0  0  0  0  0  0  0  0  0
   -0.2698   -0.9224   -0.4338 C   0  0  0  0  0  0  0  0  0  0  0  0
   -2.3463    0.4181   -0.7228 C   0  0  0  0  0  0  0  0  0  0  0  0
   -0.0497    1.2802   -1.4461 C   0  0  0  0  0  0  0  0  0  0  0  0
   -2.8732    1.0044    0.4283 C   0  0  0  0  0  0  0  0  0  0  0  0
   -4.2559    1.2144    0.5569 C   0  0  0  0  0  0  0  0  0  0  0  0
   -1.0365   -2.0340    0.1681 C   0  0  0  0  0  0  0  0  0  0  0  0
   -3.1923    0.0344   -1.7592 C   0  0  0  0  0  0  0  0  0  0  0  0
   -5.1162    0.8243   -0.4969 C   0  0  0  0  0  0  0  0  0  0  0  0
    2.2019    1.9976   -2.0964 C   0  0  0  0  0  0  0  0  0  0  0  0
    6.0360    1.6182    0.5877 C   0  0  0  0  0  0  0  0  0  0  0  0
    4.0106    0.7920    1.6133 C   0  0  0  0  0  0  0  0  0  0  0  0
   -4.5685    0.2356   -1.6484 C   0  0  0  0  0  0  0  0  0  0  0  0
   -4.8036    1.8031    1.7084 C   0  0  0  0  0  0  0  0  0  0  0  0
   -6.4988    1.0342   -0.3682 C   0  0  0  0  0  0  0  0  0  0  0  0
    5.5925    2.9285    0.7671 C   0  0  0  0  0  0  0  0  0  0  0  0
    3.5669    2.1022    1.7927 C   0  0  0  0  0  0  0  0  0  0  0  0
   -1.5556   -3.0410   -0.6382 C   0  0  0  0  0  0  0  0  0  0  0  0
   -1.2415   -2.0765    1.5427 C   0  0  0  0  0  0  0  0  0  0  0  0
    4.3579    3.1705    1.3696 C   0  0  0  0  0  0  0  0  0  0  0  0
   -6.1797    2.0042    1.8192 C   0  0  0  0  0  0  0  0  0  0  0  0
   -7.0257    1.6205    0.7829 C   0  0  0  0  0  0  0  0  0  0  0  0
   -2.2668   -4.0601   -0.0257 C   0  0  0  0  0  0  0  0  0  0  0  0
   -1.9667   -3.1390    2.0576 C   0  0  0  0  0  0  0  0  0  0  0  0
    5.7203   -0.9267   -1.3522 H   0  0  0  0  0  0  0  0  0  0  0  0
    3.3549   -2.0130    0.2600 H   0  0  0  0  0  0  0  0  0  0  0  0
    3.5736   -2.4468   -1.4337 H   0  0  0  0  0  0  0  0  0  0  0  0
    6.8207   -0.8734    0.9075 H   0  0  0  0  0  0  0  0  0  0  0  0
    5.3680   -1.4793    1.6581 H   0  0  0  0  0  0  0  0  0  0  0  0
    3.8025    0.2236   -1.5866 H   0  0  0  0  0  0  0  0  0  0  0  0
    6.9421   -2.7598   -0.5127 H   0  0  0  0  0  0  0  0  0  0  0  0
    5.7340   -3.2819   -1.4748 H   0  0  0  0  0  0  0  0  0  0  0  0
   -2.2050    1.3031    1.2351 H   0  0  0  0  0  0  0  0  0  0  0  0
   -2.7962   -0.4230   -2.6627 H   0  0  0  0  0  0  0  0  0  0  0  0
    2.6903    1.5715   -2.9784 H   0  0  0  0  0  0  0  0  0  0  0  0
    1.6628    2.9009   -2.3920 H   0  0  0  0  0  0  0  0  0  0  0  0
    2.9674    2.2666   -1.3637 H   0  0  0  0  0  0  0  0  0  0  0  0
    6.9983    1.4423    0.1144 H   0  0  0  0  0  0  0  0  0  0  0  0
    3.3862   -0.0296    1.9538 H   0  0  0  0  0  0  0  0  0  0  0  0
   -5.2109   -0.0721   -2.4708 H   0  0  0  0  0  0  0  0  0  0  0  0
   -4.1613    2.1106    2.5310 H   0  0  0  0  0  0  0  0  0  0  0  0
   -7.1789    0.7420   -1.1657 H   0  0  0  0  0  0  0  0  0  0  0  0
    6.2076    3.7603    0.4367 H   0  0  0  0  0  0  0  0  0  0  0  0
    2.6053    2.2903    2.2611 H   0  0  0  0  0  0  0  0  0  0  0  0
   -1.4155   -3.0421   -1.7143 H   0  0  0  0  0  0  0  0  0  0  0  0
   -0.8513   -1.3095    2.2037 H   0  0  0  0  0  0  0  0  0  0  0  0
    4.0118    4.1905    1.5084 H   0  0  0  0  0  0  0  0  0  0  0  0
   -6.5905    2.4605    2.7152 H   0  0  0  0  0  0  0  0  0  0  0  0
   -8.0969    1.7773    0.8699 H   0  0  0  0  0  0  0  0  0  0  0  0
   -2.6924   -4.8692   -0.6101 H   0  0  0  0  0  0  0  0  0  0  0  0
   -2.1545   -3.2184    3.1233 H   0  0  0  0  0  0  0  0  0  0  0  0
  1 15  2  0  0  0  0
  2  8  1  0  0  0  0
  2 10  1  0  0  0  0
  2 41  1  0  0  0  0
  3 10  1  0  0  0  0
  3 15  1  0  0  0  0
  3 21  1  0  0  0  0
  4  7  1  0  0  0  0
  4 42  1  0  0  0  0
  4 43  1  0  0  0  0
  5 10  2  0  0  0  0
  5 13  1  0  0  0  0
  6 34  2  0  0  0  0
  6 35  1  0  0  0  0
  7  8  1  0  0  0  0
  7  9  1  0  0  0  0
  7 36  1  0  0  0  0
  8 37  1  0  0  0  0
  8 38  1  0  0  0  0
  9 12  1  0  0  0  0
  9 39  1  0  0  0  0
  9 40  1  0  0  0  0
 11 13  2  0  0  0  0
 11 14  1  0  0  0  0
 11 15  1  0  0  0  0
 12 22  2  0  0  0  0
 12 23  1  0  0  0  0
 13 18  1  0  0  0  0
 14 16  2  0  0  0  0
 14 19  1  0  0  0  0
 16 17  1  0  0  0  0
 16 44  1  0  0  0  0
 17 20  1  0  0  0  0
 17 25  2  0  0  0  0
 18 29  2  0  0  0  0
 18 30  1  0  0  0  0
 19 24  2  0  0  0  0
 19 45  1  0  0  0  0
 20 24  1  0  0  0  0
 20 26  2  0  0  0  0
 21 46  1  0  0  0  0
 21 47  1  0  0  0  0
 21 48  1  0  0  0  0
 22 27  1  0  0  0  0
 22 49  1  0  0  0  0
 23 28  2  0  0  0  0
 23 50  1  0  0  0  0
 24 51  1  0  0  0  0
 25 32  1  0  0  0  0
 25 52  1  0  0  0  0
 26 33  1  0  0  0  0
 26 53  1  0  0  0  0
 27 31  2  0  0  0  0
 27 54  1  0  0  0  0
 28 31  1  0  0  0  0
 28 55  1  0  0  0  0
 29 34  1  0  0  0  0
 29 56  1  0  0  0  0
 30 35  2  0  0  0  0
 30 57  1  0  0  0  0
 31 58  1  0  0  0  0
 32 33  2  0  0  0  0
 32 59  1  0  0  0  0
 33 60  1  0  0  0  0
 34 61  1  0  0  0  0
 35 62  1  0  0  0  0
M  END
> <PUBCHEM_COMPOUND_CID>
49831009

> <PUBCHEM_CONFORMER_RMSD>
1

> <PUBCHEM_CONFORMER_DIVERSEORDER>
1
15
43
55
61
69
57
22
49
30
58
68
39
34
45
24
65
51
32
76
47
66
41
74
27
17
71
75
23
18
78
50
36
67
31
56
26
70
64
72
59
62
38
29
28
46
33
35
8
16
25
14
20
44
4
77
37
2
53
42
40
21
63
48
6
10
60
3
73
52
19
12
9
11
13
5
54
7

> <PUBCHEM_MMFF94_PARTIAL_CHARGES>
52
1 -0.57
10 0.56
11 -0.01
12 -0.14
13 0.14
14 0.03
15 0.62
16 -0.15
18 0.03
19 -0.15
2 -0.82
21 0.3
22 -0.15
23 -0.15
24 -0.15
25 -0.15
26 -0.15
27 -0.15
28 -0.15
29 -0.15
3 -0.42
30 -0.15
31 -0.15
32 -0.15
33 -0.15
34 0.16
35 0.16
4 -0.99
41 0.4
42 0.36
43 0.36
44 0.15
45 0.15
49 0.15
5 -0.62
50 0.15
51 0.15
52 0.15
53 0.15
54 0.15
55 0.15
56 0.15
57 0.15
58 0.15
59 0.15
6 -0.62
60 0.15
61 0.15
62 0.15
7 0.27
8 0.37
9 0.14

> <PUBCHEM_EFFECTIVE_ROTOR_COUNT>
7

> <PUBCHEM_PHARMACOPHORE_FEATURES>
10
1 1 acceptor
1 2 donor
1 4 cation
1 4 donor
1 6 acceptor
6 12 22 23 27 28 31 rings
6 14 16 17 19 20 24 rings
6 17 20 25 26 32 33 rings
6 3 5 10 11 13 15 rings
6 6 18 29 30 34 35 rings

> <PUBCHEM_HEAVY_ATOM_COUNT>
35

> <PUBCHEM_ATOM_DEF_STEREO_COUNT>
0

> <PUBCHEM_ATOM_UDEF_STEREO_COUNT>
1

> <PUBCHEM_BOND_DEF_STEREO_COUNT>
0

> <PUBCHEM_BOND_UDEF_STEREO_COUNT>
0

> <PUBCHEM_ISOTOPIC_ATOM_COUNT>
0

> <PUBCHEM_COMPONENT_COUNT>
1

> <PUBCHEM_CACTVS_TAUTO_COUNT>
4

> <PUBCHEM_CONFORMER_ID>
02F85C6100000001

> <PUBCHEM_MMFF94_ENERGY>
104.1751

> <PUBCHEM_FEATURE_SELFOVERLAP>
50.774

> <PUBCHEM_SHAPE_FINGERPRINT>
10074138 170 17895198869731876131
10692045 39 18341335500277794513
10816530 23 18200305641083627330
11007060 377 18261380170817225799
11370993 144 18341893009124719896
11456790 92 18271241595964461754
11578080 2 18270688683069860426
12128747 34 18271240620743114912
12422481 6 18115326560705387027
12633257 1 18264182817382206120
12925494 130 18200587133198080888
131258 38 13845099513407334681
13140716 1 18187651361590326126
13540713 5 17679314219197395638
13583140 156 17845088661618175538
13692114 37 18410859889173945595
15183329 4 16343702140344171105
15361156 5 18336263531366127894
15840311 113 18130791101677192133
16112460 7 18411983550495050065
19301679 30 17755312506097316331
21033648 29 18200302351449629282
21859007 373 17823120251512672733
22122407 14 17489306438329026232
22223350 30 18334868250393321555
23559900 14 18334297578769054502
23569943 247 18049718512412901523
244849 19 17773901820048156855
25147074 1 17678182808942516132
3117164 225 18262520406702572320
3178227 256 17823434725054770845
3633792 109 18339343194726997901
394071 54 18187359961372254748
4015057 19 18201704176871269862
404807 14 16122492272278584846
4073 2 18339921627799753954
5104073 3 18263070158928069834
57527293 21 17968926605131898792
6086070 43 17703515484422867700
6679774 75 17168156627959330027
9981440 41 17774724268110475029

> <PUBCHEM_SHAPE_MULTIPOLES>
689.51
16.27
4.25
2.02
1.37
3.54
-0.05
-9.68
-5.19
0.37
-1.75
-0.58
-0.53
1.23

> <PUBCHEM_SHAPE_SELFOVERLAP>
1520.729

> <PUBCHEM_SHAPE_VOLUME>
367.1

> <PUBCHEM_COORDINATE_TYPE>
2
5
10

$$$$
