44353115
  -OEChem-10062121583D

 68 75  0     1  0  0  0  0  0999 V2000
   -1.5176   -0.5898    1.9260 O   0  0  0  0  0  0  0  0  0  0  0  0
   -2.4323    0.4073   -1.2280 O   0  0  0  0  0  0  0  0  0  0  0  0
    5.3819   -0.8356   -0.6106 O   0  0  0  0  0  0  0  0  0  0  0  0
   -4.4421   -1.5243   -0.8651 N   0  3  0  0  0  0  0  0  0  0  0  0
   -0.7721    1.2527    0.7001 N   0  0  0  0  0  0  0  0  0  0  0  0
    0.0969   -1.6159    0.6098 N   0  0  0  0  0  0  0  0  0  0  0  0
    5.1087    1.4873   -0.6840 N   0  0  0  0  0  0  0  0  0  0  0  0
   -3.4937   -1.1974    0.2297 C   0  0  2  0  0  0  0  0  0  0  0  0
   -1.9530    0.5605    1.1962 C   0  0  1  0  0  0  0  0  0  0  0  0
   -2.9914    0.2337    0.0801 C   0  0  1  0  0  0  0  0  0  0  0  0
   -2.3224   -2.1657    0.1873 C   0  0  0  0  0  0  0  0  0  0  0  0
   -1.2258   -1.7419    1.1725 C   0  0  2  0  0  0  0  0  0  0  0  0
    0.5057    0.8162    0.4406 C   0  0  0  0  0  0  0  0  0  0  0  0
    0.9198   -0.5465    0.3957 C   0  0  0  0  0  0  0  0  0  0  0  0
   -2.6536    1.3353    2.3384 C   0  0  0  0  0  0  0  0  0  0  0  0
    1.5429    1.7684    0.1116 C   0  0  0  0  0  0  0  0  0  0  0  0
   -0.6698    2.6105    0.3592 C   0  0  0  0  0  0  0  0  0  0  0  0
    2.3158   -0.7587    0.0505 C   0  0  0  0  0  0  0  0  0  0  0  0
    0.9503   -2.6925    0.3539 C   0  0  0  0  0  0  0  0  0  0  0  0
   -3.6859   -1.8984   -2.1473 C   0  0  0  0  0  0  0  0  0  0  0  0
   -5.3475   -0.3250   -1.1776 C   0  0  0  0  0  0  0  0  0  0  0  0
   -5.3364   -2.7092   -0.4757 C   0  0  0  0  0  0  0  0  0  0  0  0
    0.6921    2.9530    0.1056 C   0  0  0  0  0  0  0  0  0  0  0  0
    2.8908    1.5493   -0.1545 C   0  0  0  0  0  0  0  0  0  0  0  0
    2.2604   -2.2258    0.0362 C   0  0  0  0  0  0  0  0  0  0  0  0
    3.2804    0.2192   -0.1815 C   0  0  0  0  0  0  0  0  0  0  0  0
    4.0380    2.4424   -0.4898 C   0  0  0  0  0  0  0  0  0  0  0  0
   -1.6727    3.5949    0.2351 C   0  0  0  0  0  0  0  0  0  0  0  0
    0.6603   -4.0726    0.3961 C   0  0  0  0  0  0  0  0  0  0  0  0
    4.7025    0.1675   -0.5136 C   0  0  0  0  0  0  0  0  0  0  0  0
    1.0042    4.3069   -0.1785 C   0  0  0  0  0  0  0  0  0  0  0  0
   -2.3693    1.7802   -1.5931 C   0  0  0  0  0  0  0  0  0  0  0  0
    3.2467   -3.2068   -0.2409 C   0  0  0  0  0  0  0  0  0  0  0  0
   -1.3232    4.9155   -0.0574 C   0  0  0  0  0  0  0  0  0  0  0  0
    0.0007    5.2731   -0.2462 C   0  0  0  0  0  0  0  0  0  0  0  0
    1.6659   -4.9971    0.1172 C   0  0  0  0  0  0  0  0  0  0  0  0
    2.9446   -4.5710   -0.1981 C   0  0  0  0  0  0  0  0  0  0  0  0
   -4.0335   -1.2922    1.1816 H   0  0  0  0  0  0  0  0  0  0  0  0
   -3.8248    0.9349    0.2009 H   0  0  0  0  0  0  0  0  0  0  0  0
   -2.6480   -3.1816    0.4412 H   0  0  0  0  0  0  0  0  0  0  0  0
   -1.8319   -2.2426   -0.7866 H   0  0  0  0  0  0  0  0  0  0  0  0
   -1.1412   -2.5376    1.9235 H   0  0  0  0  0  0  0  0  0  0  0  0
   -1.9250    1.6790    3.0832 H   0  0  0  0  0  0  0  0  0  0  0  0
   -3.3534    0.6798    2.8735 H   0  0  0  0  0  0  0  0  0  0  0  0
   -3.2311    2.1986    2.0081 H   0  0  0  0  0  0  0  0  0  0  0  0
   -4.4341   -1.9413   -2.9489 H   0  0  0  0  0  0  0  0  0  0  0  0
   -2.9278   -1.1878   -2.4555 H   0  0  0  0  0  0  0  0  0  0  0  0
   -3.2824   -2.9122   -2.0540 H   0  0  0  0  0  0  0  0  0  0  0  0
   -6.1601   -0.6822   -1.8203 H   0  0  0  0  0  0  0  0  0  0  0  0
   -5.7777    0.0456   -0.2421 H   0  0  0  0  0  0  0  0  0  0  0  0
   -4.8063    0.4425   -1.7317 H   0  0  0  0  0  0  0  0  0  0  0  0
   -6.0084   -2.9244   -1.3122 H   0  0  0  0  0  0  0  0  0  0  0  0
   -4.7098   -3.5797   -0.2680 H   0  0  0  0  0  0  0  0  0  0  0  0
   -5.9117   -2.4267    0.4109 H   0  0  0  0  0  0  0  0  0  0  0  0
    3.8813    2.9926   -1.4206 H   0  0  0  0  0  0  0  0  0  0  0  0
    4.3005    3.1110    0.3333 H   0  0  0  0  0  0  0  0  0  0  0  0
   -2.7119    3.4045    0.4740 H   0  0  0  0  0  0  0  0  0  0  0  0
   -0.3368   -4.4275    0.6403 H   0  0  0  0  0  0  0  0  0  0  0  0
    2.0326    4.6029   -0.3701 H   0  0  0  0  0  0  0  0  0  0  0  0
   -2.7315    1.7648   -2.6338 H   0  0  0  0  0  0  0  0  0  0  0  0
   -1.3564    2.1285   -1.7810 H   0  0  0  0  0  0  0  0  0  0  0  0
   -3.1382    2.4063   -1.1474 H   0  0  0  0  0  0  0  0  0  0  0  0
    4.2604   -2.9205   -0.4970 H   0  0  0  0  0  0  0  0  0  0  0  0
    6.0594    1.7517   -0.9219 H   0  0  0  0  0  0  0  0  0  0  0  0
   -2.0992    5.6746   -0.1108 H   0  0  0  0  0  0  0  0  0  0  0  0
    0.2592    6.3049   -0.4663 H   0  0  0  0  0  0  0  0  0  0  0  0
    1.4417   -6.0599    0.1479 H   0  0  0  0  0  0  0  0  0  0  0  0
    3.7206   -5.2998   -0.4154 H   0  0  0  0  0  0  0  0  0  0  0  0
  1  9  1  0  0  0  0
  1 12  1  0  0  0  0
  2 10  1  0  0  0  0
  2 32  1  0  0  0  0
  3 30  2  0  0  0  0
  4  8  1  0  0  0  0
  4 20  1  0  0  0  0
  4 21  1  0  0  0  0
  4 22  1  0  0  0  0
  5  9  1  0  0  0  0
  5 13  1  0  0  0  0
  5 17  1  0  0  0  0
  6 12  1  0  0  0  0
  6 14  1  0  0  0  0
  6 19  1  0  0  0  0
  7 27  1  0  0  0  0
  7 30  1  0  0  0  0
  7 64  1  0  0  0  0
  8 10  1  0  0  0  0
  8 11  1  0  0  0  0
  8 38  1  0  0  0  0
  9 10  1  0  0  0  0
  9 15  1  0  0  0  0
 10 39  1  0  0  0  0
 11 12  1  0  0  0  0
 11 40  1  0  0  0  0
 11 41  1  0  0  0  0
 12 42  1  0  0  0  0
 13 14  2  0  0  0  0
 13 16  1  0  0  0  0
 14 18  1  0  0  0  0
 15 43  1  0  0  0  0
 15 44  1  0  0  0  0
 15 45  1  0  0  0  0
 16 23  1  0  0  0  0
 16 24  2  0  0  0  0
 17 23  1  0  0  0  0
 17 28  2  0  0  0  0
 18 25  1  0  0  0  0
 18 26  2  0  0  0  0
 19 25  1  0  0  0  0
 19 29  2  0  0  0  0
 20 46  1  0  0  0  0
 20 47  1  0  0  0  0
 20 48  1  0  0  0  0
 21 49  1  0  0  0  0
 21 50  1  0  0  0  0
 21 51  1  0  0  0  0
 22 52  1  0  0  0  0
 22 53  1  0  0  0  0
 22 54  1  0  0  0  0
 23 31  2  0  0  0  0
 24 26  1  0  0  0  0
 24 27  1  0  0  0  0
 25 33  2  0  0  0  0
 26 30  1  0  0  0  0
 27 55  1  0  0  0  0
 27 56  1  0  0  0  0
 28 34  1  0  0  0  0
 28 57  1  0  0  0  0
 29 36  1  0  0  0  0
 29 58  1  0  0  0  0
 31 35  1  0  0  0  0
 31 59  1  0  0  0  0
 32 60  1  0  0  0  0
 32 61  1  0  0  0  0
 32 62  1  0  0  0  0
 33 37  1  0  0  0  0
 33 63  1  0  0  0  0
 34 35  2  0  0  0  0
 34 65  1  0  0  0  0
 35 66  1  0  0  0  0
 36 37  2  0  0  0  0
 36 67  1  0  0  0  0
 37 68  1  0  0  0  0
M  CHG  1   4   1
M  END
> <PUBCHEM_COMPOUND_CID>
44353115

> <PUBCHEM_CONFORMER_RMSD>
0.8

> <PUBCHEM_CONFORMER_DIVERSEORDER>
1

> <PUBCHEM_MMFF94_PARTIAL_CHARGES>
42
1 -0.56
10 0.28
12 0.54
13 -0.05
14 -0.05
16 -0.01
17 -0.15
18 -0.01
19 -0.15
2 -0.56
20 0.5
21 0.5
22 0.5
24 -0.14
26 0.09
27 0.44
28 -0.15
29 -0.15
3 -0.57
30 0.54
31 -0.15
32 0.28
33 -0.15
34 -0.15
35 -0.15
36 -0.15
37 -0.15
4 -1.01
5 -0.04
57 0.15
58 0.15
59 0.15
6 -0.04
63 0.15
64 0.37
65 0.15
66 0.15
67 0.15
68 0.15
7 -0.73
8 0.5
9 0.54

> <PUBCHEM_EFFECTIVE_ROTOR_COUNT>
3.2

> <PUBCHEM_PHARMACOPHORE_FEATURES>
15
1 1 acceptor
1 2 acceptor
1 3 acceptor
1 4 cation
1 5 cation
1 6 cation
1 7 donor
5 5 13 16 17 23 rings
5 6 14 18 19 25 rings
5 7 24 26 27 30 rings
6 1 8 9 10 11 12 rings
6 13 14 16 18 24 26 rings
6 17 23 28 31 34 35 rings
6 19 25 29 33 36 37 rings
7 1 5 6 9 12 13 14 rings

> <PUBCHEM_HEAVY_ATOM_COUNT>
37

> <PUBCHEM_ATOM_DEF_STEREO_COUNT>
4

> <PUBCHEM_ATOM_UDEF_STEREO_COUNT>
0

> <PUBCHEM_BOND_DEF_STEREO_COUNT>
0

> <PUBCHEM_BOND_UDEF_STEREO_COUNT>
0

> <PUBCHEM_ISOTOPIC_ATOM_COUNT>
0

> <PUBCHEM_COMPONENT_COUNT>
1

> <PUBCHEM_CACTVS_TAUTO_COUNT>
2

> <PUBCHEM_CONFORMER_ID>
02A4C65B00000001

> <PUBCHEM_MMFF94_ENERGY>
219.2201

> <PUBCHEM_FEATURE_SELFOVERLAP>
77.071

> <PUBCHEM_SHAPE_FINGERPRINT>
10675989 125 18408880724380957724
10693767 8 18130498746978810511
1100329 8 17762909057797388722
11115154 58 17846488276134394713
11135609 187 18266459991287981081
11227688 84 18265923335272493434
11445158 3 17247556919983204921
11513181 2 17765996099637376950
12553582 1 18336272309409330112
12788726 201 18263635174154579561
13140716 1 18267606730618776360
1361 2 18122901199171624463
13642711 20 18266444572275813223
13911987 19 18190191259362996804
14068700 675 17987516077411616609
14537116 161 17618169081547144085
15320467 1 18194402427177446703
15324884 4 17319571680391183769
15420108 30 17769400248326469009
15484559 13 18267850860575734647
15927050 60 17978518533897627556
16728300 4 17536549103126430138
18681886 176 18195239138736673042
19319366 153 17767962400871112607
19591789 44 18338527447040150074
19930381 70 18409727387200131899
20764821 26 18263934250101863196
20775438 99 17762571232982163189
21133410 171 17469268792449087595
21857420 4 17041692909698437455
22113638 7 18195526132661793654
23559900 14 17692815200017188616
238 59 17903318792966831959
24771750 20 17899704745760407221
266924 87 18337392643417942606
283562 15 18413395336832587272
3027735 51 18411136913640657096
3380486 145 18263943067664817705
3882209 13 17830700233003102754
4353968 344 18341612556888790142
463206 1 18338795735992761855
469060 322 18411704300353506425
484989 97 17688030129708269267
57527452 28 15409510967827783655
57527585 103 17314820436600837657
70251023 43 18192992613169363363

> <PUBCHEM_SHAPE_MULTIPOLES>
723.91
8.51
7.14
1.29
0.06
2.04
-0.12
-4.43
3.43
-2.12
0.37
1.5
-0.08
-1.06

> <PUBCHEM_SHAPE_SELFOVERLAP>
1662.155

> <PUBCHEM_SHAPE_VOLUME>
370.9

> <PUBCHEM_COORDINATE_TYPE>
2
5
10

$$$$
