11661959
  -OEChem-10052120443D

 53 55  0     1  0  0  0  0  0999 V2000
   -5.6271    3.5301   -1.0710 Cl  0  0  0  0  0  0  0  0  0  0  0  0
   -3.1326    2.0612   -1.6643 F   0  0  0  0  0  0  0  0  0  0  0  0
    3.6810   -2.7294    0.2489 O   0  0  0  0  0  0  0  0  0  0  0  0
    2.7901    3.2124   -0.9213 O   0  0  0  0  0  0  0  0  0  0  0  0
    2.5457    1.0894    1.1060 N   0  0  2  0  0  0  0  0  0  0  0  0
    5.0083    2.5620   -0.7232 N   0  0  0  0  0  0  0  0  0  0  0  0
   -2.1531   -0.1892   -0.3771 N   0  0  0  0  0  0  0  0  0  0  0  0
   -0.8454   -4.1141   -0.2532 N   0  0  0  0  0  0  0  0  0  0  0  0
   -2.6199   -2.4944   -0.4394 N   0  0  0  0  0  0  0  0  0  0  0  0
    2.9781    0.0380    0.1852 C   0  0  0  0  0  0  0  0  0  0  0  0
    3.5254    2.1723    1.1435 C   0  0  2  0  0  0  0  0  0  0  0  0
    1.9675   -1.0685    0.0693 C   0  0  0  0  0  0  0  0  0  0  0  0
    0.6270   -0.7463   -0.0758 C   0  0  0  0  0  0  0  0  0  0  0  0
    2.3679   -2.3939    0.1067 C   0  0  0  0  0  0  0  0  0  0  0  0
   -0.3266   -1.7735   -0.1850 C   0  0  0  0  0  0  0  0  0  0  0  0
    2.3375    0.5396    2.4458 C   0  0  0  0  0  0  0  0  0  0  0  0
    3.0484    3.2830    2.0708 C   0  0  0  0  0  0  0  0  0  0  0  0
    3.7031    2.7060   -0.2723 C   0  0  0  0  0  0  0  0  0  0  0  0
    0.0582   -3.1237   -0.1495 C   0  0  0  0  0  0  0  0  0  0  0  0
    1.4135   -3.4096   -0.0027 C   0  0  0  0  0  0  0  0  0  0  0  0
   -1.6889   -1.5276   -0.3329 C   0  0  0  0  0  0  0  0  0  0  0  0
   -2.1351   -3.7457   -0.3921 C   0  0  0  0  0  0  0  0  0  0  0  0
   -3.3616    0.4075    0.0155 C   0  0  0  0  0  0  0  0  0  0  0  0
    5.4383    3.0020   -2.0302 C   0  0  0  0  0  0  0  0  0  0  0  0
    4.4436   -2.8826   -0.9463 C   0  0  0  0  0  0  0  0  0  0  0  0
   -3.8382    1.5427   -0.6473 C   0  0  0  0  0  0  0  0  0  0  0  0
   -4.0977   -0.1314    1.0751 C   0  0  0  0  0  0  0  0  0  0  0  0
   -5.0393    2.1331   -0.2545 C   0  0  0  0  0  0  0  0  0  0  0  0
   -5.2987    0.4590    1.4681 C   0  0  0  0  0  0  0  0  0  0  0  0
   -5.7695    1.5912    0.8032 C   0  0  0  0  0  0  0  0  0  0  0  0
    3.9554   -0.3452    0.5041 H   0  0  0  0  0  0  0  0  0  0  0  0
    3.1044    0.4130   -0.8375 H   0  0  0  0  0  0  0  0  0  0  0  0
    4.4887    1.8077    1.5249 H   0  0  0  0  0  0  0  0  0  0  0  0
    0.3305    0.2982   -0.1127 H   0  0  0  0  0  0  0  0  0  0  0  0
    1.6386   -0.3027    2.4635 H   0  0  0  0  0  0  0  0  0  0  0  0
    1.8745    1.2725    3.1145 H   0  0  0  0  0  0  0  0  0  0  0  0
    3.2749    0.1983    2.9015 H   0  0  0  0  0  0  0  0  0  0  0  0
    3.1536    3.0184    3.1278 H   0  0  0  0  0  0  0  0  0  0  0  0
    2.0040    3.5564    1.8791 H   0  0  0  0  0  0  0  0  0  0  0  0
    3.6441    4.1903    1.9134 H   0  0  0  0  0  0  0  0  0  0  0  0
    1.7398   -4.4481    0.0290 H   0  0  0  0  0  0  0  0  0  0  0  0
    5.6970    2.0989   -0.1385 H   0  0  0  0  0  0  0  0  0  0  0  0
   -1.5969    0.4029   -0.9882 H   0  0  0  0  0  0  0  0  0  0  0  0
   -2.8581   -4.5480   -0.4748 H   0  0  0  0  0  0  0  0  0  0  0  0
    5.3693    2.1542   -2.7164 H   0  0  0  0  0  0  0  0  0  0  0  0
    6.4768    3.3333   -1.9594 H   0  0  0  0  0  0  0  0  0  0  0  0
    4.8084    3.8190   -2.3910 H   0  0  0  0  0  0  0  0  0  0  0  0
    4.0590   -3.7189   -1.5386 H   0  0  0  0  0  0  0  0  0  0  0  0
    5.4782   -3.0993   -0.6666 H   0  0  0  0  0  0  0  0  0  0  0  0
    4.4276   -1.9640   -1.5412 H   0  0  0  0  0  0  0  0  0  0  0  0
   -3.7465   -1.0045    1.6190 H   0  0  0  0  0  0  0  0  0  0  0  0
   -5.8658    0.0390    2.2937 H   0  0  0  0  0  0  0  0  0  0  0  0
   -6.7068    2.0407    1.1210 H   0  0  0  0  0  0  0  0  0  0  0  0
  1 28  1  0  0  0  0
  2 26  1  0  0  0  0
  3 14  1  0  0  0  0
  3 25  1  0  0  0  0
  4 18  2  0  0  0  0
  5 10  1  0  0  0  0
  5 11  1  0  0  0  0
  5 16  1  0  0  0  0
  6 18  1  0  0  0  0
  6 24  1  0  0  0  0
  6 42  1  0  0  0  0
  7 21  1  0  0  0  0
  7 23  1  0  0  0  0
  7 43  1  0  0  0  0
  8 19  1  0  0  0  0
  8 22  2  0  0  0  0
  9 21  2  0  0  0  0
  9 22  1  0  0  0  0
 10 12  1  0  0  0  0
 10 31  1  0  0  0  0
 10 32  1  0  0  0  0
 11 17  1  0  0  0  0
 11 18  1  0  0  0  0
 11 33  1  0  0  0  0
 12 13  2  0  0  0  0
 12 14  1  0  0  0  0
 13 15  1  0  0  0  0
 13 34  1  0  0  0  0
 14 20  2  0  0  0  0
 15 19  2  0  0  0  0
 15 21  1  0  0  0  0
 16 35  1  0  0  0  0
 16 36  1  0  0  0  0
 16 37  1  0  0  0  0
 17 38  1  0  0  0  0
 17 39  1  0  0  0  0
 17 40  1  0  0  0  0
 19 20  1  0  0  0  0
 20 41  1  0  0  0  0
 22 44  1  0  0  0  0
 23 26  2  0  0  0  0
 23 27  1  0  0  0  0
 24 45  1  0  0  0  0
 24 46  1  0  0  0  0
 24 47  1  0  0  0  0
 25 48  1  0  0  0  0
 25 49  1  0  0  0  0
 25 50  1  0  0  0  0
 26 28  1  0  0  0  0
 27 29  2  0  0  0  0
 27 51  1  0  0  0  0
 28 30  2  0  0  0  0
 29 30  1  0  0  0  0
 29 52  1  0  0  0  0
 30 53  1  0  0  0  0
M  END
> <PUBCHEM_COMPOUND_CID>
11661959

> <PUBCHEM_CONFORMER_RMSD>
1

> <PUBCHEM_CONFORMER_DIVERSEORDER>
1
178
182
164
121
63
152
200
103
4
206
61
48
131
112
89
117
161
31
145
55
170
53
81
167
156
171
203
115
172
158
202
90
119
157
116
127
93
19
165
76
163
36
68
151
159
45
180
176
154
199
38
80
118
99
32
113
197
43
11
174
70
91
192
104
107
129
133
139
87
120
175
54
82
177
95
181
18
84
198
12
160
183
126
49
105
134
149
3
188
69
150
101
40
187
189
22
185
169
92
72
67
14
62
190
60
109
73
179
75
124
135
37
57
35
66
148
56
168
130
108
41
153
24
50
29
201
110
17
94
186
162
25
52
128
51
173
144
147
97
64
5
42
27
125
191
96
138
34
142
196
21
44
102
30
204
205
106
2
166
78
141
114
79
132
58
33
98
122
65
15
137
193
184
8
111
140
59
100
195
10
86
23
88
155
71
143
16
7
39
28
85
26
46
146
9
123
47
136
77
13
194
83
74
6
20

> <PUBCHEM_MMFF94_PARTIAL_CHARGES>
36
1 -0.18
10 0.41
11 0.33
12 -0.14
13 -0.15
14 0.08
16 0.27
18 0.57
19 0.31
2 -0.19
20 -0.15
21 0.41
22 0.47
23 0.1
24 0.3
25 0.28
26 0.19
27 -0.15
28 0.18
29 -0.15
3 -0.36
30 -0.15
34 0.15
4 -0.57
41 0.15
42 0.37
43 0.4
44 0.15
5 -0.81
51 0.15
52 0.15
53 0.15
6 -0.73
7 -0.6
8 -0.62
9 -0.62

> <PUBCHEM_EFFECTIVE_ROTOR_COUNT>
8

> <PUBCHEM_PHARMACOPHORE_FEATURES>
10
1 3 acceptor
1 4 acceptor
1 5 cation
1 6 donor
1 7 donor
3 7 9 21 cation
3 8 9 22 cation
6 12 13 14 15 19 20 rings
6 23 26 27 28 29 30 rings
6 8 9 15 19 21 22 rings

> <PUBCHEM_HEAVY_ATOM_COUNT>
30

> <PUBCHEM_ATOM_DEF_STEREO_COUNT>
1

> <PUBCHEM_ATOM_UDEF_STEREO_COUNT>
0

> <PUBCHEM_BOND_DEF_STEREO_COUNT>
0

> <PUBCHEM_BOND_UDEF_STEREO_COUNT>
0

> <PUBCHEM_ISOTOPIC_ATOM_COUNT>
0

> <PUBCHEM_COMPONENT_COUNT>
1

> <PUBCHEM_CACTVS_TAUTO_COUNT>
6

> <PUBCHEM_CONFORMER_ID>
00B1F28700000001

> <PUBCHEM_MMFF94_ENERGY>
108.2595

> <PUBCHEM_FEATURE_SELFOVERLAP>
50.918

> <PUBCHEM_SHAPE_FINGERPRINT>
10165383 225 18268162005022443296
10483366 6 18337406950639944828
10670039 82 18121500425874643820
10763959 59 18195243317671143477
1100329 8 18342454794731333554
11059048 146 18341614883637502776
1200032 147 18261970595180885752
12107183 9 18264188293518223754
12390115 104 18198918074446499963
12788726 201 17903904901162938803
13140716 1 18411696582376968027
13617811 41 17690559010657165159
13944108 23 17979080375037947277
13965767 371 18189875639406988016
14466204 15 17906161854731306491
14790565 3 18263932214282441012
14848178 96 18343294856153508169
14950920 106 16951107565169314625
15081414 286 17983301421641279159
151778 21 18411136922320463873
16988056 13 18125429826818527196
20642791 178 18337105761652854634
20642791 239 18265353745916596774
21033648 29 18265041449768682281
21458453 9 18190201108319008411
21860390 5 17916020153347975318
22122407 14 17843411683464945257
23558518 356 18264196070961048674
23559900 14 18270672048672098531
24771750 20 18341067271508408790
283562 15 17836912765768330235
3178227 256 18195256524569407355
469060 322 17832437766707979651
5048184 11 18339923826332600465
508706 21 18053946426678521396
5252454 2 18340770441532594553
5265222 85 17974589175577552180
581034 39 18189620617049243372
7808743 9 18264773336134776300

> <PUBCHEM_SHAPE_MULTIPOLES>
575.34
12.66
5.99
1.55
9.39
1.62
0.47
-13.48
-1.6
-3.77
-1.49
-1
-1.62
0.56

> <PUBCHEM_SHAPE_SELFOVERLAP>
1225.486

> <PUBCHEM_SHAPE_VOLUME>
322.5

> <PUBCHEM_COORDINATE_TYPE>
2
5
10

$$$$
