10354294
  -OEChem-10062122043D

 26 28  0     0  0  0  0  0  0999 V2000
   -5.8192    0.2206   -0.0240 Cl  0  0  0  0  0  0  0  0  0  0  0  0
   -0.9903    1.7618   -0.2569 N   0  0  0  0  0  0  0  0  0  0  0  0
    5.0785   -0.3427    0.0386 N   0  0  0  0  0  0  0  0  0  0  0  0
   -1.3843   -0.5901    0.0901 C   0  0  0  0  0  0  0  0  0  0  0  0
    0.8791    0.2500   -0.0366 C   0  0  0  0  0  0  0  0  0  0  0  0
   -1.8418    0.7302   -0.1037 C   0  0  0  0  0  0  0  0  0  0  0  0
   -0.0008   -0.8110    0.1211 C   0  0  0  0  0  0  0  0  0  0  0  0
    2.3084    0.0482   -0.0110 C   0  0  0  0  0  0  0  0  0  0  0  0
    0.3375    1.5059   -0.2211 C   0  0  0  0  0  0  0  0  0  0  0  0
   -2.3015   -1.6431    0.2471 C   0  0  0  0  0  0  0  0  0  0  0  0
   -3.2164    0.9491   -0.1337 C   0  0  0  0  0  0  0  0  0  0  0  0
   -3.6708   -1.3955    0.2129 C   0  0  0  0  0  0  0  0  0  0  0  0
   -4.1284   -0.0976    0.0223 C   0  0  0  0  0  0  0  0  0  0  0  0
    2.8538   -1.1569   -0.4439 C   0  0  0  0  0  0  0  0  0  0  0  0
    3.1505    1.0575    0.4468 C   0  0  0  0  0  0  0  0  0  0  0  0
    4.2312   -1.3009   -0.3994 C   0  0  0  0  0  0  0  0  0  0  0  0
    4.5145    0.8145    0.4514 C   0  0  0  0  0  0  0  0  0  0  0  0
    0.3574   -1.8233    0.2967 H   0  0  0  0  0  0  0  0  0  0  0  0
    0.9431    2.3928   -0.3796 H   0  0  0  0  0  0  0  0  0  0  0  0
   -1.9542   -2.6631    0.3968 H   0  0  0  0  0  0  0  0  0  0  0  0
   -3.5858    1.9631   -0.2829 H   0  0  0  0  0  0  0  0  0  0  0  0
   -4.3652   -2.2222    0.3357 H   0  0  0  0  0  0  0  0  0  0  0  0
    2.2583   -1.9741   -0.8363 H   0  0  0  0  0  0  0  0  0  0  0  0
    2.7904    2.0099    0.8208 H   0  0  0  0  0  0  0  0  0  0  0  0
    4.7051   -2.2187   -0.7318 H   0  0  0  0  0  0  0  0  0  0  0  0
    5.2119    1.5671    0.8044 H   0  0  0  0  0  0  0  0  0  0  0  0
  1 13  1  0  0  0  0
  2  6  2  0  0  0  0
  2  9  1  0  0  0  0
  3 16  2  0  0  0  0
  3 17  1  0  0  0  0
  4  6  1  0  0  0  0
  4  7  2  0  0  0  0
  4 10  1  0  0  0  0
  5  7  1  0  0  0  0
  5  8  1  0  0  0  0
  5  9  2  0  0  0  0
  6 11  1  0  0  0  0
  7 18  1  0  0  0  0
  8 14  2  0  0  0  0
  8 15  1  0  0  0  0
  9 19  1  0  0  0  0
 10 12  2  0  0  0  0
 10 20  1  0  0  0  0
 11 13  2  0  0  0  0
 11 21  1  0  0  0  0
 12 13  1  0  0  0  0
 12 22  1  0  0  0  0
 14 16  1  0  0  0  0
 14 23  1  0  0  0  0
 15 17  2  0  0  0  0
 15 24  1  0  0  0  0
 16 25  1  0  0  0  0
 17 26  1  0  0  0  0
M  END
> <PUBCHEM_COMPOUND_CID>
10354294

> <PUBCHEM_CONFORMER_RMSD>
0.6

> <PUBCHEM_CONFORMER_DIVERSEORDER>
1

> <PUBCHEM_MMFF94_PARTIAL_CHARGES>
23
1 -0.18
10 -0.15
11 -0.15
12 -0.15
13 0.18
14 -0.15
15 -0.15
16 0.16
17 0.16
18 0.15
19 0.15
2 -0.62
20 0.15
21 0.15
22 0.15
23 0.15
24 0.15
25 0.15
26 0.15
3 -0.62
6 0.31
7 -0.15
9 0.16

> <PUBCHEM_EFFECTIVE_ROTOR_COUNT>
1

> <PUBCHEM_PHARMACOPHORE_FEATURES>
5
1 2 acceptor
1 3 acceptor
6 2 4 5 6 7 9 rings
6 3 8 14 15 16 17 rings
6 4 6 10 11 12 13 rings

> <PUBCHEM_HEAVY_ATOM_COUNT>
17

> <PUBCHEM_ATOM_DEF_STEREO_COUNT>
0

> <PUBCHEM_ATOM_UDEF_STEREO_COUNT>
0

> <PUBCHEM_BOND_DEF_STEREO_COUNT>
0

> <PUBCHEM_BOND_UDEF_STEREO_COUNT>
0

> <PUBCHEM_ISOTOPIC_ATOM_COUNT>
0

> <PUBCHEM_COMPONENT_COUNT>
1

> <PUBCHEM_CACTVS_TAUTO_COUNT>
1

> <PUBCHEM_CONFORMER_ID>
009DFE7600000001

> <PUBCHEM_MMFF94_ENERGY>
55.4836

> <PUBCHEM_FEATURE_SELFOVERLAP>
25.403

> <PUBCHEM_SHAPE_FINGERPRINT>
11132069 177 18335420179455093921
11401426 45 18409445899607388815
12032990 46 18409452496234056787
12236239 1 16950281801713255530
13288520 33 18410577270812066671
13296908 3 18411138047796911678
13533116 47 17274825709925955758
13675066 3 18334860558180454955
13862211 1 18408036308547428867
14115302 16 17676778650884062927
14386348 63 18411702084092287302
15042514 8 18263369251950831771
15099037 51 18407477769672827903
15196674 1 18410293652868240739
15219456 202 18343300366622708030
15375358 24 18412545422385280278
15536298 74 18413389851921323520
17804303 29 18410577314109944601
1813 80 17385726902199534172
18186145 218 17023179478522146286
18522853 276 18411983563622434577
19141452 34 18343584075109396599
200 152 17703787020486513727
20279233 1 18342182167244314438
20374829 77 18407757036377160211
20510252 161 18270680866082110905
20645477 70 18060139791363611382
21029758 11 18342172276341021537
21267235 1 18409176506036344523
21279426 13 18193554463631918173
2215653 11 18343301440095604559
22485316 2 18413106177657801614
23175994 123 17632863027079011201
23402539 116 18271801333324244303
23557571 272 18410296865509371684
23559900 14 18411697720875123432
26918003 58 18272932730288241186
2871803 45 18335138661734737450
3004659 81 18187930534997679462
335352 9 18408886235504448389
34934 24 18410005559199532739
3545911 37 18411138038927298286
42 15 18410294713772629134
4214541 1 18411700954542353113
4463277 17 18408605851301925821
474 4 16516543260166377220
5104073 3 18411419531126129074
5374978 207 18410568483804786448
542803 24 16298387963412350534
69090 78 18344142600734780575
7364860 26 18266180728462300220
77779 3 18412546513638977482
8809292 202 18260834833886453059
9709674 26 18411425016116421958

> <PUBCHEM_SHAPE_MULTIPOLES>
341.76
10.91
1.62
0.67
0.62
0.03
0
1.01
0.31
0.02
-0.04
-0.11
0.01
0.58

> <PUBCHEM_SHAPE_SELFOVERLAP>
756.83

> <PUBCHEM_SHAPE_VOLUME>
183.9

> <PUBCHEM_COORDINATE_TYPE>
2
5
10

$$$$
