49830595
  -OEChem-10052115173D

 36 38  0     0  0  0  0  0  0999 V2000
   -0.7739   -2.5692   -0.1248 Cl  0  0  0  0  0  0  0  0  0  0  0  0
   -3.5911   -4.1126    0.0697 Cl  0  0  0  0  0  0  0  0  0  0  0  0
   -3.1761    2.1012   -0.1063 S   0  0  0  0  0  0  0  0  0  0  0  0
    1.1492    1.2127    1.6913 O   0  0  0  0  0  0  0  0  0  0  0  0
    0.5772    3.0472   -0.3544 O   0  0  0  0  0  0  0  0  0  0  0  0
    0.2319    0.2495   -0.2507 N   0  0  0  0  0  0  0  0  0  0  0  0
   -1.3095    4.3475   -0.2649 N   0  0  0  0  0  0  0  0  0  0  0  0
   -2.2227   -0.3022   -0.1007 C   0  0  0  0  0  0  0  0  0  0  0  0
   -1.1066    0.5966   -0.1848 C   0  0  0  0  0  0  0  0  0  0  0  0
   -3.4326    0.3969   -0.0508 C   0  0  0  0  0  0  0  0  0  0  0  0
   -1.4838    1.9183   -0.1960 C   0  0  0  0  0  0  0  0  0  0  0  0
   -2.2651   -1.7170   -0.0634 C   0  0  0  0  0  0  0  0  0  0  0  0
   -4.6683   -0.2744    0.0338 C   0  0  0  0  0  0  0  0  0  0  0  0
    1.2611    0.5622    0.6577 C   0  0  0  0  0  0  0  0  0  0  0  0
   -3.4890   -2.3860    0.0212 C   0  0  0  0  0  0  0  0  0  0  0  0
    2.6036    0.0182    0.3240 C   0  0  0  0  0  0  0  0  0  0  0  0
   -4.6769   -1.6701    0.0689 C   0  0  0  0  0  0  0  0  0  0  0  0
   -0.6758    3.0950   -0.2696 C   0  0  0  0  0  0  0  0  0  0  0  0
    3.5258   -0.2360    1.3393 C   0  0  0  0  0  0  0  0  0  0  0  0
    2.9414   -0.2375   -1.0049 C   0  0  0  0  0  0  0  0  0  0  0  0
    5.1234   -1.0012   -0.3034 C   0  0  0  0  0  0  0  0  0  0  0  0
    4.7856   -0.7457    1.0257 C   0  0  0  0  0  0  0  0  0  0  0  0
    4.2013   -0.7472   -1.3187 C   0  0  0  0  0  0  0  0  0  0  0  0
    6.4708   -1.5463   -0.6383 C   0  0  0  0  0  0  0  0  0  0  0  0
    0.3948   -0.5876   -0.8066 H   0  0  0  0  0  0  0  0  0  0  0  0
   -5.6030    0.2780    0.0718 H   0  0  0  0  0  0  0  0  0  0  0  0
   -5.6343   -2.1822    0.1344 H   0  0  0  0  0  0  0  0  0  0  0  0
    3.2806   -0.0491    2.3815 H   0  0  0  0  0  0  0  0  0  0  0  0
    2.2565   -0.0313   -1.8227 H   0  0  0  0  0  0  0  0  0  0  0  0
    5.4945   -0.9425    1.8257 H   0  0  0  0  0  0  0  0  0  0  0  0
    4.4541   -0.9395   -2.3581 H   0  0  0  0  0  0  0  0  0  0  0  0
    6.4479   -2.6404   -0.6222 H   0  0  0  0  0  0  0  0  0  0  0  0
    6.7951   -1.2168   -1.6313 H   0  0  0  0  0  0  0  0  0  0  0  0
    7.2255   -1.2001    0.0761 H   0  0  0  0  0  0  0  0  0  0  0  0
   -2.3184    4.4408   -0.2054 H   0  0  0  0  0  0  0  0  0  0  0  0
   -0.7692    5.2044   -0.3219 H   0  0  0  0  0  0  0  0  0  0  0  0
  1 12  1  0  0  0  0
  2 15  1  0  0  0  0
  3 10  1  0  0  0  0
  3 11  1  0  0  0  0
  4 14  2  0  0  0  0
  5 18  2  0  0  0  0
  6  9  1  0  0  0  0
  6 14  1  0  0  0  0
  6 25  1  0  0  0  0
  7 18  1  0  0  0  0
  7 35  1  0  0  0  0
  7 36  1  0  0  0  0
  8  9  1  0  0  0  0
  8 10  2  0  0  0  0
  8 12  1  0  0  0  0
  9 11  2  0  0  0  0
 10 13  1  0  0  0  0
 11 18  1  0  0  0  0
 12 15  2  0  0  0  0
 13 17  2  0  0  0  0
 13 26  1  0  0  0  0
 14 16  1  0  0  0  0
 15 17  1  0  0  0  0
 16 19  2  0  0  0  0
 16 20  1  0  0  0  0
 17 27  1  0  0  0  0
 19 22  1  0  0  0  0
 19 28  1  0  0  0  0
 20 23  2  0  0  0  0
 20 29  1  0  0  0  0
 21 22  2  0  0  0  0
 21 23  1  0  0  0  0
 21 24  1  0  0  0  0
 22 30  1  0  0  0  0
 23 31  1  0  0  0  0
 24 32  1  0  0  0  0
 24 33  1  0  0  0  0
 24 34  1  0  0  0  0
M  END
> <PUBCHEM_COMPOUND_CID>
49830595

> <PUBCHEM_CONFORMER_RMSD>
0.8

> <PUBCHEM_CONFORMER_DIVERSEORDER>
1
7
6
4
3
5
8
2

> <PUBCHEM_MMFF94_PARTIAL_CHARGES>
32
1 -0.18
10 0.04
11 -0.05
12 0.18
13 -0.15
14 0.54
15 0.18
16 0.09
17 -0.15
18 0.71
19 -0.15
2 -0.18
20 -0.15
21 -0.14
22 -0.15
23 -0.15
24 0.14
25 0.37
26 0.15
27 0.15
28 0.15
29 0.15
3 -0.08
30 0.15
31 0.15
35 0.37
36 0.37
4 -0.57
5 -0.57
6 -0.49
7 -0.8
9 0.06

> <PUBCHEM_EFFECTIVE_ROTOR_COUNT>
4

> <PUBCHEM_PHARMACOPHORE_FEATURES>
7
1 4 acceptor
1 5 acceptor
1 6 donor
1 7 donor
5 3 8 9 10 11 rings
6 16 19 20 21 22 23 rings
6 8 10 12 13 15 17 rings

> <PUBCHEM_HEAVY_ATOM_COUNT>
24

> <PUBCHEM_ATOM_DEF_STEREO_COUNT>
0

> <PUBCHEM_ATOM_UDEF_STEREO_COUNT>
0

> <PUBCHEM_BOND_DEF_STEREO_COUNT>
0

> <PUBCHEM_BOND_UDEF_STEREO_COUNT>
0

> <PUBCHEM_ISOTOPIC_ATOM_COUNT>
0

> <PUBCHEM_COMPONENT_COUNT>
1

> <PUBCHEM_CACTVS_TAUTO_COUNT>
19

> <PUBCHEM_CONFORMER_ID>
02F85AC300000001

> <PUBCHEM_MMFF94_ENERGY>
82.303

> <PUBCHEM_FEATURE_SELFOVERLAP>
35.584

> <PUBCHEM_SHAPE_FINGERPRINT>
10319926 262 18196911320403803218
10369192 42 17556839628562080656
10411042 1 18266179611913150047
10595046 47 18261398815596999790
1100329 8 18409450328077542665
11056379 131 18337956662702448948
11069576 57 17188955252335953503
11796584 16 18052538765071785686
12236239 1 17603869962353934246
12553582 1 18335692862718412275
12788726 201 18187925032437438826
13140716 1 18340485668506342817
13402501 40 18130792230968793542
138480 1 15672381726976545661
14251757 5 18334017176700632998
14386348 63 17846217739753669342
14790565 3 17620198633281710241
14910302 57 18196658402226923294
14955137 171 18262815076462134971
15042514 8 18410014321264742667
15230672 131 17833275216938614302
15250474 111 18115860811851230618
15927050 60 17765993897074008277
17492 89 17979074117824634055
17804303 29 18341612641996467931
1813 80 18339363066680579221
19141452 34 17989204888923623727
20600515 1 18272385173714302293
21033648 29 17274525556051741490
21033650 10 18046653130635033318
21065201 7 18269266877497106146
21267235 1 18336551594643698963
21307412 95 18413102871176991399
22950370 63 18337678610508412610
2297311 6 18411143506753001646
23366157 5 17755018936660978645
23402539 116 18411415077202844532
23557571 272 18200314312733263668
23559900 14 18340480187895892913
3004659 81 18113617906645231070
335352 9 18409728465996358013
4409770 3 18189889825821129925
5104073 3 18271807977011177138
5265222 85 18271814549408677990
59755656 215 18338794511985117799
59755656 520 17840879472977053752
602551 16 18411415082025364778
7970288 3 18337390555648118615
9709674 26 17975975689630394123

> <PUBCHEM_SHAPE_MULTIPOLES>
479.8
11.28
4.17
1
13.28
1.49
0.16
-8.52
-0.81
-5.29
-0.39
1.18
0.01
0.59

> <PUBCHEM_SHAPE_SELFOVERLAP>
1025.067

> <PUBCHEM_SHAPE_VOLUME>
268.5

> <PUBCHEM_COORDINATE_TYPE>
2
5
10

$$$$
