11530963
  -OEChem-10062121563D

 46 49  0     0  0  0  0  0  0999 V2000
    3.6308   -2.6893   -0.0069 O   0  0  0  0  0  0  0  0  0  0  0  0
   -0.6284   -3.7931    1.2585 O   0  0  0  0  0  0  0  0  0  0  0  0
   -2.7884    1.4253    2.2136 O   0  0  0  0  0  0  0  0  0  0  0  0
   -3.6292   -0.3174   -2.1674 O   0  0  0  0  0  0  0  0  0  0  0  0
   -4.3627    1.3274   -0.0632 O   0  0  0  0  0  0  0  0  0  0  0  0
    2.6344    1.1984   -2.2415 N   0  0  0  0  0  0  0  0  0  0  0  0
    1.6295   -3.5955    0.7469 N   0  0  0  0  0  0  0  0  0  0  0  0
    1.5540   -1.4715   -0.0851 C   0  0  0  0  0  0  0  0  0  0  0  0
    2.0440   -0.2700   -0.6851 C   0  0  0  0  0  0  0  0  0  0  0  0
    0.3021   -1.7996    0.2854 C   0  0  0  0  0  0  0  0  0  0  0  0
    2.5317    0.8972   -0.0333 C   0  0  0  0  0  0  0  0  0  0  0  0
    2.8953    1.8027   -1.0323 C   0  0  0  0  0  0  0  0  0  0  0  0
   -0.9120   -0.9856    0.1945 C   0  0  0  0  0  0  0  0  0  0  0  0
    2.1196   -0.0544   -2.0419 C   0  0  0  0  0  0  0  0  0  0  0  0
    2.4323   -2.6326    0.2108 C   0  0  0  0  0  0  0  0  0  0  0  0
    0.3332   -3.1810    0.8257 C   0  0  0  0  0  0  0  0  0  0  0  0
    2.6991    1.2713    1.3148 C   0  0  0  0  0  0  0  0  0  0  0  0
   -1.7094   -1.0324   -0.9543 C   0  0  0  0  0  0  0  0  0  0  0  0
   -1.2856   -0.1537    1.2560 C   0  0  0  0  0  0  0  0  0  0  0  0
    3.4202    3.0688   -0.7495 C   0  0  0  0  0  0  0  0  0  0  0  0
   -2.4421    0.6216    1.1696 C   0  0  0  0  0  0  0  0  0  0  0  0
   -2.8658   -0.2570   -1.0407 C   0  0  0  0  0  0  0  0  0  0  0  0
   -3.2322    0.5699    0.0212 C   0  0  0  0  0  0  0  0  0  0  0  0
    3.2230    2.5345    1.6128 C   0  0  0  0  0  0  0  0  0  0  0  0
    3.5773    3.4178    0.5950 C   0  0  0  0  0  0  0  0  0  0  0  0
   -2.2784    2.7572    2.2033 C   0  0  0  0  0  0  0  0  0  0  0  0
   -3.3188    0.6041   -3.2107 C   0  0  0  0  0  0  0  0  0  0  0  0
   -5.5735    0.7370    0.4036 C   0  0  0  0  0  0  0  0  0  0  0  0
    1.8540   -0.6762   -2.8862 H   0  0  0  0  0  0  0  0  0  0  0  0
    2.7989    1.6196   -3.1453 H   0  0  0  0  0  0  0  0  0  0  0  0
    1.9555   -4.5072    1.0469 H   0  0  0  0  0  0  0  0  0  0  0  0
    2.4271    0.5949    2.1202 H   0  0  0  0  0  0  0  0  0  0  0  0
   -1.4320   -1.6753   -1.7873 H   0  0  0  0  0  0  0  0  0  0  0  0
   -0.6756   -0.1073    2.1560 H   0  0  0  0  0  0  0  0  0  0  0  0
    3.6961    3.7572   -1.5412 H   0  0  0  0  0  0  0  0  0  0  0  0
    3.3539    2.8286    2.6508 H   0  0  0  0  0  0  0  0  0  0  0  0
    3.9822    4.3941    0.8491 H   0  0  0  0  0  0  0  0  0  0  0  0
   -2.6441    3.2711    3.0964 H   0  0  0  0  0  0  0  0  0  0  0  0
   -2.6308    3.2978    1.3192 H   0  0  0  0  0  0  0  0  0  0  0  0
   -1.1839    2.7488    2.2272 H   0  0  0  0  0  0  0  0  0  0  0  0
   -3.4340    1.6350   -2.8614 H   0  0  0  0  0  0  0  0  0  0  0  0
   -4.0156    0.4345   -4.0361 H   0  0  0  0  0  0  0  0  0  0  0  0
   -2.2991    0.4421   -3.5744 H   0  0  0  0  0  0  0  0  0  0  0  0
   -5.8117   -0.1619   -0.1738 H   0  0  0  0  0  0  0  0  0  0  0  0
   -6.3812    1.4618    0.2704 H   0  0  0  0  0  0  0  0  0  0  0  0
   -5.4970    0.4906    1.4674 H   0  0  0  0  0  0  0  0  0  0  0  0
  1 15  2  0  0  0  0
  2 16  2  0  0  0  0
  3 21  1  0  0  0  0
  3 26  1  0  0  0  0
  4 22  1  0  0  0  0
  4 27  1  0  0  0  0
  5 23  1  0  0  0  0
  5 28  1  0  0  0  0
  6 12  1  0  0  0  0
  6 14  1  0  0  0  0
  6 30  1  0  0  0  0
  7 15  1  0  0  0  0
  7 16  1  0  0  0  0
  7 31  1  0  0  0  0
  8  9  1  0  0  0  0
  8 10  2  0  0  0  0
  8 15  1  0  0  0  0
  9 11  1  0  0  0  0
  9 14  2  0  0  0  0
 10 13  1  0  0  0  0
 10 16  1  0  0  0  0
 11 12  1  0  0  0  0
 11 17  2  0  0  0  0
 12 20  2  0  0  0  0
 13 18  2  0  0  0  0
 13 19  1  0  0  0  0
 14 29  1  0  0  0  0
 17 24  1  0  0  0  0
 17 32  1  0  0  0  0
 18 22  1  0  0  0  0
 18 33  1  0  0  0  0
 19 21  2  0  0  0  0
 19 34  1  0  0  0  0
 20 25  1  0  0  0  0
 20 35  1  0  0  0  0
 21 23  1  0  0  0  0
 22 23  2  0  0  0  0
 24 25  2  0  0  0  0
 24 36  1  0  0  0  0
 25 37  1  0  0  0  0
 26 38  1  0  0  0  0
 26 39  1  0  0  0  0
 26 40  1  0  0  0  0
 27 41  1  0  0  0  0
 27 42  1  0  0  0  0
 27 43  1  0  0  0  0
 28 44  1  0  0  0  0
 28 45  1  0  0  0  0
 28 46  1  0  0  0  0
M  END
> <PUBCHEM_COMPOUND_CID>
11530963

> <PUBCHEM_CONFORMER_RMSD>
0.8

> <PUBCHEM_CONFORMER_DIVERSEORDER>
1
18
11
16
12
14
5
15
8
2
19
17
4
9
13
6
7
3
10

> <PUBCHEM_MMFF94_PARTIAL_CHARGES>
36
1 -0.57
10 -0.01
12 -0.15
13 0.03
14 -0.3
15 0.62
16 0.62
17 -0.15
18 -0.15
19 -0.15
2 -0.57
20 -0.15
21 0.08
22 0.08
23 0.08
24 -0.15
25 -0.15
26 0.28
27 0.28
28 0.28
29 0.15
3 -0.36
30 0.27
31 0.37
32 0.15
33 0.15
34 0.15
35 0.15
36 0.15
37 0.15
4 -0.36
5 -0.36
6 0.03
7 -0.49
8 0.06
9 -0.05

> <PUBCHEM_EFFECTIVE_ROTOR_COUNT>
5.2

> <PUBCHEM_PHARMACOPHORE_FEATURES>
12
1 1 acceptor
1 2 acceptor
1 3 acceptor
1 4 acceptor
1 5 acceptor
1 6 cation
1 6 donor
1 7 donor
5 6 9 11 12 14 rings
5 7 8 10 15 16 rings
6 11 12 17 20 24 25 rings
6 13 18 19 21 22 23 rings

> <PUBCHEM_HEAVY_ATOM_COUNT>
28

> <PUBCHEM_ATOM_DEF_STEREO_COUNT>
0

> <PUBCHEM_ATOM_UDEF_STEREO_COUNT>
0

> <PUBCHEM_BOND_DEF_STEREO_COUNT>
0

> <PUBCHEM_BOND_UDEF_STEREO_COUNT>
0

> <PUBCHEM_ISOTOPIC_ATOM_COUNT>
0

> <PUBCHEM_COMPONENT_COUNT>
1

> <PUBCHEM_CACTVS_TAUTO_COUNT>
8

> <PUBCHEM_CONFORMER_ID>
00AFF2D300000001

> <PUBCHEM_MMFF94_ENERGY>
102.2196

> <PUBCHEM_FEATURE_SELFOVERLAP>
60.999

> <PUBCHEM_SHAPE_FINGERPRINT>
10006869 2 18197516197206216171
10165383 225 17755627932752590780
11582403 64 16770955978625471496
11640471 11 18272936011658988573
12156800 1 15519749231863060519
12160290 23 17757285042947598446
12714826 92 7851929752228766896
12788726 201 17178003008194615194
13134695 92 18119240663033556950
13140716 1 18261109690366325722
13583140 156 17830760672431330025
13965767 371 17896030096000504180
14787075 74 18055640761860771483
14955137 171 17982190927935082146
17980427 23 17844506856526696886
1813 80 17764881190589748678
18981168 100 18263098749929337922
19319366 153 18267283474533123639
20510252 161 17689163726385695914
20600515 1 16752996731311502066
2132832 1 17913745276870069849
22122407 14 18052840061180234385
22149856 69 18115325444820661027
22907989 373 17470725980103643316
23559900 14 17749683883046920379
238 59 18271544034196346258
350125 39 18117578399100229930
3886686 26 18189596394104062074
4409770 3 17620185873096488386
469060 322 17826800540601193427
474 4 18410291414963407024
495365 180 18186804643221549663
5252454 2 18043836331540805372
57527585 21 17126222551577402265
5895379 119 17058662754723511360
7471813 234 18057028121537147442
7808743 9 17900837255310889580
84936 182 18341894099724802704
9981440 41 18055059120046200250

> <PUBCHEM_SHAPE_MULTIPOLES>
536.92
8.15
4.27
2.29
5.59
2.26
-1.23
-6.28
-1.26
-4.07
2.3
1.44
-1.07
-0.69

> <PUBCHEM_SHAPE_SELFOVERLAP>
1196.794

> <PUBCHEM_SHAPE_VOLUME>
289.5

> <PUBCHEM_COORDINATE_TYPE>
2
5
10

$$$$
