49830600
  -OEChem-10052115183D

 50 53  0     1  0  0  0  0  0999 V2000
    2.8508   -3.9272    1.1774 Cl  0  0  0  0  0  0  0  0  0  0  0  0
    2.3255   -1.3255   -0.3058 O   0  0  0  0  0  0  0  0  0  0  0  0
    3.7287    2.0281    1.6916 N   0  0  0  0  0  0  0  0  0  0  0  0
    3.9915   -0.6790   -3.4912 N   0  0  0  0  0  0  0  0  0  0  0  0
    0.2730   -3.8810    1.3396 N   0  0  0  0  0  0  0  0  0  0  0  0
   -6.7459    1.1579   -0.7171 N   0  0  0  0  0  0  0  0  0  0  0  0
    3.6524    1.1275   -1.8462 C   0  0  0  0  0  0  0  0  0  0  0  0
    3.7062   -0.4112   -2.0782 C   0  0  1  0  0  0  0  0  0  0  0  0
    3.4102    1.5580   -0.4542 C   0  0  0  0  0  0  0  0  0  0  0  0
    2.1835    2.0396    0.0825 C   0  0  0  0  0  0  0  0  0  0  0  0
    2.4106    2.3272    1.4300 C   0  0  0  0  0  0  0  0  0  0  0  0
    2.3941   -1.1141   -1.7098 C   0  0  0  0  0  0  0  0  0  0  0  0
    4.3410    1.5625    0.5591 C   0  0  0  0  0  0  0  0  0  0  0  0
    0.8977    2.2590   -0.4505 C   0  0  0  0  0  0  0  0  0  0  0  0
    1.4121    2.8254    2.2747 C   0  0  0  0  0  0  0  0  0  0  0  0
   -0.1108    2.7569    0.3826 C   0  0  0  0  0  0  0  0  0  0  0  0
    0.1447    3.0351    1.7238 C   0  0  0  0  0  0  0  0  0  0  0  0
    1.2261   -1.9949    0.1652 C   0  0  0  0  0  0  0  0  0  0  0  0
   -0.0460   -1.4748   -0.0469 C   0  0  0  0  0  0  0  0  0  0  0  0
    1.3308   -3.1903    0.8579 C   0  0  0  0  0  0  0  0  0  0  0  0
   -1.1587   -2.1565    0.4335 C   0  0  0  0  0  0  0  0  0  0  0  0
   -0.9473   -3.3446    1.1142 C   0  0  0  0  0  0  0  0  0  0  0  0
   -2.4996   -1.6396    0.2285 C   0  0  0  0  0  0  0  0  0  0  0  0
   -2.8066   -0.3519   -0.0638 C   0  0  0  0  0  0  0  0  0  0  0  0
   -4.1664    0.1693   -0.2891 C   0  0  0  0  0  0  0  0  0  0  0  0
   -5.2702   -0.5331    0.1818 C   0  0  0  0  0  0  0  0  0  0  0  0
   -4.3509    1.3655   -0.9737 C   0  0  0  0  0  0  0  0  0  0  0  0
   -6.5273   -0.0010   -0.0561 C   0  0  0  0  0  0  0  0  0  0  0  0
   -5.6491    1.8127   -1.1598 C   0  0  0  0  0  0  0  0  0  0  0  0
    2.8914    1.5637   -2.5073 H   0  0  0  0  0  0  0  0  0  0  0  0
    4.6058    1.5634   -2.1776 H   0  0  0  0  0  0  0  0  0  0  0  0
    4.5206   -0.8272   -1.4714 H   0  0  0  0  0  0  0  0  0  0  0  0
    1.5405   -0.5279   -2.0705 H   0  0  0  0  0  0  0  0  0  0  0  0
    2.3492   -2.1001   -2.1922 H   0  0  0  0  0  0  0  0  0  0  0  0
    5.3833    1.2759    0.5776 H   0  0  0  0  0  0  0  0  0  0  0  0
    4.1783    2.1364    2.5902 H   0  0  0  0  0  0  0  0  0  0  0  0
    0.6788    2.0467   -1.4930 H   0  0  0  0  0  0  0  0  0  0  0  0
    4.8782   -0.2471   -3.7484 H   0  0  0  0  0  0  0  0  0  0  0  0
    4.1103   -1.6812   -3.6340 H   0  0  0  0  0  0  0  0  0  0  0  0
    1.6100    3.0419    3.3191 H   0  0  0  0  0  0  0  0  0  0  0  0
   -1.1044    2.9285   -0.0230 H   0  0  0  0  0  0  0  0  0  0  0  0
   -0.6536    3.4208    2.3527 H   0  0  0  0  0  0  0  0  0  0  0  0
   -0.1471   -0.5442   -0.5944 H   0  0  0  0  0  0  0  0  0  0  0  0
   -1.7720   -3.9260    1.5165 H   0  0  0  0  0  0  0  0  0  0  0  0
   -3.2850   -2.3861    0.3116 H   0  0  0  0  0  0  0  0  0  0  0  0
   -2.0261    0.3977   -0.1503 H   0  0  0  0  0  0  0  0  0  0  0  0
   -5.1964   -1.4600    0.7388 H   0  0  0  0  0  0  0  0  0  0  0  0
   -3.5160    1.9426   -1.3577 H   0  0  0  0  0  0  0  0  0  0  0  0
   -7.4206   -0.5074    0.2944 H   0  0  0  0  0  0  0  0  0  0  0  0
   -5.8468    2.7399   -1.6875 H   0  0  0  0  0  0  0  0  0  0  0  0
  1 20  1  0  0  0  0
  2 12  1  0  0  0  0
  2 18  1  0  0  0  0
  3 11  1  0  0  0  0
  3 13  1  0  0  0  0
  3 36  1  0  0  0  0
  4  8  1  0  0  0  0
  4 38  1  0  0  0  0
  4 39  1  0  0  0  0
  5 20  1  0  0  0  0
  5 22  2  0  0  0  0
  6 28  2  0  0  0  0
  6 29  1  0  0  0  0
  7  8  1  0  0  0  0
  7  9  1  0  0  0  0
  7 30  1  0  0  0  0
  7 31  1  0  0  0  0
  8 12  1  0  0  0  0
  8 32  1  0  0  0  0
  9 10  1  0  0  0  0
  9 13  2  0  0  0  0
 10 11  1  0  0  0  0
 10 14  2  0  0  0  0
 11 15  2  0  0  0  0
 12 33  1  0  0  0  0
 12 34  1  0  0  0  0
 13 35  1  0  0  0  0
 14 16  1  0  0  0  0
 14 37  1  0  0  0  0
 15 17  1  0  0  0  0
 15 40  1  0  0  0  0
 16 17  2  0  0  0  0
 16 41  1  0  0  0  0
 17 42  1  0  0  0  0
 18 19  1  0  0  0  0
 18 20  2  0  0  0  0
 19 21  2  0  0  0  0
 19 43  1  0  0  0  0
 21 22  1  0  0  0  0
 21 23  1  0  0  0  0
 22 44  1  0  0  0  0
 23 24  2  3  0  0  0
 23 45  1  0  0  0  0
 24 25  1  0  0  0  0
 24 46  1  0  0  0  0
 25 26  2  0  0  0  0
 25 27  1  0  0  0  0
 26 28  1  0  0  0  0
 26 47  1  0  0  0  0
 27 29  2  0  0  0  0
 27 48  1  0  0  0  0
 28 49  1  0  0  0  0
 29 50  1  0  0  0  0
M  END
> <PUBCHEM_COMPOUND_CID>
49830600

> <PUBCHEM_CONFORMER_RMSD>
1

> <PUBCHEM_CONFORMER_DIVERSEORDER>
1
168
73
77
37
146
166
111
129
70
65
155
95
121
104
161
81
93
42
200
25
213
227
115
211
61
185
75
136
218
204
4
125
202
87
114
27
69
113
123
163
98
164
194
122
40
80
54
76
148
181
96
222
137
83
119
221
14
139
103
220
101
47
174
225
142
210
105
183
82
102
147
110
141
149
8
2
173
171
46
124
90
106
28
170
187
153
112
205
195
23
66
182
197
118
36
56
12
162
215
17
85
68
97
71
109
131
208
217
49
190
201
74
33
189
91
59
11
43
140
31
108
144
130
55
44
207
193
100
26
165
196
29
39
214
84
78
10
57
51
38
7
99
13
53
30
32
135
62
6
138
50
18
117
199
127
94
198
177
16
150
212
92
203
133
63
5
34
41
223
157
152
19
60
180
67
151
191
132
175
52
3
156
22
209
224
45
188
72
128
179
48
167
176
159
9
134
126
145
216
21
184
219
20
143
206
35
192
15
86
160
64
58
186
226
154
107
24
169
116
158
172
79
178
89
120
88

> <PUBCHEM_MMFF94_PARTIAL_CHARGES>
44
1 -0.18
11 -0.15
12 0.28
13 -0.3
14 -0.15
15 -0.15
16 -0.15
17 -0.15
18 0.08
19 -0.15
2 -0.36
20 0.49
21 0.03
22 0.16
23 -0.18
24 -0.18
25 0.03
26 -0.15
27 -0.15
28 0.16
29 0.16
3 0.03
35 0.15
36 0.27
37 0.15
38 0.36
39 0.36
4 -0.99
40 0.15
41 0.15
42 0.15
43 0.15
44 0.15
45 0.15
46 0.15
47 0.15
48 0.15
49 0.15
5 -0.62
50 0.15
6 -0.62
7 0.18
8 0.27
9 -0.18

> <PUBCHEM_EFFECTIVE_ROTOR_COUNT>
7

> <PUBCHEM_PHARMACOPHORE_FEATURES>
11
1 2 acceptor
1 3 cation
1 3 donor
1 4 cation
1 4 donor
1 5 acceptor
1 6 acceptor
5 3 9 10 11 13 rings
6 10 11 14 15 16 17 rings
6 5 18 19 20 21 22 rings
6 6 25 26 27 28 29 rings

> <PUBCHEM_HEAVY_ATOM_COUNT>
29

> <PUBCHEM_ATOM_DEF_STEREO_COUNT>
0

> <PUBCHEM_ATOM_UDEF_STEREO_COUNT>
1

> <PUBCHEM_BOND_DEF_STEREO_COUNT>
0

> <PUBCHEM_BOND_UDEF_STEREO_COUNT>
1

> <PUBCHEM_ISOTOPIC_ATOM_COUNT>
0

> <PUBCHEM_COMPONENT_COUNT>
1

> <PUBCHEM_CACTVS_TAUTO_COUNT>
1

> <PUBCHEM_CONFORMER_ID>
02F85AC800000001

> <PUBCHEM_MMFF94_ENERGY>
72.7591

> <PUBCHEM_FEATURE_SELFOVERLAP>
55.913

> <PUBCHEM_SHAPE_FINGERPRINT>
10675989 125 18411420609184876192
108634 29 18342749541467698884
11331351 85 17762881191708038459
11966995 178 18271807905310580849
1200032 147 16661230129563116806
12156800 1 15288991024754362974
12166972 35 17825948126425398483
12769317 202 18408879612406629143
12778500 126 14635413967295507789
13402501 40 18412541050293403565
13617811 41 18113898269800984341
13726171 33 17755323475238100612
13878862 14 17897421940693668455
14068700 675 17976250240977554850
14114211 68 17970093104510321511
14347329 18 17968672621243662181
14681490 219 18060702780193596001
14931854 50 18267884816676074924
15210252 30 18041290949196216428
15351339 4 18338516318157160504
17093844 170 18410571820836736736
17909252 39 17488757670341525668
18608769 82 18191877936317916099
20775438 99 17988064686680948527
21475661 188 18269832184754628516
22122407 14 18126011469350518081
22393880 68 18413110584811335863
23559900 14 17823132312207892395
24893992 56 18335422387722775779
3298306 158 18410569630645404937
376196 1 17628058307400039296
508706 21 18191589863986718959
513532 50 17774992501312758104
5265222 85 18117843424183443812
5385378 56 18409727344830773153
57124632 79 18261660511537363547
57527573 199 18269824488764480608
59755656 215 18409721898954757101
7808743 9 17898018072920593188
9777508 108 18119247505074936139

> <PUBCHEM_SHAPE_MULTIPOLES>
572.88
11.55
4.97
2.08
22.3
3.15
-1.03
-5.02
-4.98
-3.37
3.29
-3.13
-0.46
1.63

> <PUBCHEM_SHAPE_SELFOVERLAP>
1240.989

> <PUBCHEM_SHAPE_VOLUME>
314

> <PUBCHEM_COORDINATE_TYPE>
2
5
10

$$$$
