21362741
  -OEChem-10062121583D

 25 27  0     0  0  0  0  0  0999 V2000
    1.9767   -2.7291   -0.2223 Cl  0  0  0  0  0  0  0  0  0  0  0  0
    3.1389    2.5846   -0.1616 Cl  0  0  0  0  0  0  0  0  0  0  0  0
    3.7428   -0.3237   -0.2520 O   0  0  0  0  0  0  0  0  0  0  0  0
   -0.9878   -1.5533   -0.0629 N   0  0  0  0  0  0  0  0  0  0  0  0
   -4.4311   -0.2436    0.1205 N   0  0  0  0  0  0  0  0  0  0  0  0
   -0.3246    0.5765   -0.0478 C   0  0  0  0  0  0  0  0  0  0  0  0
    0.1238   -0.7441   -0.0958 C   0  0  0  0  0  0  0  0  0  0  0  0
   -1.7535    0.5403    0.0164 C   0  0  0  0  0  0  0  0  0  0  0  0
   -2.1350   -0.8010    0.0052 C   0  0  0  0  0  0  0  0  0  0  0  0
    0.6308    1.6143   -0.0695 C   0  0  0  0  0  0  0  0  0  0  0  0
    1.4807   -1.0808   -0.1642 C   0  0  0  0  0  0  0  0  0  0  0  0
    2.4076   -0.0351   -0.1842 C   0  0  0  0  0  0  0  0  0  0  0  0
   -2.7568    1.5198    0.0825 C   0  0  0  0  0  0  0  0  0  0  0  0
    1.9912    1.2932   -0.1378 C   0  0  0  0  0  0  0  0  0  0  0  0
   -3.4671   -1.1908    0.0570 C   0  0  0  0  0  0  0  0  0  0  0  0
   -4.0654    1.0582    0.1316 C   0  0  0  0  0  0  0  0  0  0  0  0
    4.4289   -0.4853    0.9851 C   0  0  0  0  0  0  0  0  0  0  0  0
   -0.9630   -2.5634   -0.0856 H   0  0  0  0  0  0  0  0  0  0  0  0
    0.3047    2.6506   -0.0328 H   0  0  0  0  0  0  0  0  0  0  0  0
   -2.5318    2.5800    0.0948 H   0  0  0  0  0  0  0  0  0  0  0  0
   -3.7873   -2.2244    0.0494 H   0  0  0  0  0  0  0  0  0  0  0  0
   -4.8908    1.7618    0.1838 H   0  0  0  0  0  0  0  0  0  0  0  0
    5.4791   -0.6992    0.7673 H   0  0  0  0  0  0  0  0  0  0  0  0
    4.0166   -1.3232    1.5555 H   0  0  0  0  0  0  0  0  0  0  0  0
    4.3794    0.4285    1.5850 H   0  0  0  0  0  0  0  0  0  0  0  0
  1 11  1  0  0  0  0
  2 14  1  0  0  0  0
  3 12  1  0  0  0  0
  3 17  1  0  0  0  0
  4  7  1  0  0  0  0
  4  9  1  0  0  0  0
  4 18  1  0  0  0  0
  5 15  2  0  0  0  0
  5 16  1  0  0  0  0
  6  7  1  0  0  0  0
  6  8  1  0  0  0  0
  6 10  2  0  0  0  0
  7 11  2  0  0  0  0
  8  9  2  0  0  0  0
  8 13  1  0  0  0  0
  9 15  1  0  0  0  0
 10 14  1  0  0  0  0
 10 19  1  0  0  0  0
 11 12  1  0  0  0  0
 12 14  2  0  0  0  0
 13 16  2  0  0  0  0
 13 20  1  0  0  0  0
 15 21  1  0  0  0  0
 16 22  1  0  0  0  0
 17 23  1  0  0  0  0
 17 24  1  0  0  0  0
 17 25  1  0  0  0  0
M  END
> <PUBCHEM_COMPOUND_CID>
21362741

> <PUBCHEM_CONFORMER_RMSD>
0.6

> <PUBCHEM_CONFORMER_DIVERSEORDER>
1

> <PUBCHEM_MMFF94_PARTIAL_CHARGES>
20
1 -0.18
10 -0.15
11 0.18
12 0.08
13 -0.15
14 0.18
15 0.16
16 0.16
17 0.28
18 0.27
19 0.15
2 -0.18
20 0.15
21 0.15
22 0.15
3 -0.36
4 0.03
5 -0.62
7 -0.15
9 -0.15

> <PUBCHEM_EFFECTIVE_ROTOR_COUNT>
1

> <PUBCHEM_PHARMACOPHORE_FEATURES>
7
1 3 acceptor
1 4 cation
1 4 donor
1 5 acceptor
5 4 6 7 8 9 rings
6 5 8 9 13 15 16 rings
6 6 7 10 11 12 14 rings

> <PUBCHEM_HEAVY_ATOM_COUNT>
17

> <PUBCHEM_ATOM_DEF_STEREO_COUNT>
0

> <PUBCHEM_ATOM_UDEF_STEREO_COUNT>
0

> <PUBCHEM_BOND_DEF_STEREO_COUNT>
0

> <PUBCHEM_BOND_UDEF_STEREO_COUNT>
0

> <PUBCHEM_ISOTOPIC_ATOM_COUNT>
0

> <PUBCHEM_COMPONENT_COUNT>
1

> <PUBCHEM_CACTVS_TAUTO_COUNT>
2

> <PUBCHEM_CONFORMER_ID>
0145F83500000001

> <PUBCHEM_MMFF94_ENERGY>
48.0346

> <PUBCHEM_FEATURE_SELFOVERLAP>
35.706

> <PUBCHEM_SHAPE_FINGERPRINT>
10062212 137 18411691101940156083
10608611 8 18409729560580437645
10616163 171 18340771536997584151
10967382 1 18411140229371175311
10980938 120 18411140237950547346
11132069 177 18412824659768152883
11471102 20 18410854373538482796
12251169 10 18410570678184999266
13140716 1 18338231669579490912
13221675 6 18410575067520314959
13380535 76 18410293614092560091
13675066 3 18131628989228664898
14144814 61 18411139104369338131
14325111 11 18410858797634593237
14415576 193 18409735087965789028
15196674 1 18410293653000219989
15442244 35 18196094330885824745
15536298 74 18342178903253863676
16945 1 18411707555933181526
17802600 8 18409725162465205317
17804303 29 18410296908427194356
1813 80 17168991072102779630
18186145 218 18334575750108870517
18522853 276 18342174457804339977
19050596 39 18410858771927781233
200 152 18130779071457328757
20559304 39 18410577262564912892
20645477 70 18409165532299892879
21267235 1 18410866459734910479
21421861 104 17606958382868037642
21501502 16 18338796835345672637
21501925 9 18410569583021021378
221490 88 18337121136638696523
2255824 54 18260553363652933564
22854114 111 18410014363813774885
2334 1 18194684993402891604
23366157 5 18113904849067693646
23402539 116 18343010091405733725
23463225 33 18409167696905186268
23559900 14 18270399378404925990
2748010 2 18265903647162598284
335352 9 18338235964135284956
34934 24 18340197492889942343
474 4 17460037511822810740
5104073 3 18337394936883162617
53812653 166 18342735195970747770
57005193 9 18340478989352045487
69090 78 18343579659735121831
7364860 26 18413392012300539942
8809292 202 18187651352947949227
9709674 26 18410863156942340471
9981440 41 17397826160370712600

> <PUBCHEM_SHAPE_MULTIPOLES>
337.76
7.7
2.42
0.68
2.06
0.06
0.05
-0.67
1.06
-1.6
-0.2
-0.29
0.02
-0.17

> <PUBCHEM_SHAPE_SELFOVERLAP>
738.007

> <PUBCHEM_SHAPE_VOLUME>
187.6

> <PUBCHEM_COORDINATE_TYPE>
2
5
10

$$$$
