11531799
  -OEChem-10062121563D

 50 52  0     1  0  0  0  0  0999 V2000
    6.4101   -3.1704    0.9871 Cl  0  0  0  0  0  0  0  0  0  0  0  0
    3.7836   -2.0031    1.6724 F   0  0  0  0  0  0  0  0  0  0  0  0
   -3.7034    1.7579   -0.0130 O   0  0  0  0  0  0  0  0  0  0  0  0
   -5.8469   -1.2488    1.1014 O   0  0  0  0  0  0  0  0  0  0  0  0
   -3.6957   -0.8317   -0.8782 N   0  0  2  0  0  0  0  0  0  0  0  0
    2.4411    0.0266    0.3455 N   0  0  0  0  0  0  0  0  0  0  0  0
    0.6230    3.7381    0.1238 N   0  0  0  0  0  0  0  0  0  0  0  0
    2.6031    2.3724    0.2686 N   0  0  0  0  0  0  0  0  0  0  0  0
   -4.7446   -3.2558    1.2682 N   0  0  0  0  0  0  0  0  0  0  0  0
   -2.6398   -0.8884    0.1336 C   0  0  0  0  0  0  0  0  0  0  0  0
   -4.5422   -2.0212   -0.7993 C   0  0  2  0  0  0  0  0  0  0  0  0
   -1.7846    0.3348    0.1307 C   0  0  0  0  0  0  0  0  0  0  0  0
   -0.4011    0.2046    0.2020 C   0  0  0  0  0  0  0  0  0  0  0  0
   -2.3515    1.6023    0.0575 C   0  0  0  0  0  0  0  0  0  0  0  0
    0.4138    1.3501    0.2000 C   0  0  0  0  0  0  0  0  0  0  0  0
   -3.1156   -0.7039   -2.2142 C   0  0  0  0  0  0  0  0  0  0  0  0
   -5.6651   -1.9395   -1.8257 C   0  0  0  0  0  0  0  0  0  0  0  0
   -0.1469    2.6357    0.1265 C   0  0  0  0  0  0  0  0  0  0  0  0
   -1.5343    2.7366    0.0559 C   0  0  0  0  0  0  0  0  0  0  0  0
   -5.1173   -2.1046    0.6060 C   0  0  0  0  0  0  0  0  0  0  0  0
    1.8029    1.2897    0.2691 C   0  0  0  0  0  0  0  0  0  0  0  0
    3.6928   -0.4303   -0.0959 C   0  0  0  0  0  0  0  0  0  0  0  0
    1.9559    3.5467    0.1953 C   0  0  0  0  0  0  0  0  0  0  0  0
   -4.3917    1.8763    1.2260 C   0  0  0  0  0  0  0  0  0  0  0  0
    4.3533   -1.4560    0.5876 C   0  0  0  0  0  0  0  0  0  0  0  0
    4.2878    0.1390   -1.2259 C   0  0  0  0  0  0  0  0  0  0  0  0
    5.5965   -1.9078    0.1454 C   0  0  0  0  0  0  0  0  0  0  0  0
    5.5312   -0.3129   -1.6680 C   0  0  0  0  0  0  0  0  0  0  0  0
    6.1855   -1.3363   -0.9824 C   0  0  0  0  0  0  0  0  0  0  0  0
   -2.0228   -1.7847   -0.0213 H   0  0  0  0  0  0  0  0  0  0  0  0
   -3.0407   -0.9614    1.1510 H   0  0  0  0  0  0  0  0  0  0  0  0
   -3.9572   -2.9270   -1.0092 H   0  0  0  0  0  0  0  0  0  0  0  0
    0.0270   -0.7931    0.2520 H   0  0  0  0  0  0  0  0  0  0  0  0
   -3.8841   -0.5113   -2.9699 H   0  0  0  0  0  0  0  0  0  0  0  0
   -2.5571   -1.6007   -2.5090 H   0  0  0  0  0  0  0  0  0  0  0  0
   -2.4382    0.1505   -2.3122 H   0  0  0  0  0  0  0  0  0  0  0  0
   -5.3143   -2.1340   -2.8443 H   0  0  0  0  0  0  0  0  0  0  0  0
   -6.4331   -2.6916   -1.6088 H   0  0  0  0  0  0  0  0  0  0  0  0
   -6.1664   -0.9645   -1.8069 H   0  0  0  0  0  0  0  0  0  0  0  0
   -1.9958    3.7212   -0.0029 H   0  0  0  0  0  0  0  0  0  0  0  0
    2.0035   -0.5980    1.0176 H   0  0  0  0  0  0  0  0  0  0  0  0
   -4.1422   -3.9596    0.8539 H   0  0  0  0  0  0  0  0  0  0  0  0
   -5.0645   -3.4358    2.2141 H   0  0  0  0  0  0  0  0  0  0  0  0
    2.5706    4.4386    0.1924 H   0  0  0  0  0  0  0  0  0  0  0  0
   -4.1371    1.0596    1.9084 H   0  0  0  0  0  0  0  0  0  0  0  0
   -5.4661    1.8399    1.0260 H   0  0  0  0  0  0  0  0  0  0  0  0
   -4.1587    2.8371    1.6959 H   0  0  0  0  0  0  0  0  0  0  0  0
    3.7931    0.9278   -1.7867 H   0  0  0  0  0  0  0  0  0  0  0  0
    5.9884    0.1298   -2.5481 H   0  0  0  0  0  0  0  0  0  0  0  0
    7.1536   -1.6784   -1.3391 H   0  0  0  0  0  0  0  0  0  0  0  0
  1 27  1  0  0  0  0
  2 25  1  0  0  0  0
  3 14  1  0  0  0  0
  3 24  1  0  0  0  0
  4 20  2  0  0  0  0
  5 10  1  0  0  0  0
  5 11  1  0  0  0  0
  5 16  1  0  0  0  0
  6 21  1  0  0  0  0
  6 22  1  0  0  0  0
  6 41  1  0  0  0  0
  7 18  1  0  0  0  0
  7 23  2  0  0  0  0
  8 21  2  0  0  0  0
  8 23  1  0  0  0  0
  9 20  1  0  0  0  0
  9 42  1  0  0  0  0
  9 43  1  0  0  0  0
 10 12  1  0  0  0  0
 10 30  1  0  0  0  0
 10 31  1  0  0  0  0
 11 17  1  0  0  0  0
 11 20  1  0  0  0  0
 11 32  1  0  0  0  0
 12 13  2  0  0  0  0
 12 14  1  0  0  0  0
 13 15  1  0  0  0  0
 13 33  1  0  0  0  0
 14 19  2  0  0  0  0
 15 18  2  0  0  0  0
 15 21  1  0  0  0  0
 16 34  1  0  0  0  0
 16 35  1  0  0  0  0
 16 36  1  0  0  0  0
 17 37  1  0  0  0  0
 17 38  1  0  0  0  0
 17 39  1  0  0  0  0
 18 19  1  0  0  0  0
 19 40  1  0  0  0  0
 22 25  2  0  0  0  0
 22 26  1  0  0  0  0
 23 44  1  0  0  0  0
 24 45  1  0  0  0  0
 24 46  1  0  0  0  0
 24 47  1  0  0  0  0
 25 27  1  0  0  0  0
 26 28  2  0  0  0  0
 26 48  1  0  0  0  0
 27 29  2  0  0  0  0
 28 29  1  0  0  0  0
 28 49  1  0  0  0  0
 29 50  1  0  0  0  0
M  END
> <PUBCHEM_COMPOUND_CID>
11531799

> <PUBCHEM_CONFORMER_RMSD>
0.8

> <PUBCHEM_CONFORMER_DIVERSEORDER>
7
218
31
190
312
339
263
123
213
216
140
262
250
324
10
331
298
239
117
278
82
242
81
125
36
311
156
18
314
199
51
291
321
266
338
328
356
115
313
244
91
210
205
220
211
301
88
246
296
225
12
235
261
282
221
169
152
286
192
72
274
357
191
306
317
343
203
126
281
217
4
330
164
253
322
243
293
39
144
227
89
353
345
196
24
134
65
183
130
163
186
78
16
95
198
264
350
208
212
270
233
255
44
231
52
194
17
346
138
22
158
348
329
42
84
54
272
146
188
226
59
289
209
342
64
333
315
142
97
257
86
258
119
141
122
68
105
300
171
248
180
11
360
251
93
62
309
287
26
29
103
145
302
28
237
241
215
325
15
127
189
5
176
292
336
280
151
214
290
173
77
181
100
111
75
67
276
327
71
162
358
195
223
23
352
219
96
335
98
172
254
307
87
58
90
110
83
249
135
14
99
150
3
303
349
232
35
285
154
132
147
202
9
139
32
288
148
200
320
168
234
344
193
269
271
136
107
354
167
37
50
161
80
351
94
20
284
295
25
182
359
323
79
38
63
40
177
341
85
318
129
137
337
102
143
252
245
277
108
133
46
124
114
101
207
304
332
185
53
104
319
308
2
8
201
184
92
165
60
33
187
76
34
43
259
273
70
41
149
267
238
224
268
179
113
153
355
61
310
121
283
240
155
294
45
229
118
74
57
109
131
48
66
166
265
55
112
30
69
297
230
128
13
299
236
49
334
275
174
159
197
260
73
204
247
116
47
157
27
175
316
1
206
228
347
21
222
326
120
106
6
160
340
305
279
256
178
170
56
19

> <PUBCHEM_MMFF94_PARTIAL_CHARGES>
36
1 -0.18
10 0.41
11 0.33
12 -0.14
13 -0.15
14 0.08
16 0.27
18 0.31
19 -0.15
2 -0.19
20 0.57
21 0.41
22 0.1
23 0.47
24 0.28
25 0.19
26 -0.15
27 0.18
28 -0.15
29 -0.15
3 -0.36
33 0.15
4 -0.57
40 0.15
41 0.4
42 0.37
43 0.37
44 0.15
48 0.15
49 0.15
5 -0.81
50 0.15
6 -0.6
7 -0.62
8 -0.62
9 -0.8

> <PUBCHEM_EFFECTIVE_ROTOR_COUNT>
7

> <PUBCHEM_PHARMACOPHORE_FEATURES>
10
1 3 acceptor
1 4 acceptor
1 5 cation
1 6 donor
1 9 donor
3 6 8 21 cation
3 7 8 23 cation
6 12 13 14 15 18 19 rings
6 22 25 26 27 28 29 rings
6 7 8 15 18 21 23 rings

> <PUBCHEM_HEAVY_ATOM_COUNT>
29

> <PUBCHEM_ATOM_DEF_STEREO_COUNT>
1

> <PUBCHEM_ATOM_UDEF_STEREO_COUNT>
0

> <PUBCHEM_BOND_DEF_STEREO_COUNT>
0

> <PUBCHEM_BOND_UDEF_STEREO_COUNT>
0

> <PUBCHEM_ISOTOPIC_ATOM_COUNT>
0

> <PUBCHEM_COMPONENT_COUNT>
1

> <PUBCHEM_CACTVS_TAUTO_COUNT>
6

> <PUBCHEM_CONFORMER_ID>
00AFF61700000007

> <PUBCHEM_MMFF94_ENERGY>
110.4768

> <PUBCHEM_FEATURE_SELFOVERLAP>
50.918

> <PUBCHEM_SHAPE_FINGERPRINT>
10050765 1 18412546548168456489
11809386 21 18335979757901496394
12107183 9 18271259244248876969
12166972 35 17894636954717587574
12236239 1 17824555063237687752
12422481 6 17346891052258667271
12553582 1 18337667517035330552
12760667 363 18341611534159006903
13009979 54 18059866059791163265
13140716 1 18343019973725263249
13533116 47 18197498626531216321
13540713 4 18267846406800221129
13540713 5 18272100443390102337
13690498 29 18409453578545139316
13955234 65 17982450696168113224
14114206 34 17749385919184786945
14347332 77 18412825789444928157
14767858 380 18261689163902583716
14866123 147 18339645530180126905
15042514 8 18340491058574365073
15537594 2 18263653883152907456
15927050 60 17693099969433658254
17492 89 18339921640468325961
17686467 74 18412256226381055304
19841028 212 18057313106331275999
20775438 99 17906994524552804870
20775530 9 18343015614269705872
21703447 108 18270105954608002960
22950370 63 18410017606904382536
23522609 53 18122380992396129681
23559900 14 18338788018184320657
2838139 119 13118271599024285950
312423 11 18340215197067221125
329604 57 18334299773196889238
335352 9 18340206281079378093
4017518 198 15956361434531604882
439807 62 18259707791481509579
44062 13 18339923718926912565
46194498 28 17313944272126262500
463206 1 18335986372383565898
5104073 3 18202565077132816016
5486654 36 18411423903867169857
6058803 2 17985840456847936921
7970288 3 18410571769397602842
8863177 126 18117847818056229123

> <PUBCHEM_SHAPE_MULTIPOLES>
554.76
15.8
4.24
1.42
7.38
1.85
-0.48
-17.44
-0.73
-0.61
1.07
-0.51
-0.94
-1.48

> <PUBCHEM_SHAPE_SELFOVERLAP>
1189.911

> <PUBCHEM_SHAPE_VOLUME>
308.6

> <PUBCHEM_COORDINATE_TYPE>
2
5
10

$$$$
