49830702
  -OEChem-10052115193D

 34 35  0     0  0  0  0  0  0999 V2000
   -3.7668    2.9955   -0.2646 Cl  0  0  0  0  0  0  0  0  0  0  0  0
   -2.4665   -2.6980    0.4144 O   0  0  0  0  0  0  0  0  0  0  0  0
    0.7317    1.2231   -0.0937 O   0  0  0  0  0  0  0  0  0  0  0  0
   -6.5022    0.1319   -0.9868 O   0  0  0  0  0  0  0  0  0  0  0  0
   -6.3849    1.5045    0.8211 O   0  0  0  0  0  0  0  0  0  0  0  0
   -0.4049   -0.8088    0.1646 N   0  0  0  0  0  0  0  0  0  0  0  0
    1.9030   -0.7875    0.1392 N   0  0  0  0  0  0  0  0  0  0  0  0
    3.5366    0.9389   -0.0860 N   0  0  0  0  0  0  0  0  0  0  0  0
    5.5501   -1.0017    0.1292 N   0  0  0  0  0  0  0  0  0  0  0  0
    8.3456    0.9053   -0.1280 N   0  0  0  0  0  0  0  0  0  0  0  0
   -1.7481   -0.4262    0.1312 C   0  0  0  0  0  0  0  0  0  0  0  0
   -2.7614   -1.3767    0.2568 C   0  0  0  0  0  0  0  0  0  0  0  0
   -4.4217    0.3676    0.0612 C   0  0  0  0  0  0  0  0  0  0  0  0
   -2.0716    0.9210   -0.0295 C   0  0  0  0  0  0  0  0  0  0  0  0
   -4.0981   -0.9797    0.2216 C   0  0  0  0  0  0  0  0  0  0  0  0
   -3.4083    1.3180   -0.0645 C   0  0  0  0  0  0  0  0  0  0  0  0
    0.7473    0.0053    0.0542 C   0  0  0  0  0  0  0  0  0  0  0  0
   -5.8319    0.7361    0.0306 C   0  0  0  0  0  0  0  0  0  0  0  0
    3.2531   -0.3689    0.0750 C   0  0  0  0  0  0  0  0  0  0  0  0
   -2.3390   -3.4786   -0.7722 C   0  0  0  0  0  0  0  0  0  0  0  0
    4.2420   -1.3221    0.1807 C   0  0  0  0  0  0  0  0  0  0  0  0
    4.8448    1.2591   -0.1376 C   0  0  0  0  0  0  0  0  0  0  0  0
    5.8338    0.3061   -0.0320 C   0  0  0  0  0  0  0  0  0  0  0  0
    7.2175    0.6361   -0.0848 C   0  0  0  0  0  0  0  0  0  0  0  0
   -1.3380    1.7073   -0.1324 H   0  0  0  0  0  0  0  0  0  0  0  0
   -4.8815   -1.7273    0.3251 H   0  0  0  0  0  0  0  0  0  0  0  0
   -0.2390   -1.8043    0.2893 H   0  0  0  0  0  0  0  0  0  0  0  0
    1.7603   -1.7870    0.2617 H   0  0  0  0  0  0  0  0  0  0  0  0
   -2.0622   -4.4965   -0.4842 H   0  0  0  0  0  0  0  0  0  0  0  0
   -1.5573   -3.0750   -1.4233 H   0  0  0  0  0  0  0  0  0  0  0  0
   -3.2922   -3.5143   -1.3092 H   0  0  0  0  0  0  0  0  0  0  0  0
    4.0278   -2.3767    0.3105 H   0  0  0  0  0  0  0  0  0  0  0  0
    5.0615    2.3134   -0.2672 H   0  0  0  0  0  0  0  0  0  0  0  0
   -7.4500    0.3844   -1.0006 H   0  0  0  0  0  0  0  0  0  0  0  0
  1 16  1  0  0  0  0
  2 12  1  0  0  0  0
  2 20  1  0  0  0  0
  3 17  2  0  0  0  0
  4 18  1  0  0  0  0
  4 34  1  0  0  0  0
  5 18  2  0  0  0  0
  6 11  1  0  0  0  0
  6 17  1  0  0  0  0
  6 27  1  0  0  0  0
  7 17  1  0  0  0  0
  7 19  1  0  0  0  0
  7 28  1  0  0  0  0
  8 19  2  0  0  0  0
  8 22  1  0  0  0  0
  9 21  2  0  0  0  0
  9 23  1  0  0  0  0
 10 24  3  0  0  0  0
 11 12  2  0  0  0  0
 11 14  1  0  0  0  0
 12 15  1  0  0  0  0
 13 15  2  0  0  0  0
 13 16  1  0  0  0  0
 13 18  1  0  0  0  0
 14 16  2  0  0  0  0
 14 25  1  0  0  0  0
 15 26  1  0  0  0  0
 19 21  1  0  0  0  0
 20 29  1  0  0  0  0
 20 30  1  0  0  0  0
 20 31  1  0  0  0  0
 21 32  1  0  0  0  0
 22 23  2  0  0  0  0
 22 33  1  0  0  0  0
 23 24  1  0  0  0  0
M  END
> <PUBCHEM_COMPOUND_CID>
49830702

> <PUBCHEM_CONFORMER_RMSD>
0.8

> <PUBCHEM_CONFORMER_DIVERSEORDER>
1
12
19
6
23
16
22
14
13
4
21
7
8
5
24
27
15
29
17
9
18
2
25
28
26
20
11
10
3

> <PUBCHEM_MMFF94_PARTIAL_CHARGES>
31
1 -0.18
10 -0.56
11 0.12
12 0.08
13 0.09
14 -0.15
15 -0.15
16 0.18
17 0.69
18 0.63
19 0.43
2 -0.36
20 0.28
21 0.16
22 0.16
23 0.38
24 0.48
25 0.15
26 0.15
27 0.37
28 0.37
3 -0.57
32 0.15
33 0.15
34 0.5
4 -0.65
5 -0.57
6 -0.55
7 -0.55
8 -0.62
9 -0.62

> <PUBCHEM_EFFECTIVE_ROTOR_COUNT>
6

> <PUBCHEM_PHARMACOPHORE_FEATURES>
11
1 10 acceptor
1 2 acceptor
1 3 acceptor
1 4 acceptor
1 5 acceptor
1 6 donor
1 7 donor
1 9 acceptor
3 4 5 18 anion
6 11 12 13 14 15 16 rings
6 8 9 19 21 22 23 rings

> <PUBCHEM_HEAVY_ATOM_COUNT>
24

> <PUBCHEM_ATOM_DEF_STEREO_COUNT>
0

> <PUBCHEM_ATOM_UDEF_STEREO_COUNT>
0

> <PUBCHEM_BOND_DEF_STEREO_COUNT>
0

> <PUBCHEM_BOND_UDEF_STEREO_COUNT>
0

> <PUBCHEM_ISOTOPIC_ATOM_COUNT>
0

> <PUBCHEM_COMPONENT_COUNT>
1

> <PUBCHEM_CACTVS_TAUTO_COUNT>
11

> <PUBCHEM_CONFORMER_ID>
02F85B2E00000001

> <PUBCHEM_MMFF94_ENERGY>
80.6313

> <PUBCHEM_FEATURE_SELFOVERLAP>
55.931

> <PUBCHEM_SHAPE_FINGERPRINT>
10 15 18186242822565024232
10411042 1 17906172103473535243
10906281 52 18059311893498931729
10968037 39 18409448090024976485
11315181 36 18409451409823849265
11524674 6 17275103946391824439
11719270 70 18201435849555071006
12107183 9 17758672248690545506
12236239 1 17894630357151772826
12616971 3 16805605914748209718
12741549 16 14056721253674479359
13533116 47 17846216588639377234
14251764 18 18409728452568364200
14933364 13 18410295805100673120
15042514 8 18335988683608857411
15183329 4 18410572872997755264
15849732 13 17894349982388219359
17844677 252 18337961189888142128
20281389 69 18261110747387001776
20645477 56 18411138030764696651
20681677 155 18334574659118865651
20771845 165 18199759046096397407
21033648 29 17988347270196434472
21150785 3 16774076289150329708
21315759 40 12607409893105331616
23402539 116 18343014494000354725
23559900 14 18343014540696765200
300161 21 18408882945369848586
3004659 81 18335140844100369874
335352 9 18410571804078490733
34797466 226 17917717911566613596
3545911 37 18411138035080873336
4073 2 18040722506701991442
4214541 1 18410012152142727936
4325135 7 18260830402091996924
445580 37 18410023126370219124
5104073 3 18335419110045278354
59755656 520 18410568483973981343
6327066 14 18116707410103360197
67856867 119 18189057663043746500

> <PUBCHEM_SHAPE_MULTIPOLES>
447.4
19.41
2.56
0.69
25.56
1.21
0.03
-7.28
0.56
-3.44
0.35
-0.45
0.06
-0.37

> <PUBCHEM_SHAPE_SELFOVERLAP>
949.052

> <PUBCHEM_SHAPE_VOLUME>
248.1

> <PUBCHEM_COORDINATE_TYPE>
2
5
10

$$$$
