24768216
  -OEChem-10052115183D

 34 36  0     0  0  0  0  0  0999 V2000
   -6.4409    2.4423    1.3332 Br  0  0  0  0  0  0  0  0  0  0  0  0
   -0.1548   -0.1824   -1.4814 O   0  0  0  0  0  0  0  0  0  0  0  0
    0.8007   -1.4107    0.2819 N   0  0  0  0  0  0  0  0  0  0  0  0
   -1.3684   -1.8271   -0.4016 N   0  0  0  0  0  0  0  0  0  0  0  0
    5.7945    0.8636    0.4927 N   0  0  0  0  0  0  0  0  0  0  0  0
    5.7711    1.7917   -0.4784 N   0  0  0  0  0  0  0  0  0  0  0  0
    3.7776    0.6755   -0.3474 C   0  0  0  0  0  0  0  0  0  0  0  0
    4.6283    0.1587    0.6233 C   0  0  0  0  0  0  0  0  0  0  0  0
    2.0862   -0.8770    0.3900 C   0  0  0  0  0  0  0  0  0  0  0  0
    2.4795    0.1532   -0.4734 C   0  0  0  0  0  0  0  0  0  0  0  0
   -2.5783   -1.6786   -1.1773 C   0  0  0  0  0  0  0  0  0  0  0  0
    4.2561   -0.8679    1.4939 C   0  0  0  0  0  0  0  0  0  0  0  0
   -3.5169   -0.6776   -0.5679 C   0  0  0  0  0  0  0  0  0  0  0  0
    2.9609   -1.3775    1.3562 C   0  0  0  0  0  0  0  0  0  0  0  0
    4.5427    1.6741   -0.9873 C   0  0  0  0  0  0  0  0  0  0  0  0
   -0.2242   -1.0521   -0.6161 C   0  0  0  0  0  0  0  0  0  0  0  0
   -4.4730   -1.0925    0.3591 C   0  0  0  0  0  0  0  0  0  0  0  0
   -3.4323    0.6672   -0.9283 C   0  0  0  0  0  0  0  0  0  0  0  0
   -5.3447   -0.1625    0.9257 C   0  0  0  0  0  0  0  0  0  0  0  0
   -4.3040    1.5972   -0.3618 C   0  0  0  0  0  0  0  0  0  0  0  0
   -5.2602    1.1823    0.5651 C   0  0  0  0  0  0  0  0  0  0  0  0
    1.8577    0.5872   -1.2407 H   0  0  0  0  0  0  0  0  0  0  0  0
   -2.3223   -1.3871   -2.2027 H   0  0  0  0  0  0  0  0  0  0  0  0
   -3.0536   -2.6642   -1.2369 H   0  0  0  0  0  0  0  0  0  0  0  0
    4.9370   -1.2552    2.2436 H   0  0  0  0  0  0  0  0  0  0  0  0
    2.6443   -2.1782    2.0216 H   0  0  0  0  0  0  0  0  0  0  0  0
    0.5769   -2.1555    0.9374 H   0  0  0  0  0  0  0  0  0  0  0  0
   -1.3599   -2.5117    0.3483 H   0  0  0  0  0  0  0  0  0  0  0  0
    4.2541    2.3209   -1.8039 H   0  0  0  0  0  0  0  0  0  0  0  0
    6.6433    0.7604    1.0348 H   0  0  0  0  0  0  0  0  0  0  0  0
   -4.5475   -2.1371    0.6494 H   0  0  0  0  0  0  0  0  0  0  0  0
   -2.6951    1.0045   -1.6517 H   0  0  0  0  0  0  0  0  0  0  0  0
   -6.0837   -0.5022    1.6469 H   0  0  0  0  0  0  0  0  0  0  0  0
   -4.2254    2.6413   -0.6540 H   0  0  0  0  0  0  0  0  0  0  0  0
  1 21  1  0  0  0  0
  2 16  2  0  0  0  0
  3  9  1  0  0  0  0
  3 16  1  0  0  0  0
  3 27  1  0  0  0  0
  4 11  1  0  0  0  0
  4 16  1  0  0  0  0
  4 28  1  0  0  0  0
  5  6  1  0  0  0  0
  5  8  1  0  0  0  0
  5 30  1  0  0  0  0
  6 15  2  0  0  0  0
  7  8  2  0  0  0  0
  7 10  1  0  0  0  0
  7 15  1  0  0  0  0
  8 12  1  0  0  0  0
  9 10  2  0  0  0  0
  9 14  1  0  0  0  0
 10 22  1  0  0  0  0
 11 13  1  0  0  0  0
 11 23  1  0  0  0  0
 11 24  1  0  0  0  0
 12 14  2  0  0  0  0
 12 25  1  0  0  0  0
 13 17  2  0  0  0  0
 13 18  1  0  0  0  0
 14 26  1  0  0  0  0
 15 29  1  0  0  0  0
 17 19  1  0  0  0  0
 17 31  1  0  0  0  0
 18 20  2  0  0  0  0
 18 32  1  0  0  0  0
 19 21  2  0  0  0  0
 19 33  1  0  0  0  0
 20 21  1  0  0  0  0
 20 34  1  0  0  0  0
M  END
> <PUBCHEM_COMPOUND_CID>
24768216

> <PUBCHEM_CONFORMER_RMSD>
0.8

> <PUBCHEM_CONFORMER_DIVERSEORDER>
2
24
11
26
20
31
1
23
6
27
18
32
3
21
22
36
34
29
10
7
30
25
33
14
35
8
17
28
12
19
9
13
5
16
4
15

> <PUBCHEM_MMFF94_PARTIAL_CHARGES>
31
1 -0.11
10 -0.15
11 0.44
12 -0.15
13 -0.14
14 -0.15
15 0.14
16 0.69
17 -0.15
18 -0.15
19 -0.15
2 -0.57
20 -0.15
21 0.11
22 0.15
25 0.15
26 0.15
27 0.37
28 0.37
29 0.15
3 -0.55
30 0.27
31 0.15
32 0.15
33 0.15
34 0.15
4 -0.73
5 0.3
6 -0.71
8 -0.15
9 0.12

> <PUBCHEM_EFFECTIVE_ROTOR_COUNT>
5

> <PUBCHEM_PHARMACOPHORE_FEATURES>
9
1 1 hydrophobe
1 2 acceptor
1 3 donor
1 4 donor
1 5 donor
1 6 acceptor
5 5 6 7 8 15 rings
6 13 17 18 19 20 21 rings
6 7 8 9 10 12 14 rings

> <PUBCHEM_HEAVY_ATOM_COUNT>
21

> <PUBCHEM_ATOM_DEF_STEREO_COUNT>
0

> <PUBCHEM_ATOM_UDEF_STEREO_COUNT>
0

> <PUBCHEM_BOND_DEF_STEREO_COUNT>
0

> <PUBCHEM_BOND_UDEF_STEREO_COUNT>
0

> <PUBCHEM_ISOTOPIC_ATOM_COUNT>
0

> <PUBCHEM_COMPONENT_COUNT>
1

> <PUBCHEM_CACTVS_TAUTO_COUNT>
6

> <PUBCHEM_CONFORMER_ID>
0179EED800000002

> <PUBCHEM_MMFF94_ENERGY>
45.4542

> <PUBCHEM_FEATURE_SELFOVERLAP>
45.81

> <PUBCHEM_SHAPE_FINGERPRINT>
10 15 18334585616529750065
10354089 29 18040152933549828798
105312 117 17203606003956706415
10670039 82 17417543423033661352
10912923 1 18334845151895945954
11796584 16 17346601907172349838
12107183 9 17901372403608265915
12166972 35 10663807582094297451
12236239 1 18410571803793523978
12390115 104 17988933258359796539
12555020 224 12679467507790019036
12596602 18 17967814942529764617
12616971 3 18334002887629522618
12892183 10 17313384470668646351
13167372 99 18411136927010959680
13398642 44 16663195068337691732
13668630 136 8430320147127779248
13785724 45 17904757779085023138
14251764 75 16881060003584727796
14341114 176 17822293457148203703
14341114 328 18334011692317565947
14347332 77 8718824280737650755
14848160 23 12107785233031231717
14848178 5 11241965984213522257
14849402 71 17896322600949558236
15183329 4 13254801213514707813
15188451 53 12468637252954952241
15238133 3 18201993327054824306
15519825 34 16951148278097704497
1601671 61 18130785676911457332
17349148 13 8574434269935395462
18785283 64 15575573490552757766
19377110 9 17895201047121752899
20281389 69 18202280316289475315
20374829 77 11097857393819317151
21033648 29 16702012114900861466
21065198 48 18333725832147909155
21302155 148 18340209588056385785
21637258 2 12396592849294346881
22061861 79 13398632753202171760
22393880 68 14476951294553009711
23198884 109 13830133876200414001
23559900 14 17917152680658939630
25122255 55 11458691782106034456
270888 7 18130229238556062705
2748736 6 18128252290895731785
2838139 119 17489295344575842489
29717793 49 10231765504403204066
312425 54 16588030070109158081
3663271 9 18186240636795825571
38570 142 17532960361766813596
5104073 3 17823124778782105778
542803 24 18412823611933490566
5718773 13 11819574666108083305
57724786 102 18198062474243630607
633830 44 18410852131560935927
636775 72 18054222409221041464
7062679 6 18343023293818885073
76465 3 8142082061520255415
7808743 9 18272369772177310783
7970288 3 10953748815471907025
960060 61 13110963149887888082

> <PUBCHEM_SHAPE_MULTIPOLES>
412.32
16.81
2.16
1.33
2.81
0.54
-0.15
11.15
-4.57
1.51
-0.04
-0.1
-0.03
-2.3

> <PUBCHEM_SHAPE_SELFOVERLAP>
883.991

> <PUBCHEM_SHAPE_VOLUME>
233.5

> <PUBCHEM_COORDINATE_TYPE>
2
5
10

$$$$
