49830466
  -OEChem-10052115193D

 52 56  0     0  0  0  0  0  0999 V2000
    4.9415   -1.5592    0.4995 O   0  0  0  0  0  0  0  0  0  0  0  0
    7.1187    2.8271   -0.7547 O   0  0  0  0  0  0  0  0  0  0  0  0
   -4.2821   -0.1606   -1.0085 N   0  0  0  0  0  0  0  0  0  0  0  0
    1.8291   -4.4383    0.4201 N   0  0  0  0  0  0  0  0  0  0  0  0
    2.7642   -3.4745    0.4548 N   0  0  0  0  0  0  0  0  0  0  0  0
    2.6460   -1.1039    0.2413 N   0  0  0  0  0  0  0  0  0  0  0  0
   -4.1472   -2.0341    0.0399 N   0  0  0  0  0  0  0  0  0  0  0  0
   -4.9934   -1.0835   -0.3410 N   0  0  0  0  0  0  0  0  0  0  0  0
    0.6773   -2.5962    0.1216 C   0  0  0  0  0  0  0  0  0  0  0  0
    0.5552   -3.9775    0.2227 C   0  0  0  0  0  0  0  0  0  0  0  0
   -1.7107   -2.4650   -0.1861 C   0  0  0  0  0  0  0  0  0  0  0  0
   -0.4729   -1.8172   -0.0867 C   0  0  0  0  0  0  0  0  0  0  0  0
    2.0598   -2.3551    0.2733 C   0  0  0  0  0  0  0  0  0  0  0  0
   -2.9002   -1.6878   -0.4009 C   0  0  0  0  0  0  0  0  0  0  0  0
   -0.6687   -4.6432    0.1268 C   0  0  0  0  0  0  0  0  0  0  0  0
   -1.8047   -3.8540   -0.0809 C   0  0  0  0  0  0  0  0  0  0  0  0
   -4.9233    1.0083   -1.5544 C   0  0  0  0  0  0  0  0  0  0  0  0
   -2.9641   -0.4933   -1.0735 C   0  0  0  0  0  0  0  0  0  0  0  0
   -5.2192    2.0659   -0.5201 C   0  0  0  0  0  0  0  0  0  0  0  0
    4.0116   -0.7734    0.3519 C   0  0  0  0  0  0  0  0  0  0  0  0
    4.3372    0.6734    0.2515 C   0  0  0  0  0  0  0  0  0  0  0  0
   -6.3123    1.9198    0.3339 C   0  0  0  0  0  0  0  0  0  0  0  0
   -4.3995    3.1900   -0.4179 C   0  0  0  0  0  0  0  0  0  0  0  0
   -6.5858    2.8977    1.2904 C   0  0  0  0  0  0  0  0  0  0  0  0
   -4.6731    4.1679    0.5385 C   0  0  0  0  0  0  0  0  0  0  0  0
    5.5906    1.0760   -0.2099 C   0  0  0  0  0  0  0  0  0  0  0  0
    3.3894    1.6287    0.6186 C   0  0  0  0  0  0  0  0  0  0  0  0
   -5.7660    4.0216    1.3928 C   0  0  0  0  0  0  0  0  0  0  0  0
    5.8961    2.4338   -0.3043 C   0  0  0  0  0  0  0  0  0  0  0  0
    3.6949    2.9865    0.5245 C   0  0  0  0  0  0  0  0  0  0  0  0
    4.9481    3.3891    0.0629 C   0  0  0  0  0  0  0  0  0  0  0  0
    7.3634    4.2311   -0.8261 C   0  0  0  0  0  0  0  0  0  0  0  0
   -0.3819   -0.7371   -0.1551 H   0  0  0  0  0  0  0  0  0  0  0  0
   -0.7394   -5.7221    0.2080 H   0  0  0  0  0  0  0  0  0  0  0  0
   -2.7676   -4.3549   -0.1626 H   0  0  0  0  0  0  0  0  0  0  0  0
   -5.8506    0.6855   -2.0438 H   0  0  0  0  0  0  0  0  0  0  0  0
   -4.2795    1.4083   -2.3471 H   0  0  0  0  0  0  0  0  0  0  0  0
    2.1278   -5.3983    0.5383 H   0  0  0  0  0  0  0  0  0  0  0  0
   -2.2310    0.1236   -1.5750 H   0  0  0  0  0  0  0  0  0  0  0  0
    1.9829   -0.3546    0.0674 H   0  0  0  0  0  0  0  0  0  0  0  0
   -6.9627    1.0523    0.2620 H   0  0  0  0  0  0  0  0  0  0  0  0
   -3.5435    3.3152   -1.0756 H   0  0  0  0  0  0  0  0  0  0  0  0
    6.3380    0.3432   -0.5046 H   0  0  0  0  0  0  0  0  0  0  0  0
   -7.4376    2.7845    1.9546 H   0  0  0  0  0  0  0  0  0  0  0  0
   -4.0347    5.0430    0.6186 H   0  0  0  0  0  0  0  0  0  0  0  0
    2.4151    1.3613    1.0163 H   0  0  0  0  0  0  0  0  0  0  0  0
   -5.9790    4.7830    2.1374 H   0  0  0  0  0  0  0  0  0  0  0  0
    2.9593    3.7299    0.8183 H   0  0  0  0  0  0  0  0  0  0  0  0
    5.1192    4.4591    0.0164 H   0  0  0  0  0  0  0  0  0  0  0  0
    6.6917    4.7209   -1.5393 H   0  0  0  0  0  0  0  0  0  0  0  0
    7.3282    4.6966    0.1647 H   0  0  0  0  0  0  0  0  0  0  0  0
    8.3823    4.3626   -1.2049 H   0  0  0  0  0  0  0  0  0  0  0  0
  1 20  2  0  0  0  0
  2 29  1  0  0  0  0
  2 32  1  0  0  0  0
  3  8  1  0  0  0  0
  3 17  1  0  0  0  0
  3 18  1  0  0  0  0
  4  5  1  0  0  0  0
  4 10  1  0  0  0  0
  4 38  1  0  0  0  0
  5 13  2  0  0  0  0
  6 13  1  0  0  0  0
  6 20  1  0  0  0  0
  6 40  1  0  0  0  0
  7  8  2  0  0  0  0
  7 14  1  0  0  0  0
  9 10  2  0  0  0  0
  9 12  1  0  0  0  0
  9 13  1  0  0  0  0
 10 15  1  0  0  0  0
 11 12  2  0  0  0  0
 11 14  1  0  0  0  0
 11 16  1  0  0  0  0
 12 33  1  0  0  0  0
 14 18  2  0  0  0  0
 15 16  2  0  0  0  0
 15 34  1  0  0  0  0
 16 35  1  0  0  0  0
 17 19  1  0  0  0  0
 17 36  1  0  0  0  0
 17 37  1  0  0  0  0
 18 39  1  0  0  0  0
 19 22  2  0  0  0  0
 19 23  1  0  0  0  0
 20 21  1  0  0  0  0
 21 26  2  0  0  0  0
 21 27  1  0  0  0  0
 22 24  1  0  0  0  0
 22 41  1  0  0  0  0
 23 25  2  0  0  0  0
 23 42  1  0  0  0  0
 24 28  2  0  0  0  0
 24 44  1  0  0  0  0
 25 28  1  0  0  0  0
 25 45  1  0  0  0  0
 26 29  1  0  0  0  0
 26 43  1  0  0  0  0
 27 30  2  0  0  0  0
 27 46  1  0  0  0  0
 28 47  1  0  0  0  0
 29 31  2  0  0  0  0
 30 31  1  0  0  0  0
 30 48  1  0  0  0  0
 31 49  1  0  0  0  0
 32 50  1  0  0  0  0
 32 51  1  0  0  0  0
 32 52  1  0  0  0  0
M  END
> <PUBCHEM_COMPOUND_CID>
49830466

> <PUBCHEM_CONFORMER_RMSD>
1

> <PUBCHEM_CONFORMER_DIVERSEORDER>
4
102
56
77
41
115
156
109
124
117
152
132
22
140
143
81
51
175
100
135
162
116
52
82
108
136
28
154
165
68
170
157
137
120
55
92
97
20
39
171
74
59
99
84
123
27
119
103
130
32
25
151
111
172
129
107
101
60
159
80
139
36
53
96
155
78
125
18
144
75
34
133
167
160
94
91
118
95
30
47
70
114
90
38
141
50
121
110
37
158
54
128
57
31
176
8
64
35
73
173
44
113
98
7
61
168
69
112
122
174
43
93
147
145
14
40
48
79
46
138
9
164
42
17
148
161
150
153
142
23
49
71
6
85
45
63
89
163
26
58
72
134
131
149
5
87
62
146
166
127
106
10
29
3
104
105
83
19
126
66
13
76
169
88
11
67
24
16
86
1
65
21
12
33
2
15

> <PUBCHEM_MMFF94_PARTIAL_CHARGES>
46
1 -0.57
10 -0.15
11 0.05
12 -0.15
13 0.35
14 0.17
15 -0.15
16 -0.15
17 0.4
18 -0.3
19 -0.14
2 -0.36
20 0.54
21 0.09
22 -0.15
23 -0.15
24 -0.15
25 -0.15
26 -0.15
27 -0.15
28 -0.15
29 0.08
3 0.31
30 -0.15
31 -0.15
32 0.28
33 0.15
34 0.15
35 0.15
38 0.27
39 0.15
4 0.3
40 0.37
41 0.15
42 0.15
43 0.15
44 0.15
45 0.15
46 0.15
47 0.15
48 0.15
49 0.15
5 -0.71
6 -0.49
7 -0.23
8 -0.42

> <PUBCHEM_EFFECTIVE_ROTOR_COUNT>
7

> <PUBCHEM_PHARMACOPHORE_FEATURES>
9
1 1 acceptor
1 2 acceptor
1 4 donor
1 6 donor
5 3 7 8 14 18 rings
5 4 5 9 10 13 rings
6 19 22 23 24 25 28 rings
6 21 26 27 29 30 31 rings
6 9 10 11 12 15 16 rings

> <PUBCHEM_HEAVY_ATOM_COUNT>
32

> <PUBCHEM_ATOM_DEF_STEREO_COUNT>
0

> <PUBCHEM_ATOM_UDEF_STEREO_COUNT>
0

> <PUBCHEM_BOND_DEF_STEREO_COUNT>
0

> <PUBCHEM_BOND_UDEF_STEREO_COUNT>
0

> <PUBCHEM_ISOTOPIC_ATOM_COUNT>
0

> <PUBCHEM_COMPONENT_COUNT>
1

> <PUBCHEM_CACTVS_TAUTO_COUNT>
24

> <PUBCHEM_CONFORMER_ID>
02F85A4200000004

> <PUBCHEM_MMFF94_ENERGY>
86.1189

> <PUBCHEM_FEATURE_SELFOVERLAP>
45.764

> <PUBCHEM_SHAPE_FINGERPRINT>
100830 2 18341335487694339673
10439779 11 18266446789044056832
10917259 69 18410295831514347572
11101153 10 18341603773727739437
11408170 253 17903369439359271796
11479125 193 18410860928043978561
11761917 142 18124586742393270728
11828042 163 18341340977516547332
11828042 53 18339369669075247748
11973864 155 18056779649179843809
1200032 147 18186805786073299456
12013929 29 18341335518064851412
12107183 9 18189312672848795354
13885169 86 18269275665021416097
13944108 23 18196655099323089252
14026016 13 18342745100688345377
14251764 75 18411420570819476089
14347329 18 18339633529371855504
14429114 114 18412256263975918713
14664723 55 18188777261777283228
14747282 140 18264214784565898925
14790565 3 18410853252536077159
14849402 71 18121499059542663698
15064981 113 17418104221920084878
15320295 198 17469605110195212253
15320467 1 18266174118064597885
15351339 4 18341884208420674537
15400415 2 18409725188319762540
15980000 95 17760922949457806850
16112460 7 18411983529115542440
16728433 281 18191034598289551356
16990350 14 18338511946260553360
19053607 189 18338783550996567585
19302320 297 18194119607923562611
20691028 202 18341890754193426425
21859007 373 17839734104927619480
22122407 14 18338519642799814867
23569914 152 17700718189814244900
3552219 110 17775007947345126475
4058900 60 18334856125848292570
437795 171 18189608350444168405
5047190 92 18410295792278996881
5104073 3 18042686101193831651
5223283 242 17412205160873928807
53794403 172 18267589004855955726
550186 72 18194678392465899871
57724786 102 18196368126841305559
5951187 136 18129107710092523654
6058803 2 18268123423865025767
636783 54 18130798797958569497
7970288 3 9187483973118981131

> <PUBCHEM_SHAPE_MULTIPOLES>
616.92
19.14
8.05
0.99
5.56
1.73
0.06
-31.64
0.73
0.81
-1.22
-1.03
-0.63
-3.35

> <PUBCHEM_SHAPE_SELFOVERLAP>
1371.967

> <PUBCHEM_SHAPE_VOLUME>
330.3

> <PUBCHEM_COORDINATE_TYPE>
2
5
10

$$$$
