44352970
  -OEChem-10062121583D

 62 69  0     1  0  0  0  0  0999 V2000
    1.1758    1.9567    1.7551 O   0  0  0  0  0  0  0  0  0  0  0  0
    3.9789    1.3564   -0.6192 O   0  0  0  0  0  0  0  0  0  0  0  0
   -4.5304   -2.2495    0.6797 O   0  0  0  0  0  0  0  0  0  0  0  0
   -1.0913   -4.7512   -0.4533 O   0  0  0  0  0  0  0  0  0  0  0  0
    1.6020   -0.0661    0.6117 N   0  0  0  0  0  0  0  0  0  0  0  0
   -0.7659    1.7801    0.5084 N   0  0  0  0  0  0  0  0  0  0  0  0
    1.4086    1.7069   -1.8888 N   0  0  0  0  0  0  0  0  0  0  0  0
   -3.1472   -3.6495   -0.5764 N   0  0  0  0  0  0  0  0  0  0  0  0
    2.1922    1.1770    1.1175 C   0  0  1  0  0  0  0  0  0  0  0  0
    2.9330    2.0395    0.0551 C   0  0  2  0  0  0  0  0  0  0  0  0
    0.2938    2.6637    0.9136 C   0  0  2  0  0  0  0  0  0  0  0  0
    2.0071    2.6830   -0.9802 C   0  0  2  0  0  0  0  0  0  0  0  0
    0.9391    3.4613   -0.2231 C   0  0  0  0  0  0  0  0  0  0  0  0
    0.2959   -0.4498    0.3810 C   0  0  0  0  0  0  0  0  0  0  0  0
   -0.8276    0.4275    0.3434 C   0  0  0  0  0  0  0  0  0  0  0  0
   -0.0307   -1.8381    0.0924 C   0  0  0  0  0  0  0  0  0  0  0  0
   -2.1016   -0.1997    0.0642 C   0  0  0  0  0  0  0  0  0  0  0  0
    2.2777   -1.2788    0.3584 C   0  0  0  0  0  0  0  0  0  0  0  0
    3.1304    0.9060    2.3189 C   0  0  0  0  0  0  0  0  0  0  0  0
   -2.0946    2.1651    0.3096 C   0  0  0  0  0  0  0  0  0  0  0  0
   -2.3944   -1.5421   -0.1382 C   0  0  0  0  0  0  0  0  0  0  0  0
    1.3443   -2.3328    0.0958 C   0  0  0  0  0  0  0  0  0  0  0  0
   -1.2959   -2.3868   -0.1267 C   0  0  0  0  0  0  0  0  0  0  0  0
   -2.9031    1.0224    0.0578 C   0  0  0  0  0  0  0  0  0  0  0  0
   -3.6473   -2.3023   -0.4220 C   0  0  2  0  0  0  0  0  0  0  0  0
   -1.7703   -3.7448   -0.3993 C   0  0  0  0  0  0  0  0  0  0  0  0
    3.6621   -1.5691    0.3424 C   0  0  0  0  0  0  0  0  0  0  0  0
   -2.6611    3.4559    0.3396 C   0  0  0  0  0  0  0  0  0  0  0  0
    1.8655   -3.6327   -0.1447 C   0  0  0  0  0  0  0  0  0  0  0  0
   -4.2885    1.2249   -0.1638 C   0  0  0  0  0  0  0  0  0  0  0  0
    0.9513    2.3498   -3.1121 C   0  0  0  0  0  0  0  0  0  0  0  0
    4.9994    2.2505   -1.0440 C   0  0  0  0  0  0  0  0  0  0  0  0
    4.1246   -2.8627    0.0981 C   0  0  0  0  0  0  0  0  0  0  0  0
    3.2354   -3.8891   -0.1383 C   0  0  0  0  0  0  0  0  0  0  0  0
   -4.0308    3.6095    0.1178 C   0  0  0  0  0  0  0  0  0  0  0  0
   -4.8364    2.5091   -0.1306 C   0  0  0  0  0  0  0  0  0  0  0  0
    3.3770    2.8720    0.6245 H   0  0  0  0  0  0  0  0  0  0  0  0
   -0.1809    3.3949    1.5790 H   0  0  0  0  0  0  0  0  0  0  0  0
    2.5901    3.3982   -1.5722 H   0  0  0  0  0  0  0  0  0  0  0  0
    1.4425    4.3249    0.2352 H   0  0  0  0  0  0  0  0  0  0  0  0
    0.1812    3.8865   -0.8893 H   0  0  0  0  0  0  0  0  0  0  0  0
    2.6756    0.1995    3.0241 H   0  0  0  0  0  0  0  0  0  0  0  0
    3.3077    1.8301    2.8848 H   0  0  0  0  0  0  0  0  0  0  0  0
    4.1124    0.5265    2.0353 H   0  0  0  0  0  0  0  0  0  0  0  0
    2.1082    1.0066   -2.1355 H   0  0  0  0  0  0  0  0  0  0  0  0
   -4.1412   -1.9836   -1.3442 H   0  0  0  0  0  0  0  0  0  0  0  0
    4.4064   -0.7994    0.5054 H   0  0  0  0  0  0  0  0  0  0  0  0
   -2.0491    4.3330    0.5289 H   0  0  0  0  0  0  0  0  0  0  0  0
    1.2050   -4.4658   -0.3532 H   0  0  0  0  0  0  0  0  0  0  0  0
   -3.7395   -4.4472   -0.7845 H   0  0  0  0  0  0  0  0  0  0  0  0
   -4.9417    0.3801   -0.3658 H   0  0  0  0  0  0  0  0  0  0  0  0
    0.1518    3.0731   -2.9297 H   0  0  0  0  0  0  0  0  0  0  0  0
    0.5401    1.5871   -3.7814 H   0  0  0  0  0  0  0  0  0  0  0  0
    1.7710    2.8442   -3.6440 H   0  0  0  0  0  0  0  0  0  0  0  0
    5.8062    1.6518   -1.4770 H   0  0  0  0  0  0  0  0  0  0  0  0
    5.4134    2.8079   -0.1977 H   0  0  0  0  0  0  0  0  0  0  0  0
    4.6452    2.9352   -1.8180 H   0  0  0  0  0  0  0  0  0  0  0  0
    5.1933   -3.0584    0.0922 H   0  0  0  0  0  0  0  0  0  0  0  0
    3.5991   -4.8944   -0.3295 H   0  0  0  0  0  0  0  0  0  0  0  0
   -4.4681    4.6042    0.1396 H   0  0  0  0  0  0  0  0  0  0  0  0
   -5.9006    2.6443   -0.3029 H   0  0  0  0  0  0  0  0  0  0  0  0
   -5.1916   -2.9488    0.5438 H   0  0  0  0  0  0  0  0  0  0  0  0
  1  9  1  0  0  0  0
  1 11  1  0  0  0  0
  2 10  1  0  0  0  0
  2 32  1  0  0  0  0
  3 25  1  0  0  0  0
  3 62  1  0  0  0  0
  4 26  2  0  0  0  0
  5  9  1  0  0  0  0
  5 14  1  0  0  0  0
  5 18  1  0  0  0  0
  6 11  1  0  0  0  0
  6 15  1  0  0  0  0
  6 20  1  0  0  0  0
  7 12  1  0  0  0  0
  7 31  1  0  0  0  0
  7 45  1  0  0  0  0
  8 25  1  0  0  0  0
  8 26  1  0  0  0  0
  8 50  1  0  0  0  0
  9 10  1  0  0  0  0
  9 19  1  0  0  0  0
 10 12  1  0  0  0  0
 10 37  1  0  0  0  0
 11 13  1  0  0  0  0
 11 38  1  0  0  0  0
 12 13  1  0  0  0  0
 12 39  1  0  0  0  0
 13 40  1  0  0  0  0
 13 41  1  0  0  0  0
 14 15  2  0  0  0  0
 14 16  1  0  0  0  0
 15 17  1  0  0  0  0
 16 22  1  0  0  0  0
 16 23  2  0  0  0  0
 17 21  2  0  0  0  0
 17 24  1  0  0  0  0
 18 22  1  0  0  0  0
 18 27  2  0  0  0  0
 19 42  1  0  0  0  0
 19 43  1  0  0  0  0
 19 44  1  0  0  0  0
 20 24  1  0  0  0  0
 20 28  2  0  0  0  0
 21 23  1  0  0  0  0
 21 25  1  0  0  0  0
 22 29  2  0  0  0  0
 23 26  1  0  0  0  0
 24 30  2  0  0  0  0
 25 46  1  0  0  0  0
 27 33  1  0  0  0  0
 27 47  1  0  0  0  0
 28 35  1  0  0  0  0
 28 48  1  0  0  0  0
 29 34  1  0  0  0  0
 29 49  1  0  0  0  0
 30 36  1  0  0  0  0
 30 51  1  0  0  0  0
 31 52  1  0  0  0  0
 31 53  1  0  0  0  0
 31 54  1  0  0  0  0
 32 55  1  0  0  0  0
 32 56  1  0  0  0  0
 32 57  1  0  0  0  0
 33 34  2  0  0  0  0
 33 58  1  0  0  0  0
 34 59  1  0  0  0  0
 35 36  2  0  0  0  0
 35 60  1  0  0  0  0
 36 61  1  0  0  0  0
M  END
> <PUBCHEM_COMPOUND_CID>
44352970

> <PUBCHEM_CONFORMER_RMSD>
0.8

> <PUBCHEM_CONFORMER_DIVERSEORDER>
1
2

> <PUBCHEM_MMFF94_PARTIAL_CHARGES>
43
1 -0.56
10 0.28
11 0.54
12 0.27
14 -0.05
15 -0.05
16 -0.01
17 -0.01
18 -0.15
2 -0.56
20 -0.15
21 -0.14
23 0.09
25 0.72
26 0.54
27 -0.15
28 -0.15
29 -0.15
3 -0.68
30 -0.15
31 0.27
32 0.28
33 -0.15
34 -0.15
35 -0.15
36 -0.15
4 -0.57
45 0.36
47 0.15
48 0.15
49 0.15
5 -0.04
50 0.37
51 0.15
58 0.15
59 0.15
6 -0.04
60 0.15
61 0.15
62 0.4
7 -0.9
8 -0.73
9 0.54

> <PUBCHEM_EFFECTIVE_ROTOR_COUNT>
3.2

> <PUBCHEM_PHARMACOPHORE_FEATURES>
18
1 1 acceptor
1 2 acceptor
1 3 acceptor
1 3 donor
1 4 acceptor
1 5 cation
1 6 cation
1 7 cation
1 7 donor
1 8 donor
5 5 14 16 18 22 rings
5 6 15 17 20 24 rings
5 8 21 23 25 26 rings
6 1 9 10 11 12 13 rings
6 14 15 16 17 21 23 rings
6 18 22 27 29 33 34 rings
6 20 24 28 30 35 36 rings
7 1 5 6 9 11 14 15 rings

> <PUBCHEM_HEAVY_ATOM_COUNT>
36

> <PUBCHEM_ATOM_DEF_STEREO_COUNT>
5

> <PUBCHEM_ATOM_UDEF_STEREO_COUNT>
0

> <PUBCHEM_BOND_DEF_STEREO_COUNT>
0

> <PUBCHEM_BOND_UDEF_STEREO_COUNT>
0

> <PUBCHEM_ISOTOPIC_ATOM_COUNT>
0

> <PUBCHEM_COMPONENT_COUNT>
1

> <PUBCHEM_CACTVS_TAUTO_COUNT>
2

> <PUBCHEM_CONFORMER_ID>
02A4C5CA00000001

> <PUBCHEM_MMFF94_ENERGY>
149.9069

> <PUBCHEM_FEATURE_SELFOVERLAP>
92.541

> <PUBCHEM_SHAPE_FINGERPRINT>
10190108 129 17832461900213397627
10675989 125 17978496865618801221
10940486 97 18409449168040753574
1100329 8 18267583503039857355
11513181 2 18273492360169094663
11578080 2 17677310784516071815
12422481 6 18189034449025034760
12553582 1 17979066408268101979
12788726 201 18190455163533190195
13140716 1 18268980999614765691
14117953 113 17689997830039722764
14178342 30 18267846432500674152
14790565 3 17909271282262724208
15320467 1 18267303329395740387
15439362 3 18265051332236054180
16112460 7 18271819982394114345
16114785 44 16189955385175604808
19319366 153 16526358776117925026
19591789 44 17404298499617208354
20642791 178 18336551517191550954
20691752 17 17530959160061638224
20764821 26 18411133606716507071
20905425 154 18271250529148173262
22113638 7 18122621648076817223
22149856 69 18340776924084221953
23558518 356 18335413591086551771
23559900 14 18270109103129792986
244849 19 17417528129309358320
3178227 256 17979929211574115273
338550 245 18335704966120615173
340366 18 18189336771071353717
350125 39 18411705361727340707
469060 322 18122637312402444481
484985 159 15152983674002574794
484989 97 18338232670902891663
57527306 92 16373566946592145590

> <PUBCHEM_SHAPE_MULTIPOLES>
697.46
8.07
6.37
1.39
2.51
4.2
-0.54
-1.23
0.14
0.19
-1.35
-0.96
-1.43
-0.77

> <PUBCHEM_SHAPE_SELFOVERLAP>
1605.121

> <PUBCHEM_SHAPE_VOLUME>
357.7

> <PUBCHEM_COORDINATE_TYPE>
2
5
10

$$$$
