44410723
  -OEChem-10062122003D

 56 58  0     1  0  0  0  0  0999 V2000
    5.9823   -2.6250   -0.5941 Cl  0  0  0  0  0  0  0  0  0  0  0  0
    3.2462   -1.6981   -1.2139 F   0  0  0  0  0  0  0  0  0  0  0  0
   -4.1965    2.1364    0.4727 O   0  0  0  0  0  0  0  0  0  0  0  0
   -2.0116   -3.7327    1.5467 O   0  0  0  0  0  0  0  0  0  0  0  0
   -3.2536   -1.3178   -0.4017 N   0  0  2  0  0  0  0  0  0  0  0  0
   -1.2055   -3.3816   -0.5965 N   0  0  0  0  0  0  0  0  0  0  0  0
    1.9556    0.5298   -0.1970 N   0  0  0  0  0  0  0  0  0  0  0  0
   -0.0093    4.1552   -0.5508 N   0  0  0  0  0  0  0  0  0  0  0  0
    2.0099    2.8422   -0.6273 N   0  0  0  0  0  0  0  0  0  0  0  0
   -3.5311   -2.6910    0.0155 C   0  0  2  0  0  0  0  0  0  0  0  0
   -3.0321   -0.4632    0.7645 C   0  0  0  0  0  0  0  0  0  0  0  0
   -2.2351    0.7657    0.4158 C   0  0  0  0  0  0  0  0  0  0  0  0
   -4.5054   -2.6867    1.1924 C   0  0  0  0  0  0  0  0  0  0  0  0
   -2.1894   -3.3157    0.3970 C   0  0  0  0  0  0  0  0  0  0  0  0
   -4.3530   -0.7977   -1.2143 C   0  0  0  0  0  0  0  0  0  0  0  0
   -0.8617    0.6597    0.2202 C   0  0  0  0  0  0  0  0  0  0  0  0
   -2.8529    2.0046    0.2864 C   0  0  0  0  0  0  0  0  0  0  0  0
   -0.1081    1.8007   -0.1059 C   0  0  0  0  0  0  0  0  0  0  0  0
   -0.7205    3.0575   -0.2393 C   0  0  0  0  0  0  0  0  0  0  0  0
   -2.0965    3.1346   -0.0380 C   0  0  0  0  0  0  0  0  0  0  0  0
    1.2678    1.7633   -0.3144 C   0  0  0  0  0  0  0  0  0  0  0  0
    0.0927   -3.9646   -0.2793 C   0  0  0  0  0  0  0  0  0  0  0  0
   -1.3776   -2.9724   -1.9883 C   0  0  0  0  0  0  0  0  0  0  0  0
    1.3170    3.9880   -0.7279 C   0  0  0  0  0  0  0  0  0  0  0  0
    3.2665    0.2095    0.1895 C   0  0  0  0  0  0  0  0  0  0  0  0
   -4.7460    3.4435    0.3203 C   0  0  0  0  0  0  0  0  0  0  0  0
    3.8964   -0.9187   -0.3361 C   0  0  0  0  0  0  0  0  0  0  0  0
    3.9393    1.0224    1.1018 C   0  0  0  0  0  0  0  0  0  0  0  0
    5.1989   -1.2340    0.0506 C   0  0  0  0  0  0  0  0  0  0  0  0
    5.2417    0.7072    1.4885 C   0  0  0  0  0  0  0  0  0  0  0  0
    5.8717   -0.4211    0.9630 C   0  0  0  0  0  0  0  0  0  0  0  0
   -3.9532   -3.2963   -0.7960 H   0  0  0  0  0  0  0  0  0  0  0  0
   -2.4332   -0.9707    1.5338 H   0  0  0  0  0  0  0  0  0  0  0  0
   -3.9653   -0.1777    1.2680 H   0  0  0  0  0  0  0  0  0  0  0  0
   -4.0871   -2.3184    2.1353 H   0  0  0  0  0  0  0  0  0  0  0  0
   -4.8057   -3.7222    1.4004 H   0  0  0  0  0  0  0  0  0  0  0  0
   -5.4316   -2.1440    0.9794 H   0  0  0  0  0  0  0  0  0  0  0  0
   -4.5610   -1.4660   -2.0581 H   0  0  0  0  0  0  0  0  0  0  0  0
   -4.0818    0.1637   -1.6635 H   0  0  0  0  0  0  0  0  0  0  0  0
   -5.2845   -0.6578   -0.6559 H   0  0  0  0  0  0  0  0  0  0  0  0
   -0.3948   -0.3155    0.3333 H   0  0  0  0  0  0  0  0  0  0  0  0
   -2.5316    4.1236   -0.1504 H   0  0  0  0  0  0  0  0  0  0  0  0
    0.2049   -4.8981   -0.8386 H   0  0  0  0  0  0  0  0  0  0  0  0
    0.1958   -4.1773    0.7875 H   0  0  0  0  0  0  0  0  0  0  0  0
    0.8762   -3.2611   -0.5765 H   0  0  0  0  0  0  0  0  0  0  0  0
   -0.9148   -1.9899   -2.1182 H   0  0  0  0  0  0  0  0  0  0  0  0
   -2.4234   -2.9327   -2.2914 H   0  0  0  0  0  0  0  0  0  0  0  0
   -0.8730   -3.6935   -2.6392 H   0  0  0  0  0  0  0  0  0  0  0  0
    1.4816   -0.2345   -0.6709 H   0  0  0  0  0  0  0  0  0  0  0  0
    1.8843    4.8761   -0.9784 H   0  0  0  0  0  0  0  0  0  0  0  0
   -5.8226    3.3620    0.5036 H   0  0  0  0  0  0  0  0  0  0  0  0
   -4.6277    3.8154   -0.7031 H   0  0  0  0  0  0  0  0  0  0  0  0
   -4.3503    4.1388    1.0685 H   0  0  0  0  0  0  0  0  0  0  0  0
    3.4661    1.8985    1.5369 H   0  0  0  0  0  0  0  0  0  0  0  0
    5.7644    1.3382    2.2013 H   0  0  0  0  0  0  0  0  0  0  0  0
    6.8866   -0.6545    1.2744 H   0  0  0  0  0  0  0  0  0  0  0  0
  1 29  1  0  0  0  0
  2 27  1  0  0  0  0
  3 17  1  0  0  0  0
  3 26  1  0  0  0  0
  4 14  2  0  0  0  0
  5 10  1  0  0  0  0
  5 11  1  0  0  0  0
  5 15  1  0  0  0  0
  6 14  1  0  0  0  0
  6 22  1  0  0  0  0
  6 23  1  0  0  0  0
  7 21  1  0  0  0  0
  7 25  1  0  0  0  0
  7 49  1  0  0  0  0
  8 19  1  0  0  0  0
  8 24  2  0  0  0  0
  9 21  2  0  0  0  0
  9 24  1  0  0  0  0
 10 13  1  0  0  0  0
 10 14  1  0  0  0  0
 10 32  1  0  0  0  0
 11 12  1  0  0  0  0
 11 33  1  0  0  0  0
 11 34  1  0  0  0  0
 12 16  2  0  0  0  0
 12 17  1  0  0  0  0
 13 35  1  0  0  0  0
 13 36  1  0  0  0  0
 13 37  1  0  0  0  0
 15 38  1  0  0  0  0
 15 39  1  0  0  0  0
 15 40  1  0  0  0  0
 16 18  1  0  0  0  0
 16 41  1  0  0  0  0
 17 20  2  0  0  0  0
 18 19  2  0  0  0  0
 18 21  1  0  0  0  0
 19 20  1  0  0  0  0
 20 42  1  0  0  0  0
 22 43  1  0  0  0  0
 22 44  1  0  0  0  0
 22 45  1  0  0  0  0
 23 46  1  0  0  0  0
 23 47  1  0  0  0  0
 23 48  1  0  0  0  0
 24 50  1  0  0  0  0
 25 27  2  0  0  0  0
 25 28  1  0  0  0  0
 26 51  1  0  0  0  0
 26 52  1  0  0  0  0
 26 53  1  0  0  0  0
 27 29  1  0  0  0  0
 28 30  2  0  0  0  0
 28 54  1  0  0  0  0
 29 31  2  0  0  0  0
 30 31  1  0  0  0  0
 30 55  1  0  0  0  0
 31 56  1  0  0  0  0
M  END
> <PUBCHEM_COMPOUND_CID>
44410723

> <PUBCHEM_CONFORMER_RMSD>
1.2

> <PUBCHEM_CONFORMER_DIVERSEORDER>
1
83
24
40
41
71
7
17
47
55
96
88
57
114
112
26
8
115
51
64
93
32
110
95
60
107
56
68
46
80
81
84
4
25
75
79
29
101
13
15
61
53
33
31
92
59
66
74
39
19
105
70
35
5
97
16
6
14
99
10
113
22
69
91
103
43
62
72
111
20
36
11
21
45
104
37
86
48
23
38
2
49
50
65
63
100
18
58
28
67
34
9
82
89
106
77
109
54
94
27
42
78
44
3
87
76
12
90
98
108
52
102
73
30
85

> <PUBCHEM_MMFF94_PARTIAL_CHARGES>
36
1 -0.18
10 0.33
11 0.41
12 -0.14
14 0.57
15 0.27
16 -0.15
17 0.08
19 0.31
2 -0.19
20 -0.15
21 0.41
22 0.3
23 0.3
24 0.47
25 0.1
26 0.28
27 0.19
28 -0.15
29 0.18
3 -0.36
30 -0.15
31 -0.15
4 -0.57
41 0.15
42 0.15
49 0.4
5 -0.81
50 0.15
54 0.15
55 0.15
56 0.15
6 -0.66
7 -0.6
8 -0.62
9 -0.62

> <PUBCHEM_EFFECTIVE_ROTOR_COUNT>
8

> <PUBCHEM_PHARMACOPHORE_FEATURES>
9
1 3 acceptor
1 4 acceptor
1 5 cation
1 7 donor
3 7 9 21 cation
3 8 9 24 cation
6 12 16 17 18 19 20 rings
6 25 27 28 29 30 31 rings
6 8 9 18 19 21 24 rings

> <PUBCHEM_HEAVY_ATOM_COUNT>
31

> <PUBCHEM_ATOM_DEF_STEREO_COUNT>
1

> <PUBCHEM_ATOM_UDEF_STEREO_COUNT>
0

> <PUBCHEM_BOND_DEF_STEREO_COUNT>
0

> <PUBCHEM_BOND_UDEF_STEREO_COUNT>
0

> <PUBCHEM_ISOTOPIC_ATOM_COUNT>
0

> <PUBCHEM_COMPONENT_COUNT>
1

> <PUBCHEM_CACTVS_TAUTO_COUNT>
3

> <PUBCHEM_CONFORMER_ID>
02A5A76300000001

> <PUBCHEM_MMFF94_ENERGY>
116.9193

> <PUBCHEM_FEATURE_SELFOVERLAP>
45.843

> <PUBCHEM_SHAPE_FINGERPRINT>
10290309 65 17904757783136961568
1100329 8 18409170991504467633
11014199 57 18123466343911986486
11135609 12 18263077889341954761
11524674 6 17702371850226879758
11720765 8 16837654630436181031
12422481 6 18198088978571503435
12553582 1 18196660819707707926
13140716 1 18412834585807573273
13402501 40 18126571120003839734
14117953 113 18410857625308774141
14725015 67 17471574326286571443
14866123 147 18410295775104292347
15042514 8 18409451362320720080
15320467 1 18266179620308159162
15361156 5 18131071481526634284
15927050 60 18124872357770311757
17492 89 18265055910717748555
17627616 140 17901096426469554379
19141452 34 18339080389055594713
19315092 285 16340033246484087763
20028762 73 18342459210738227629
21033648 29 17917132958105020538
21421861 104 18049172360059769688
21796203 349 17901987271479679056
23559900 14 18193829573140645969
3383291 50 18408322190529928883
340366 18 18187368714146300101
354706 109 18127663042271293352
3882209 13 17406517752443433886
4073 2 18412823561037162818
5080951 261 18045469042363733928
508706 21 18339928117126677310
532947 4 17907019478797545669
613672 6 18264754610272460234

> <PUBCHEM_SHAPE_MULTIPOLES>
595.92
11.61
6.3
1.2
13.29
0.17
0.05
4.17
-2.47
-5.02
0.86
0.05
0.7
0.72

> <PUBCHEM_SHAPE_SELFOVERLAP>
1266.833

> <PUBCHEM_SHAPE_VOLUME>
335.9

> <PUBCHEM_COORDINATE_TYPE>
2
5
10

$$$$
