24905212
  -OEChem-10052115163D

 42 46  0     0  0  0  0  0  0999 V2000
   -2.1927   -0.1847    0.0386 N   0  0  0  0  0  0  0  0  0  0  0  0
   -1.0184   -0.8253   -0.1112 N   0  0  0  0  0  0  0  0  0  0  0  0
   -3.0602    2.0665    0.2436 N   0  0  0  0  0  0  0  0  0  0  0  0
   -1.2791    3.7310    0.1561 N   0  0  0  0  0  0  0  0  0  0  0  0
    1.0206    3.1467   -0.1029 N   0  0  0  0  0  0  0  0  0  0  0  0
    4.4102   -0.8780    1.5607 N   0  0  0  0  0  0  0  0  0  0  0  0
   -3.4732   -0.9850    0.1224 C   0  0  0  0  0  0  0  0  0  0  0  0
   -3.5296   -1.9811    1.2993 C   0  0  0  0  0  0  0  0  0  0  0  0
   -3.7298   -1.8217   -1.1437 C   0  0  0  0  0  0  0  0  0  0  0  0
   -3.6568   -3.3627    0.6672 C   0  0  0  0  0  0  0  0  0  0  0  0
   -4.3870   -3.0966   -0.6373 C   0  0  0  0  0  0  0  0  0  0  0  0
   -2.0700    1.1717    0.0985 C   0  0  0  0  0  0  0  0  0  0  0  0
   -0.7173    1.4384   -0.0208 C   0  0  0  0  0  0  0  0  0  0  0  0
   -0.1239    0.1685   -0.1467 C   0  0  0  0  0  0  0  0  0  0  0  0
    1.2730   -0.1328   -0.3003 C   0  0  0  0  0  0  0  0  0  0  0  0
   -0.3309    2.7742    0.0119 C   0  0  0  0  0  0  0  0  0  0  0  0
    2.0586   -0.3404    0.8370 C   0  0  0  0  0  0  0  0  0  0  0  0
    1.8231   -0.2132   -1.5781 C   0  0  0  0  0  0  0  0  0  0  0  0
    3.4137   -0.6312    0.6433 C   0  0  0  0  0  0  0  0  0  0  0  0
   -2.5665    3.3234    0.2615 C   0  0  0  0  0  0  0  0  0  0  0  0
    3.9922   -0.7183   -0.6250 C   0  0  0  0  0  0  0  0  0  0  0  0
    3.1804   -0.5047   -1.7567 C   0  0  0  0  0  0  0  0  0  0  0  0
    5.3684   -1.0268   -0.4359 C   0  0  0  0  0  0  0  0  0  0  0  0
    5.5950   -1.1180    0.9181 C   0  0  0  0  0  0  0  0  0  0  0  0
   -4.2697   -0.2409    0.2448 H   0  0  0  0  0  0  0  0  0  0  0  0
   -4.4235   -1.7742    1.9006 H   0  0  0  0  0  0  0  0  0  0  0  0
   -2.6646   -1.9201    1.9674 H   0  0  0  0  0  0  0  0  0  0  0  0
   -2.7978   -2.0687   -1.6655 H   0  0  0  0  0  0  0  0  0  0  0  0
   -4.3702   -1.2907   -1.8554 H   0  0  0  0  0  0  0  0  0  0  0  0
   -4.1933   -4.0654    1.3110 H   0  0  0  0  0  0  0  0  0  0  0  0
   -2.6611   -3.7753    0.4655 H   0  0  0  0  0  0  0  0  0  0  0  0
   -4.2899   -3.9237   -1.3461 H   0  0  0  0  0  0  0  0  0  0  0  0
   -5.4537   -2.9262   -0.4499 H   0  0  0  0  0  0  0  0  0  0  0  0
    1.6428   -0.2801    1.8385 H   0  0  0  0  0  0  0  0  0  0  0  0
    1.2058   -0.0498   -2.4593 H   0  0  0  0  0  0  0  0  0  0  0  0
   -3.2996    4.1147    0.3758 H   0  0  0  0  0  0  0  0  0  0  0  0
    3.5963   -0.5642   -2.7584 H   0  0  0  0  0  0  0  0  0  0  0  0
    1.7491    2.4565   -0.2110 H   0  0  0  0  0  0  0  0  0  0  0  0
    1.2582    4.1292   -0.0742 H   0  0  0  0  0  0  0  0  0  0  0  0
    4.2842   -0.8814    2.5635 H   0  0  0  0  0  0  0  0  0  0  0  0
    6.1139   -1.1666   -1.2067 H   0  0  0  0  0  0  0  0  0  0  0  0
    6.4927   -1.3323    1.4805 H   0  0  0  0  0  0  0  0  0  0  0  0
  1  2  1  0  0  0  0
  1  7  1  0  0  0  0
  1 12  1  0  0  0  0
  2 14  2  0  0  0  0
  3 12  2  0  0  0  0
  3 20  1  0  0  0  0
  4 16  1  0  0  0  0
  4 20  2  0  0  0  0
  5 16  1  0  0  0  0
  5 38  1  0  0  0  0
  5 39  1  0  0  0  0
  6 19  1  0  0  0  0
  6 24  1  0  0  0  0
  6 40  1  0  0  0  0
  7  8  1  0  0  0  0
  7  9  1  0  0  0  0
  7 25  1  0  0  0  0
  8 10  1  0  0  0  0
  8 26  1  0  0  0  0
  8 27  1  0  0  0  0
  9 11  1  0  0  0  0
  9 28  1  0  0  0  0
  9 29  1  0  0  0  0
 10 11  1  0  0  0  0
 10 30  1  0  0  0  0
 10 31  1  0  0  0  0
 11 32  1  0  0  0  0
 11 33  1  0  0  0  0
 12 13  1  0  0  0  0
 13 14  1  0  0  0  0
 13 16  2  0  0  0  0
 14 15  1  0  0  0  0
 15 17  2  0  0  0  0
 15 18  1  0  0  0  0
 17 19  1  0  0  0  0
 17 34  1  0  0  0  0
 18 22  2  0  0  0  0
 18 35  1  0  0  0  0
 19 21  2  0  0  0  0
 20 36  1  0  0  0  0
 21 22  1  0  0  0  0
 21 23  1  0  0  0  0
 22 37  1  0  0  0  0
 23 24  2  0  0  0  0
 23 41  1  0  0  0  0
 24 42  1  0  0  0  0
M  END
> <PUBCHEM_COMPOUND_CID>
24905212

> <PUBCHEM_CONFORMER_RMSD>
0.6

> <PUBCHEM_CONFORMER_DIVERSEORDER>
1
4
12
15
8
9
16
13
7
5
6
3
11
10
14
2

> <PUBCHEM_MMFF94_PARTIAL_CHARGES>
27
1 0.31
12 0.11
14 0.23
15 0.05
16 0.41
17 -0.15
18 -0.15
19 -0.15
2 -0.71
20 0.47
22 -0.15
23 -0.15
24 -0.3
3 -0.57
34 0.15
35 0.15
36 0.15
37 0.15
38 0.4
39 0.4
4 -0.62
40 0.27
41 0.15
42 0.15
5 -0.9
6 0.03
7 0.26

> <PUBCHEM_EFFECTIVE_ROTOR_COUNT>
3

> <PUBCHEM_PHARMACOPHORE_FEATURES>
12
1 2 acceptor
1 5 cation
1 5 donor
1 6 cation
1 6 donor
3 1 3 12 cation
3 3 4 20 cation
5 1 2 12 13 14 rings
5 6 19 21 23 24 rings
5 7 8 9 10 11 rings
6 15 17 18 19 21 22 rings
6 3 4 12 13 16 20 rings

> <PUBCHEM_HEAVY_ATOM_COUNT>
24

> <PUBCHEM_ATOM_DEF_STEREO_COUNT>
0

> <PUBCHEM_ATOM_UDEF_STEREO_COUNT>
0

> <PUBCHEM_BOND_DEF_STEREO_COUNT>
0

> <PUBCHEM_BOND_UDEF_STEREO_COUNT>
0

> <PUBCHEM_ISOTOPIC_ATOM_COUNT>
0

> <PUBCHEM_COMPONENT_COUNT>
1

> <PUBCHEM_CACTVS_TAUTO_COUNT>
9

> <PUBCHEM_CONFORMER_ID>
017C05FC00000001

> <PUBCHEM_MMFF94_ENERGY>
53.0044

> <PUBCHEM_FEATURE_SELFOVERLAP>
61.269

> <PUBCHEM_SHAPE_FINGERPRINT>
10319926 262 18198042709305509506
10411042 1 18339360889559596919
1100329 8 18410295796542777041
11056379 131 18339369565256209630
11265709 11 18410012173897301715
11370993 144 16844745122339816563
11545043 162 18129944477887198306
11578080 2 17677311909903225820
12035758 1 18270981050711563297
12236239 1 17604722049442652532
12363563 72 18338521957723974431
12553582 1 18338531836270165423
12788726 201 18262815058908102182
13052359 8 18263925441266701605
13140716 1 18340774814321173865
13583140 156 17845078594273226222
13782708 43 17775011150968749590
14178342 30 18264773168789378934
14787075 74 18043251443290282392
14844126 61 18408602531065535227
15042514 8 18338524045235907121
15099037 37 18343300353453080134
15131766 46 15867211227347896029
15250474 111 18116421549854413506
15842332 3 17822876198701328644
16992727 255 18044356263861939573
17349148 13 17894353280643982186
17539 30 18412536596886824805
1813 80 18200323245980350807
18222031 100 18200312246326577663
18927931 339 18341335526190497662
200 152 17675925404260137218
20101258 96 18410303522576720625
20832881 197 18188773985091782387
21033648 29 17417511524743680898
21065201 7 18270684143658959838
21304303 282 17902485126935337189
2132832 1 18186804707641025412
21452121 199 18266459991303733693
21728266 224 18334849494445323554
23366157 5 17900831749141554525
23402539 116 18411414003640686750
23419403 2 18046034276543808244
23557571 272 18201443510921561164
23559900 14 18336815502597247737
314173 85 18343026618202927287
3178227 256 18264223426773373537
463206 1 18189051074211168771
5104073 3 18342452622036311000
57527293 21 18060422443055657806
58779409 54 18410286978826835645
6669772 16 17402621139264421316
6673363 416 18268445688979226404
7471813 234 18335700602238670572
7970288 3 18338516468619406063
9709674 26 18127977395238719334
9981440 41 17687188586890967665

> <PUBCHEM_SHAPE_MULTIPOLES>
464.02
10.26
4.02
1.22
8.53
3.07
-0.16
-9.52
1.09
-6.08
0.41
0.8
-0.61
-0.41

> <PUBCHEM_SHAPE_SELFOVERLAP>
1046.855

> <PUBCHEM_SHAPE_VOLUME>
243

> <PUBCHEM_COORDINATE_TYPE>
2
5
10

$$$$
