11502867
  -OEChem-10062121563D

 51 54  0     1  0  0  0  0  0999 V2000
    6.3669   -2.9681    1.3316 Cl  0  0  0  0  0  0  0  0  0  0  0  0
    3.8773   -1.5357    2.0263 F   0  0  0  0  0  0  0  0  0  0  0  0
   -5.6823   -0.9159   -0.6214 O   0  0  0  0  0  0  0  0  0  0  0  0
   -3.6567    2.1511    0.3910 O   0  0  0  0  0  0  0  0  0  0  0  0
   -3.0784   -1.2186   -0.1405 N   0  0  2  0  0  0  0  0  0  0  0  0
   -6.2375   -2.5072    0.9449 N   0  0  0  0  0  0  0  0  0  0  0  0
    0.7047    3.8727   -0.4287 N   0  0  0  0  0  0  0  0  0  0  0  0
    2.4360    0.2132    0.4313 N   0  0  0  0  0  0  0  0  0  0  0  0
    2.6502    2.4691   -0.2011 N   0  0  0  0  0  0  0  0  0  0  0  0
   -3.9562   -2.3424    0.2032 C   0  0  2  0  0  0  0  0  0  0  0  0
   -3.6795   -3.4174   -0.8482 C   0  0  0  0  0  0  0  0  0  0  0  0
   -1.9446   -1.7850   -0.8719 C   0  0  0  0  0  0  0  0  0  0  0  0
   -2.6251   -2.8079   -1.7605 C   0  0  0  0  0  0  0  0  0  0  0  0
   -2.6542   -0.4479    1.0206 C   0  0  0  0  0  0  0  0  0  0  0  0
   -5.3628   -1.8447    0.1166 C   0  0  0  0  0  0  0  0  0  0  0  0
   -1.7658    0.7048    0.6345 C   0  0  0  0  0  0  0  0  0  0  0  0
   -2.3110    1.9422    0.3402 C   0  0  0  0  0  0  0  0  0  0  0  0
   -0.3959    0.5091    0.5784 C   0  0  0  0  0  0  0  0  0  0  0  0
    0.4428    1.5785    0.2191 C   0  0  0  0  0  0  0  0  0  0  0  0
   -1.4702    3.0006   -0.0162 C   0  0  0  0  0  0  0  0  0  0  0  0
   -0.0881    2.8429   -0.0838 C   0  0  0  0  0  0  0  0  0  0  0  0
    1.8275    1.4596    0.1406 C   0  0  0  0  0  0  0  0  0  0  0  0
   -4.1213    3.4606    0.0705 C   0  0  0  0  0  0  0  0  0  0  0  0
    2.0306    3.6299   -0.4685 C   0  0  0  0  0  0  0  0  0  0  0  0
    3.6106   -0.3988   -0.0340 C   0  0  0  0  0  0  0  0  0  0  0  0
    4.3231   -1.2782    0.7870 C   0  0  0  0  0  0  0  0  0  0  0  0
    4.0765   -0.1311   -1.3250 C   0  0  0  0  0  0  0  0  0  0  0  0
    5.4899   -1.8844    0.3216 C   0  0  0  0  0  0  0  0  0  0  0  0
    5.2433   -0.7372   -1.7905 C   0  0  0  0  0  0  0  0  0  0  0  0
    5.9500   -1.6138   -0.9671 C   0  0  0  0  0  0  0  0  0  0  0  0
   -3.7453   -2.7447    1.2023 H   0  0  0  0  0  0  0  0  0  0  0  0
   -4.5626   -3.7254   -1.4177 H   0  0  0  0  0  0  0  0  0  0  0  0
   -3.2646   -4.3086   -0.3616 H   0  0  0  0  0  0  0  0  0  0  0  0
   -1.2320   -2.2920   -0.2089 H   0  0  0  0  0  0  0  0  0  0  0  0
   -1.4173   -1.0508   -1.4882 H   0  0  0  0  0  0  0  0  0  0  0  0
   -1.9292   -3.5578   -2.1480 H   0  0  0  0  0  0  0  0  0  0  0  0
   -3.1081   -2.3153   -2.6136 H   0  0  0  0  0  0  0  0  0  0  0  0
   -2.1266   -1.0827    1.7468 H   0  0  0  0  0  0  0  0  0  0  0  0
   -3.5297   -0.0662    1.5614 H   0  0  0  0  0  0  0  0  0  0  0  0
    0.0098   -0.4691    0.8203 H   0  0  0  0  0  0  0  0  0  0  0  0
   -7.2191   -2.2525    0.9772 H   0  0  0  0  0  0  0  0  0  0  0  0
   -5.9466   -3.2734    1.5437 H   0  0  0  0  0  0  0  0  0  0  0  0
   -1.8408    3.9929   -0.2577 H   0  0  0  0  0  0  0  0  0  0  0  0
    2.0689   -0.2197    1.2745 H   0  0  0  0  0  0  0  0  0  0  0  0
   -3.7554    4.2061    0.7847 H   0  0  0  0  0  0  0  0  0  0  0  0
   -5.2125    3.4450    0.1620 H   0  0  0  0  0  0  0  0  0  0  0  0
   -3.8956    3.7273   -0.9676 H   0  0  0  0  0  0  0  0  0  0  0  0
    2.6638    4.4634   -0.7472 H   0  0  0  0  0  0  0  0  0  0  0  0
    3.5373    0.5369   -1.9916 H   0  0  0  0  0  0  0  0  0  0  0  0
    5.6000   -0.5291   -2.7950 H   0  0  0  0  0  0  0  0  0  0  0  0
    6.8571   -2.0793   -1.3438 H   0  0  0  0  0  0  0  0  0  0  0  0
  1 28  1  0  0  0  0
  2 26  1  0  0  0  0
  3 15  2  0  0  0  0
  4 17  1  0  0  0  0
  4 23  1  0  0  0  0
  5 10  1  0  0  0  0
  5 12  1  0  0  0  0
  5 14  1  0  0  0  0
  6 15  1  0  0  0  0
  6 41  1  0  0  0  0
  6 42  1  0  0  0  0
  7 21  1  0  0  0  0
  7 24  2  0  0  0  0
  8 22  1  0  0  0  0
  8 25  1  0  0  0  0
  8 44  1  0  0  0  0
  9 22  2  0  0  0  0
  9 24  1  0  0  0  0
 10 11  1  0  0  0  0
 10 15  1  0  0  0  0
 10 31  1  0  0  0  0
 11 13  1  0  0  0  0
 11 32  1  0  0  0  0
 11 33  1  0  0  0  0
 12 13  1  0  0  0  0
 12 34  1  0  0  0  0
 12 35  1  0  0  0  0
 13 36  1  0  0  0  0
 13 37  1  0  0  0  0
 14 16  1  0  0  0  0
 14 38  1  0  0  0  0
 14 39  1  0  0  0  0
 16 17  1  0  0  0  0
 16 18  2  0  0  0  0
 17 20  2  0  0  0  0
 18 19  1  0  0  0  0
 18 40  1  0  0  0  0
 19 21  2  0  0  0  0
 19 22  1  0  0  0  0
 20 21  1  0  0  0  0
 20 43  1  0  0  0  0
 23 45  1  0  0  0  0
 23 46  1  0  0  0  0
 23 47  1  0  0  0  0
 24 48  1  0  0  0  0
 25 26  2  0  0  0  0
 25 27  1  0  0  0  0
 26 28  1  0  0  0  0
 27 29  2  0  0  0  0
 27 49  1  0  0  0  0
 28 30  2  0  0  0  0
 29 30  1  0  0  0  0
 29 50  1  0  0  0  0
 30 51  1  0  0  0  0
M  END
> <PUBCHEM_COMPOUND_CID>
11502867

> <PUBCHEM_CONFORMER_RMSD>
0.8

> <PUBCHEM_CONFORMER_DIVERSEORDER>
1
294
329
333
331
261
228
191
47
165
50
157
343
222
275
45
243
279
55
312
154
163
92
197
198
128
332
153
221
12
186
349
311
17
195
305
336
177
133
13
211
235
144
183
131
321
193
287
351
256
257
63
54
352
270
330
111
296
72
171
309
103
227
317
301
277
212
48
288
339
347
340
274
187
116
20
308
138
313
248
208
218
348
88
67
258
152
168
284
310
101
215
8
250
52
4
346
107
304
291
16
325
49
127
231
167
303
53
61
259
172
161
245
262
135
78
350
249
280
96
84
241
146
286
342
209
298
189
320
122
247
3
326
155
223
120
242
185
307
239
322
71
29
299
74
334
56
28
22
143
318
123
217
276
202
237
199
166
252
225
206
97
323
66
46
255
93
91
58
70
269
251
207
109
324
314
335
338
90
27
32
315
188
42
184
117
141
178
169
149
232
182
112
25
300
7
151
254
295
164
226
285
240
34
119
114
319
75
89
60
43
77
302
176
86
214
125
142
95
147
139
229
344
236
234
118
213
132
266
292
31
297
204
134
100
271
283
337
108
150
181
11
41
59
201
113
180
230
38
81
265
268
21
5
290
205
121
106
83
9
278
272
263
267
224
148
282
194
238
18
174
233
244
115
64
57
220
196
26
19
76
316
51
102
44
281
6
260
69
175
130
160
82
293
14
341
145
327
328
170
159
264
137
40
219
99
200
179
158
35
129
192
289
345
110
87
105
79
33
253
85
173
124
98
136
10
162
37
210
126
2
306
15
36
73
23
62
140
65
39
94
104
30
203
190
216
246
273
68
24
156
80

> <PUBCHEM_MMFF94_PARTIAL_CHARGES>
36
1 -0.18
10 0.33
12 0.27
14 0.41
15 0.57
16 -0.14
17 0.08
18 -0.15
2 -0.19
20 -0.15
21 0.31
22 0.41
23 0.28
24 0.47
25 0.1
26 0.19
27 -0.15
28 0.18
29 -0.15
3 -0.57
30 -0.15
4 -0.36
40 0.15
41 0.37
42 0.37
43 0.15
44 0.4
48 0.15
49 0.15
5 -0.81
50 0.15
51 0.15
6 -0.8
7 -0.62
8 -0.6
9 -0.62

> <PUBCHEM_EFFECTIVE_ROTOR_COUNT>
7

> <PUBCHEM_PHARMACOPHORE_FEATURES>
11
1 3 acceptor
1 4 acceptor
1 5 cation
1 6 donor
1 8 donor
3 7 9 24 cation
3 8 9 22 cation
5 5 10 11 12 13 rings
6 16 17 18 19 20 21 rings
6 25 26 27 28 29 30 rings
6 7 9 19 21 22 24 rings

> <PUBCHEM_HEAVY_ATOM_COUNT>
30

> <PUBCHEM_ATOM_DEF_STEREO_COUNT>
1

> <PUBCHEM_ATOM_UDEF_STEREO_COUNT>
0

> <PUBCHEM_BOND_DEF_STEREO_COUNT>
0

> <PUBCHEM_BOND_UDEF_STEREO_COUNT>
0

> <PUBCHEM_ISOTOPIC_ATOM_COUNT>
0

> <PUBCHEM_COMPONENT_COUNT>
1

> <PUBCHEM_CACTVS_TAUTO_COUNT>
6

> <PUBCHEM_CONFORMER_ID>
00AF851300000001

> <PUBCHEM_MMFF94_ENERGY>
103.5575

> <PUBCHEM_FEATURE_SELFOVERLAP>
55.994

> <PUBCHEM_SHAPE_FINGERPRINT>
10050765 1 18410858780181073625
10483366 6 18266444440028885317
10622 236 17751628859177422882
11135926 11 17979908642411745292
12107183 9 18342470248682385131
12166972 35 17821731649925765102
12422481 6 17560812047480883039
12553582 1 18408325492863822586
13004483 165 18270399511838848073
13690498 29 18335995215320146060
13757389 114 18123201107827151813
14114206 34 17385722457066975856
14117953 113 18273218582322261487
14347332 77 18410858789081231167
14866123 147 18339364068183263665
15042514 8 18339922606371906273
15420108 30 17766572252901106193
16120349 21 18200048269689702579
17492 89 18337670935676115995
19319366 153 17533506625107579994
20511986 3 17750234691375956028
20775438 99 17904470058661238258
20775530 9 18343017834952212716
208703 8 18334854996393823706
21307412 95 17984436139163025268
21703447 108 18339636871083570192
23559900 14 18340198691597573561
23576562 1 18113626672732187341
397830 11 18058146390601279242
44062 13 18410858715818984180
44880168 125 17418100901468156766
5080951 261 18123722319836113758
5104073 3 18202283597855915320
513202 73 18335713749761402131
70251023 43 18335142054574129625
7970288 3 18409446973366024682

> <PUBCHEM_SHAPE_MULTIPOLES>
575.34
14.39
5.19
1.29
7.91
2.66
-0.11
-15.23
0.78
-3.64
-0.55
1.25
-0.95
-1.77

> <PUBCHEM_SHAPE_SELFOVERLAP>
1250.296

> <PUBCHEM_SHAPE_VOLUME>
315.7

> <PUBCHEM_COORDINATE_TYPE>
2
5
10

$$$$
