46905119
  -OEChem-10052115153D

 68 73  0     1  0  0  0  0  0999 V2000
    3.3269   -2.2912    1.0165 O   0  0  0  0  0  0  0  0  0  0  0  0
    1.4759    2.4798    0.0333 O   0  0  0  0  0  0  0  0  0  0  0  0
   -1.3144    2.5697    0.5423 O   0  0  0  0  0  0  0  0  0  0  0  0
    1.6156   -1.5804    2.4691 O   0  0  0  0  0  0  0  0  0  0  0  0
   -0.0689    0.6931   -1.3398 O   0  0  0  0  0  0  0  0  0  0  0  0
    3.1705    0.4840    3.3940 O   0  0  0  0  0  0  0  0  0  0  0  0
    4.3756   -1.5083    3.4486 O   0  0  0  0  0  0  0  0  0  0  0  0
   -0.5508    4.1435   -2.5513 O   0  0  0  0  0  0  0  0  0  0  0  0
   -2.6853    0.9945   -0.5176 O   0  0  0  0  0  0  0  0  0  0  0  0
    6.0752   -0.0615    1.9183 O   0  0  0  0  0  0  0  0  0  0  0  0
    3.2635    2.6853   -1.4181 O   0  0  0  0  0  0  0  0  0  0  0  0
    3.5294   -4.5093   -0.6992 O   0  0  0  0  0  0  0  0  0  0  0  0
   -1.9506    5.2937    1.5114 O   0  0  0  0  0  0  0  0  0  0  0  0
    0.7547    0.4281   -3.4788 O   0  0  0  0  0  0  0  0  0  0  0  0
    2.2618   -4.3678   -3.1739 O   0  0  0  0  0  0  0  0  0  0  0  0
   -4.0065    2.0985    1.0105 O   0  0  0  0  0  0  0  0  0  0  0  0
   -3.8280   -3.7647    0.1329 O   0  0  0  0  0  0  0  0  0  0  0  0
   -7.8437   -1.3618    1.1524 O   0  0  0  0  0  0  0  0  0  0  0  0
   -6.5331   -3.7647    0.7288 O   0  0  0  0  0  0  0  0  0  0  0  0
    2.2028   -0.1658    0.5882 C   0  0  2  0  0  0  0  0  0  0  0  0
    2.7364   -1.1484    1.6805 C   0  0  2  0  0  0  0  0  0  0  0  0
    2.0430   -1.1447   -0.5422 C   0  0  0  0  0  0  0  0  0  0  0  0
    3.7967   -0.5242    2.6092 C   0  0  0  0  0  0  0  0  0  0  0  0
    3.1582    0.9674    0.2663 C   0  0  0  0  0  0  0  0  0  0  0  0
    0.6592    3.5257   -0.5499 C   0  0  1  0  0  0  0  0  0  0  0  0
    0.1250    3.0662   -1.9128 C   0  0  1  0  0  0  0  0  0  0  0  0
   -0.8201    1.8652   -1.7541 C   0  0  2  0  0  0  0  0  0  0  0  0
    2.7328   -2.3124   -0.2167 C   0  0  0  0  0  0  0  0  0  0  0  0
   -0.4704    3.7292    0.4774 C   0  0  1  0  0  0  0  0  0  0  0  0
   -1.8926    2.1669   -0.6977 C   0  0  2  0  0  0  0  0  0  0  0  0
    1.4062   -1.0703   -1.7789 C   0  0  0  0  0  0  0  0  0  0  0  0
    4.8739    0.1310    1.7539 C   0  0  0  0  0  0  0  0  0  0  0  0
    4.4072    1.0988    0.7336 C   0  0  0  0  0  0  0  0  0  0  0  0
    2.6719    2.1404   -0.5021 C   0  0  0  0  0  0  0  0  0  0  0  0
    2.8349   -3.4014   -1.0652 C   0  0  0  0  0  0  0  0  0  0  0  0
   -1.2854    5.0059    0.2950 C   0  0  0  0  0  0  0  0  0  0  0  0
    0.6842    0.1033   -2.3022 C   0  0  0  0  0  0  0  0  0  0  0  0
    1.4933   -2.1709   -2.6539 C   0  0  0  0  0  0  0  0  0  0  0  0
    2.2006   -3.3259   -2.2980 C   0  0  0  0  0  0  0  0  0  0  0  0
   -3.7110    1.1028    0.3680 C   0  0  0  0  0  0  0  0  0  0  0  0
   -4.4545   -0.1787    0.4643 C   0  0  0  0  0  0  0  0  0  0  0  0
   -5.8162   -0.1750    0.7664 C   0  0  0  0  0  0  0  0  0  0  0  0
   -3.7908   -1.3871    0.2516 C   0  0  0  0  0  0  0  0  0  0  0  0
   -4.4887   -2.5915    0.3409 C   0  0  0  0  0  0  0  0  0  0  0  0
   -6.5142   -1.3794    0.8557 C   0  0  0  0  0  0  0  0  0  0  0  0
   -5.8504   -2.5876    0.6431 C   0  0  0  0  0  0  0  0  0  0  0  0
    1.2289    0.2257    0.9022 H   0  0  0  0  0  0  0  0  0  0  0  0
    1.2581    4.4400   -0.6357 H   0  0  0  0  0  0  0  0  0  0  0  0
    0.9669    2.7992   -2.5572 H   0  0  0  0  0  0  0  0  0  0  0  0
   -1.3328    1.6318   -2.6966 H   0  0  0  0  0  0  0  0  0  0  0  0
   -0.0082    3.7776    1.4726 H   0  0  0  0  0  0  0  0  0  0  0  0
   -2.5556    2.9549   -1.0730 H   0  0  0  0  0  0  0  0  0  0  0  0
    5.0673    1.9203    0.4811 H   0  0  0  0  0  0  0  0  0  0  0  0
    0.8449   -1.6831    1.8863 H   0  0  0  0  0  0  0  0  0  0  0  0
   -2.0401    4.9318   -0.4901 H   0  0  0  0  0  0  0  0  0  0  0  0
   -0.6265    5.8512    0.0723 H   0  0  0  0  0  0  0  0  0  0  0  0
    1.0054   -2.1310   -3.6266 H   0  0  0  0  0  0  0  0  0  0  0  0
    3.8717    1.0200    3.8019 H   0  0  0  0  0  0  0  0  0  0  0  0
    5.1772   -1.1263    3.8443 H   0  0  0  0  0  0  0  0  0  0  0  0
   -0.8725    3.8205   -3.4101 H   0  0  0  0  0  0  0  0  0  0  0  0
    3.8926   -4.3634    0.1917 H   0  0  0  0  0  0  0  0  0  0  0  0
   -2.4470    6.1194    1.3796 H   0  0  0  0  0  0  0  0  0  0  0  0
    1.7647   -4.1373   -3.9774 H   0  0  0  0  0  0  0  0  0  0  0  0
   -6.3361    0.7661    0.9297 H   0  0  0  0  0  0  0  0  0  0  0  0
   -2.7267   -1.4059    0.0279 H   0  0  0  0  0  0  0  0  0  0  0  0
   -2.8950   -3.5737   -0.0644 H   0  0  0  0  0  0  0  0  0  0  0  0
   -8.1315   -0.4397    1.2665 H   0  0  0  0  0  0  0  0  0  0  0  0
   -5.9127   -4.4930    0.5516 H   0  0  0  0  0  0  0  0  0  0  0  0
  1 21  1  0  0  0  0
  1 28  1  0  0  0  0
  2 25  1  0  0  0  0
  2 34  1  0  0  0  0
  3 29  1  0  0  0  0
  3 30  1  0  0  0  0
  4 21  1  0  0  0  0
  4 54  1  0  0  0  0
  5 27  1  0  0  0  0
  5 37  1  0  0  0  0
  6 23  1  0  0  0  0
  6 58  1  0  0  0  0
  7 23  1  0  0  0  0
  7 59  1  0  0  0  0
  8 26  1  0  0  0  0
  8 60  1  0  0  0  0
  9 30  1  0  0  0  0
  9 40  1  0  0  0  0
 10 32  2  0  0  0  0
 11 34  2  0  0  0  0
 12 35  1  0  0  0  0
 12 61  1  0  0  0  0
 13 36  1  0  0  0  0
 13 62  1  0  0  0  0
 14 37  2  0  0  0  0
 15 39  1  0  0  0  0
 15 63  1  0  0  0  0
 16 40  2  0  0  0  0
 17 44  1  0  0  0  0
 17 66  1  0  0  0  0
 18 45  1  0  0  0  0
 18 67  1  0  0  0  0
 19 46  1  0  0  0  0
 19 68  1  0  0  0  0
 20 21  1  0  0  0  0
 20 22  1  0  0  0  0
 20 24  1  0  0  0  0
 20 47  1  0  0  0  0
 21 23  1  0  0  0  0
 22 28  2  0  0  0  0
 22 31  1  0  0  0  0
 23 32  1  0  0  0  0
 24 33  2  0  0  0  0
 24 34  1  0  0  0  0
 25 26  1  0  0  0  0
 25 29  1  0  0  0  0
 25 48  1  0  0  0  0
 26 27  1  0  0  0  0
 26 49  1  0  0  0  0
 27 30  1  0  0  0  0
 27 50  1  0  0  0  0
 28 35  1  0  0  0  0
 29 36  1  0  0  0  0
 29 51  1  0  0  0  0
 30 52  1  0  0  0  0
 31 37  1  0  0  0  0
 31 38  2  0  0  0  0
 32 33  1  0  0  0  0
 33 53  1  0  0  0  0
 35 39  2  0  0  0  0
 36 55  1  0  0  0  0
 36 56  1  0  0  0  0
 38 39  1  0  0  0  0
 38 57  1  0  0  0  0
 40 41  1  0  0  0  0
 41 42  2  0  0  0  0
 41 43  1  0  0  0  0
 42 45  1  0  0  0  0
 42 64  1  0  0  0  0
 43 44  2  0  0  0  0
 43 65  1  0  0  0  0
 44 46  1  0  0  0  0
 45 46  2  0  0  0  0
M  END
> <PUBCHEM_COMPOUND_CID>
46905119

> <PUBCHEM_CONFORMER_RMSD>
1

> <PUBCHEM_CONFORMER_DIVERSEORDER>
1
18
34
30
29
32
8
16
20
26
9
12
28
15
27
14
37
22
33
17
31
24
10
36
4
6
21
7
39
11
3
25
38
2
23
19
13
35
5

> <PUBCHEM_MMFF94_PARTIAL_CHARGES>
60
1 -0.36
10 -0.57
11 -0.57
12 -0.53
13 -0.68
14 -0.57
15 -0.53
16 -0.57
17 -0.53
18 -0.53
19 -0.53
2 -0.43
20 0.28
21 0.56
22 -0.14
23 0.62
24 -0.12
25 0.28
26 0.28
27 0.28
28 0.08
29 0.28
3 -0.56
30 0.56
31 0.09
32 0.49
33 -0.14
34 0.71
35 0.08
36 0.28
37 0.63
38 -0.15
39 0.08
4 -0.68
40 0.63
41 0.09
42 -0.15
43 -0.15
44 0.08
45 0.08
46 0.08
5 -0.43
53 0.15
54 0.4
57 0.15
58 0.4
59 0.4
6 -0.68
60 0.4
61 0.45
62 0.4
63 0.45
64 0.15
65 0.15
66 0.45
67 0.45
68 0.45
7 -0.68
8 -0.68
9 -0.43

> <PUBCHEM_EFFECTIVE_ROTOR_COUNT>
5.6

> <PUBCHEM_PHARMACOPHORE_FEATURES>
26
1 1 acceptor
1 10 acceptor
1 11 acceptor
1 12 donor
1 13 acceptor
1 13 donor
1 14 acceptor
1 15 donor
1 16 acceptor
1 17 donor
1 18 donor
1 19 donor
1 3 acceptor
1 4 acceptor
1 4 donor
1 6 acceptor
1 6 donor
1 7 acceptor
1 7 donor
1 8 acceptor
1 8 donor
5 1 20 21 22 28 rings
6 20 21 23 24 32 33 rings
6 22 28 31 35 38 39 rings
6 3 25 26 27 29 30 rings
6 41 42 43 44 45 46 rings

> <PUBCHEM_HEAVY_ATOM_COUNT>
46

> <PUBCHEM_ATOM_DEF_STEREO_COUNT>
5

> <PUBCHEM_ATOM_UDEF_STEREO_COUNT>
2

> <PUBCHEM_BOND_DEF_STEREO_COUNT>
0

> <PUBCHEM_BOND_UDEF_STEREO_COUNT>
0

> <PUBCHEM_ISOTOPIC_ATOM_COUNT>
0

> <PUBCHEM_COMPONENT_COUNT>
1

> <PUBCHEM_CACTVS_TAUTO_COUNT>
840

> <PUBCHEM_CONFORMER_ID>
02CBB71F00000001

> <PUBCHEM_MMFF94_ENERGY>
134.3188

> <PUBCHEM_FEATURE_SELFOVERLAP>
132.523

> <PUBCHEM_SHAPE_FINGERPRINT>
10169797 241 17535777383450878403
10439779 11 18194688292122923855
11763715 3 16879919526453139620
12047536 79 17273990038793132513
12166972 35 16877936170342361171
131258 38 17608351764869622250
13636023 51 17987796294068657691
14068700 675 17822560660291761064
14705955 166 17268909083396450081
15200665 1 17690856562155517673
15264996 154 18119546559041715647
15484559 13 17534925261559641404
15927050 60 17116920764626283693
17974551 9 16985473711570341625
18603816 31 15653491189635504274
19315092 285 16444724143712851672
1979834 28 18201722881337987867
22121540 332 18060139825955575214
22223350 30 17836657322550704227
25222932 49 17968087655309240306
255183 313 17843941836857702370
463206 1 18189339150852092049
469060 322 17699810112413971485
4756261 7 18123178276144100426
50009960 94 17825370033119165651
50080093 196 18194675093657294447
613672 6 18411411788033232485
6823239 73 18200053792585083285

> <PUBCHEM_SHAPE_MULTIPOLES>
835.14
12.56
6.46
3
21.66
2.82
0.29
-11.56
-9.41
1.71
2.27
-4.27
-1.04
1.45

> <PUBCHEM_SHAPE_SELFOVERLAP>
1874.412

> <PUBCHEM_SHAPE_VOLUME>
429.6

> <PUBCHEM_COORDINATE_TYPE>
2
5
10

$$$$
