135421442
  -OEChem-10062122023D

 69 73  0     0  0  0  0  0  0999 V2000
   -5.1406   -2.9853    0.0902 S   0  0  0  0  0  0  0  0  0  0  0  0
   -1.3714    4.1690    0.2759 O   0  0  0  0  0  0  0  0  0  0  0  0
   -5.3111   -4.3174   -0.4593 O   0  0  0  0  0  0  0  0  0  0  0  0
   -4.0327   -2.6903    0.9771 O   0  0  0  0  0  0  0  0  0  0  0  0
    5.7635   -1.7819   -0.2604 N   0  0  0  0  0  0  0  0  0  0  0  0
   -3.5070    3.3224   -0.1490 N   0  0  0  0  0  0  0  0  0  0  0  0
   -0.3974   -0.0994   -0.2613 N   0  0  0  0  0  0  0  0  0  0  0  0
   -5.2134   -1.8506   -1.2029 N   0  0  0  0  0  0  0  0  0  0  0  0
    6.9568   -2.5691   -0.6013 C   0  0  0  0  0  0  0  0  0  0  0  0
    6.0576   -0.8008    0.7936 C   0  0  0  0  0  0  0  0  0  0  0  0
    8.0948   -1.6667   -1.0810 C   0  0  0  0  0  0  0  0  0  0  0  0
    7.1662    0.1593    0.3597 C   0  0  0  0  0  0  0  0  0  0  0  0
    8.4262   -0.5960   -0.0478 C   0  0  0  0  0  0  0  0  0  0  0  0
    4.6702   -2.6622    0.1509 C   0  0  0  0  0  0  0  0  0  0  0  0
    3.3314   -1.9818    0.0424 C   0  0  0  0  0  0  0  0  0  0  0  0
    2.8985   -1.4858   -1.1873 C   0  0  0  0  0  0  0  0  0  0  0  0
    2.5227   -1.8504    1.1713 C   0  0  0  0  0  0  0  0  0  0  0  0
   -3.1252    1.1440   -0.4424 C   0  0  0  0  0  0  0  0  0  0  0  0
    1.6569   -0.8584   -1.2882 C   0  0  0  0  0  0  0  0  0  0  0  0
    1.2810   -1.2230    1.0704 C   0  0  0  0  0  0  0  0  0  0  0  0
   -1.8920    1.7997   -0.1705 C   0  0  0  0  0  0  0  0  0  0  0  0
    0.8481   -0.7270   -0.1595 C   0  0  0  0  0  0  0  0  0  0  0  0
   -4.1222    2.1217   -0.4234 C   0  0  0  0  0  0  0  0  0  0  0  0
   -0.5243    1.1890   -0.0817 C   0  0  0  0  0  0  0  0  0  0  0  0
   -2.1591    3.1379    0.0053 C   0  0  0  0  0  0  0  0  0  0  0  0
   -3.4901   -0.1917   -0.7038 C   0  0  0  0  0  0  0  0  0  0  0  0
   -4.8356   -0.4989   -0.9361 C   0  0  0  0  0  0  0  0  0  0  0  0
   -5.4712    1.8293   -0.6537 C   0  0  0  0  0  0  0  0  0  0  0  0
   -5.8093    0.4976   -0.9109 C   0  0  0  0  0  0  0  0  0  0  0  0
    0.6231    2.0806    0.2160 C   0  0  0  0  0  0  0  0  0  0  0  0
   -6.6472   -2.5834    0.9462 C   0  0  0  0  0  0  0  0  0  0  0  0
    1.0022    2.3122    1.5383 C   0  0  0  0  0  0  0  0  0  0  0  0
    1.3240    2.6863   -0.8268 C   0  0  0  0  0  0  0  0  0  0  0  0
   -6.8426   -3.4572    2.1649 C   0  0  0  0  0  0  0  0  0  0  0  0
    2.0823    3.1495    1.8177 C   0  0  0  0  0  0  0  0  0  0  0  0
    2.4040    3.5236   -0.5474 C   0  0  0  0  0  0  0  0  0  0  0  0
    2.7832    3.7552    0.7748 C   0  0  0  0  0  0  0  0  0  0  0  0
    6.7218   -3.2728   -1.4092 H   0  0  0  0  0  0  0  0  0  0  0  0
    7.2927   -3.1610    0.2604 H   0  0  0  0  0  0  0  0  0  0  0  0
    6.3542   -1.3026    1.7243 H   0  0  0  0  0  0  0  0  0  0  0  0
    5.1705   -0.1974    1.0192 H   0  0  0  0  0  0  0  0  0  0  0  0
    8.9856   -2.2712   -1.2856 H   0  0  0  0  0  0  0  0  0  0  0  0
    7.8097   -1.1869   -2.0260 H   0  0  0  0  0  0  0  0  0  0  0  0
    6.8157    0.7679   -0.4837 H   0  0  0  0  0  0  0  0  0  0  0  0
    7.3985    0.8507    1.1776 H   0  0  0  0  0  0  0  0  0  0  0  0
    8.8731   -1.0665    0.8366 H   0  0  0  0  0  0  0  0  0  0  0  0
    9.1684    0.1007   -0.4524 H   0  0  0  0  0  0  0  0  0  0  0  0
    4.8366   -3.0625    1.1601 H   0  0  0  0  0  0  0  0  0  0  0  0
    4.6162   -3.5387   -0.5100 H   0  0  0  0  0  0  0  0  0  0  0  0
    3.5147   -1.5862   -2.0770 H   0  0  0  0  0  0  0  0  0  0  0  0
    2.8472   -2.2315    2.1358 H   0  0  0  0  0  0  0  0  0  0  0  0
    1.3271   -0.4780   -2.2515 H   0  0  0  0  0  0  0  0  0  0  0  0
    0.6572   -1.1269    1.9554 H   0  0  0  0  0  0  0  0  0  0  0  0
   -2.7426   -0.9780   -0.7416 H   0  0  0  0  0  0  0  0  0  0  0  0
   -3.9835    4.2103   -0.0731 H   0  0  0  0  0  0  0  0  0  0  0  0
   -6.2300    2.6043   -0.6339 H   0  0  0  0  0  0  0  0  0  0  0  0
   -6.8528    0.2487   -1.0916 H   0  0  0  0  0  0  0  0  0  0  0  0
   -6.0336   -1.9410   -1.8176 H   0  0  0  0  0  0  0  0  0  0  0  0
   -6.5935   -1.5348    1.2514 H   0  0  0  0  0  0  0  0  0  0  0  0
   -7.4760   -2.7159    0.2445 H   0  0  0  0  0  0  0  0  0  0  0  0
    0.4626    1.8463    2.3587 H   0  0  0  0  0  0  0  0  0  0  0  0
    1.0369    2.5132   -1.8607 H   0  0  0  0  0  0  0  0  0  0  0  0
   -1.9223    4.9695    0.3279 H   0  0  0  0  0  0  0  0  0  0  0  0
   -6.8918   -4.5156    1.8897 H   0  0  0  0  0  0  0  0  0  0  0  0
   -7.7741   -3.1950    2.6757 H   0  0  0  0  0  0  0  0  0  0  0  0
   -6.0192   -3.3357    2.8760 H   0  0  0  0  0  0  0  0  0  0  0  0
    2.3775    3.3298    2.8472 H   0  0  0  0  0  0  0  0  0  0  0  0
    2.9498    3.9950   -1.3594 H   0  0  0  0  0  0  0  0  0  0  0  0
    3.6243    4.4069    0.9923 H   0  0  0  0  0  0  0  0  0  0  0  0
  1  3  2  0  0  0  0
  1  4  2  0  0  0  0
  1  8  1  0  0  0  0
  1 31  1  0  0  0  0
  2 25  1  0  0  0  0
  2 63  1  0  0  0  0
  5  9  1  0  0  0  0
  5 10  1  0  0  0  0
  5 14  1  0  0  0  0
  6 23  1  0  0  0  0
  6 25  1  0  0  0  0
  6 55  1  0  0  0  0
  7 22  1  0  0  0  0
  7 24  2  0  0  0  0
  8 27  1  0  0  0  0
  8 58  1  0  0  0  0
  9 11  1  0  0  0  0
  9 38  1  0  0  0  0
  9 39  1  0  0  0  0
 10 12  1  0  0  0  0
 10 40  1  0  0  0  0
 10 41  1  0  0  0  0
 11 13  1  0  0  0  0
 11 42  1  0  0  0  0
 11 43  1  0  0  0  0
 12 13  1  0  0  0  0
 12 44  1  0  0  0  0
 12 45  1  0  0  0  0
 13 46  1  0  0  0  0
 13 47  1  0  0  0  0
 14 15  1  0  0  0  0
 14 48  1  0  0  0  0
 14 49  1  0  0  0  0
 15 16  2  0  0  0  0
 15 17  1  0  0  0  0
 16 19  1  0  0  0  0
 16 50  1  0  0  0  0
 17 20  2  0  0  0  0
 17 51  1  0  0  0  0
 18 21  1  0  0  0  0
 18 23  2  0  0  0  0
 18 26  1  0  0  0  0
 19 22  2  0  0  0  0
 19 52  1  0  0  0  0
 20 22  1  0  0  0  0
 20 53  1  0  0  0  0
 21 24  1  0  0  0  0
 21 25  2  0  0  0  0
 23 28  1  0  0  0  0
 24 30  1  0  0  0  0
 26 27  2  0  0  0  0
 26 54  1  0  0  0  0
 27 29  1  0  0  0  0
 28 29  2  0  0  0  0
 28 56  1  0  0  0  0
 29 57  1  0  0  0  0
 30 32  2  0  0  0  0
 30 33  1  0  0  0  0
 31 34  1  0  0  0  0
 31 59  1  0  0  0  0
 31 60  1  0  0  0  0
 32 35  1  0  0  0  0
 32 61  1  0  0  0  0
 33 36  2  0  0  0  0
 33 62  1  0  0  0  0
 34 64  1  0  0  0  0
 34 65  1  0  0  0  0
 34 66  1  0  0  0  0
 35 37  2  0  0  0  0
 35 67  1  0  0  0  0
 36 37  1  0  0  0  0
 36 68  1  0  0  0  0
 37 69  1  0  0  0  0
M  END
> <PUBCHEM_COMPOUND_CID>
135421442

> <PUBCHEM_CONFORMER_RMSD>
1

> <PUBCHEM_CONFORMER_DIVERSEORDER>
1
33
48
129
15
89
128
147
37
115
148
135
138
131
38
49
101
32
46
117
114
22
6
145
11
139
85
39
68
80
65
105
109
100
118
4
20
130
93
103
122
141
133
146
41
81
13
24
110
61
111
88
102
134
69
50
55
132
137
108
58
127
23
57
92
8
106
59
98
83
119
17
43
52
99
34
76
64
136
95
86
125
40
25
113
62
56
107
104
112
140
124
27
96
144
82
29
78
143
126
94
84
26
123
28
14
36
42
16
54
30
142
71
91
18
47
63
67
120
66
74
72
5
21
87
90
77
53
73
45
70
79
10
3
9
7
97
116
60
19
75
121
35
12
31
51
2
44

> <PUBCHEM_MMFF94_PARTIAL_CHARGES>
47
1 1.33
10 0.27
14 0.41
15 -0.14
16 -0.15
17 -0.15
19 -0.15
2 -0.51
20 -0.15
21 -0.09
22 0.18
23 -0.15
24 0.45
25 -0.09
26 -0.15
27 0.2
28 -0.15
29 -0.15
3 -0.65
30 0.09
31 0.11
32 -0.15
33 -0.15
35 -0.15
36 -0.15
37 -0.15
4 -0.65
5 -0.81
50 0.15
51 0.15
52 0.15
53 0.15
54 0.15
55 0.27
56 0.15
57 0.15
58 0.42
6 0.03
61 0.15
62 0.15
63 0.45
67 0.15
68 0.15
69 0.15
7 -0.63
8 -0.76
9 0.27

> <PUBCHEM_EFFECTIVE_ROTOR_COUNT>
9.2

> <PUBCHEM_PHARMACOPHORE_FEATURES>
13
1 2 donor
1 3 acceptor
1 4 acceptor
1 5 cation
1 6 cation
1 6 donor
1 7 acceptor
1 8 donor
5 6 18 21 23 25 rings
6 15 16 17 19 20 22 rings
6 18 23 26 27 28 29 rings
6 30 32 33 35 36 37 rings
6 5 9 10 11 12 13 rings

> <PUBCHEM_HEAVY_ATOM_COUNT>
37

> <PUBCHEM_ATOM_DEF_STEREO_COUNT>
0

> <PUBCHEM_ATOM_UDEF_STEREO_COUNT>
0

> <PUBCHEM_BOND_DEF_STEREO_COUNT>
0

> <PUBCHEM_BOND_UDEF_STEREO_COUNT>
0

> <PUBCHEM_ISOTOPIC_ATOM_COUNT>
0

> <PUBCHEM_COMPONENT_COUNT>
1

> <PUBCHEM_CACTVS_TAUTO_COUNT>
-1

> <PUBCHEM_CONFORMER_ID>
08125E0200000001

> <PUBCHEM_MMFF94_ENERGY>
87.7616

> <PUBCHEM_FEATURE_SELFOVERLAP>
66.125

> <PUBCHEM_SHAPE_FINGERPRINT>
10169797 241 18197794381836440566
11135609 12 18336545006121474321
11204353 107 18339634633442752790
11227688 84 18125988602448281349
11315621 136 18261391195460152005
117089 54 18337674225774441771
11828532 37 18413113862541185062
11963148 33 17977937218284929087
12522641 126 18189901001421038404
12857493 111 18337392750581622448
13140716 1 18412824673507889377
13383668 262 17531518910480897634
13690498 29 18334574638203068199
13811026 1 18412257364109687928
14856354 85 18270116807974009677
14955137 171 17988351612155565304
15183329 4 11023810761798104342
15361156 5 18200864098690985893
15392192 29 18342179939016163567
15444296 121 18341896230197366893
15448158 91 18273213127619038623
15927050 60 17841417435601920476
16067689 302 18340773740721410918
17686467 74 18409444791969998198
17909252 39 18338524135287932195
19611394 137 18413674612701620094
20028762 73 17334210629716750951
20567600 70 18411416189810357572
21796203 349 17988374766186919579
2260408 40 16629981969909459543
23559900 14 18339347605299733333
2747138 104 18342453742901390546
335352 9 18269263570715868541
3737641 26 18266182923691066259
4073 2 18338798901383821230
4144715 1 18197785388628343270
437795 163 18335142020689138278
4461854 278 18060143171076352983
484989 97 18408609188433440722
49967989 163 18335149665214915366
6673363 416 18341902892525521972
9962374 69 18200579376977371535

> <PUBCHEM_SHAPE_MULTIPOLES>
727.76
20.16
5.72
1.34
16.19
1.8
0.42
-21.11
-0.87
-4.65
1.32
-0.59
-0.31
3.09

> <PUBCHEM_SHAPE_SELFOVERLAP>
1567.991

> <PUBCHEM_SHAPE_VOLUME>
401.9

> <PUBCHEM_COORDINATE_TYPE>
2
5
10

$$$$
