49830582
  -OEChem-10062121523D

 34 36  0     0  0  0  0  0  0999 V2000
    1.7000    0.8703   -1.4581 F   0  0  0  0  0  0  0  0  0  0  0  0
   -1.0223   -4.0014   -0.3037 O   0  0  0  0  0  0  0  0  0  0  0  0
   -3.8339   -2.8157   -0.3885 O   0  0  0  0  0  0  0  0  0  0  0  0
    0.3079   -1.1945    0.5269 N   0  0  0  0  0  0  0  0  0  0  0  0
   -2.7919    0.1092    0.4324 N   0  0  0  0  0  0  0  0  0  0  0  0
   -1.3447    4.0261   -0.1603 N   0  0  0  0  0  0  0  0  0  0  0  0
   -0.9287   -1.5561    0.2822 C   0  0  0  0  0  0  0  0  0  0  0  0
   -2.1793   -1.0288    0.2444 C   0  0  0  0  0  0  0  0  0  0  0  0
    1.4364   -1.6677   -0.2451 C   0  0  0  0  0  0  0  0  0  0  0  0
   -1.4126   -2.8833   -0.0918 C   0  0  0  0  0  0  0  0  0  0  0  0
   -2.7727   -2.3097   -0.1328 C   0  0  0  0  0  0  0  0  0  0  0  0
    2.6273   -0.7931   -0.0408 C   0  0  0  0  0  0  0  0  0  0  0  0
   -2.3037    1.4300    0.2325 C   0  0  0  0  0  0  0  0  0  0  0  0
    2.6982    0.4505   -0.6682 C   0  0  0  0  0  0  0  0  0  0  0  0
    3.6710   -1.2209    0.7796 C   0  0  0  0  0  0  0  0  0  0  0  0
    3.8130    1.2665   -0.4753 C   0  0  0  0  0  0  0  0  0  0  0  0
    4.7859   -0.4050    0.9726 C   0  0  0  0  0  0  0  0  0  0  0  0
   -2.7825    2.4765    1.0129 C   0  0  0  0  0  0  0  0  0  0  0  0
   -1.3459    1.6801   -0.7441 C   0  0  0  0  0  0  0  0  0  0  0  0
    4.8569    0.8387    0.3452 C   0  0  0  0  0  0  0  0  0  0  0  0
   -2.2754    3.7446    0.7790 C   0  0  0  0  0  0  0  0  0  0  0  0
   -0.9029    2.9837   -0.8992 C   0  0  0  0  0  0  0  0  0  0  0  0
    1.6670   -2.7022    0.0385 H   0  0  0  0  0  0  0  0  0  0  0  0
    1.1924   -1.6906   -1.3158 H   0  0  0  0  0  0  0  0  0  0  0  0
    0.4737   -0.3068    0.9990 H   0  0  0  0  0  0  0  0  0  0  0  0
   -3.7931    0.1215    0.6209 H   0  0  0  0  0  0  0  0  0  0  0  0
    3.6288   -2.1864    1.2767 H   0  0  0  0  0  0  0  0  0  0  0  0
    3.8676    2.2349   -0.9637 H   0  0  0  0  0  0  0  0  0  0  0  0
    5.5984   -0.7378    1.6118 H   0  0  0  0  0  0  0  0  0  0  0  0
   -3.5289    2.3161    1.7836 H   0  0  0  0  0  0  0  0  0  0  0  0
   -0.9559    0.9026   -1.3913 H   0  0  0  0  0  0  0  0  0  0  0  0
    5.7247    1.4742    0.4955 H   0  0  0  0  0  0  0  0  0  0  0  0
   -2.6160    4.5949    1.3607 H   0  0  0  0  0  0  0  0  0  0  0  0
   -0.1596    3.2320   -1.6496 H   0  0  0  0  0  0  0  0  0  0  0  0
  1 14  1  0  0  0  0
  2 10  2  0  0  0  0
  3 11  2  0  0  0  0
  4  7  1  0  0  0  0
  4  9  1  0  0  0  0
  4 25  1  0  0  0  0
  5  8  1  0  0  0  0
  5 13  1  0  0  0  0
  5 26  1  0  0  0  0
  6 21  2  0  0  0  0
  6 22  1  0  0  0  0
  7  8  2  0  0  0  0
  7 10  1  0  0  0  0
  8 11  1  0  0  0  0
  9 12  1  0  0  0  0
  9 23  1  0  0  0  0
  9 24  1  0  0  0  0
 10 11  1  0  0  0  0
 12 14  1  0  0  0  0
 12 15  2  0  0  0  0
 13 18  2  0  0  0  0
 13 19  1  0  0  0  0
 14 16  2  0  0  0  0
 15 17  1  0  0  0  0
 15 27  1  0  0  0  0
 16 20  1  0  0  0  0
 16 28  1  0  0  0  0
 17 20  2  0  0  0  0
 17 29  1  0  0  0  0
 18 21  1  0  0  0  0
 18 30  1  0  0  0  0
 19 22  2  0  0  0  0
 19 31  1  0  0  0  0
 20 32  1  0  0  0  0
 21 33  1  0  0  0  0
 22 34  1  0  0  0  0
M  END
> <PUBCHEM_COMPOUND_CID>
49830582

> <PUBCHEM_CONFORMER_RMSD>
0.8

> <PUBCHEM_CONFORMER_DIVERSEORDER>
1
182
267
33
28
128
119
185
200
134
244
257
129
251
240
29
54
45
78
114
50
2
101
61
231
227
79
72
126
252
84
14
165
195
89
183
218
270
206
9
24
59
194
145
49
98
246
42
181
75
225
62
87
188
268
17
44
81
259
70
19
105
163
179
106
73
220
255
109
125
94
136
167
138
86
39
118
143
112
40
76
224
190
242
169
155
71
166
162
85
197
13
177
131
55
160
191
171
164
113
230
247
248
5
201
256
127
266
115
137
99
222
193
254
142
43
82
52
25
153
36
172
46
154
6
176
223
205
198
189
175
20
8
57
187
96
147
219
204
260
174
4
151
65
21
51
208
121
253
92
228
135
60
211
226
69
27
67
178
161
122
88
215
239
186
47
168
97
100
235
53
116
141
124
130
111
35
196
104
41
77
216
107
221
156
264
184
83
16
18
32
203
214
249
64
232
10
108
245
91
209
11
234
238
159
58
3
23
48
80
202
56
117
93
37
103
15
63
213
7
132
66
26
250
140
212
173
31
170
241
243
22
237
34
150
233
68
12
102
207
133
149
148
199
229
236
74
263
269
120
90
139
217
157
95
158
192
123
146
30
152
261
38
210
262
110
144
180
265
258

> <PUBCHEM_MMFF94_PARTIAL_CHARGES>
32
1 -0.19
10 0.64
11 0.64
12 -0.14
13 0.1
14 0.19
15 -0.15
16 -0.15
17 -0.15
18 -0.15
19 -0.15
2 -0.57
20 -0.15
21 0.16
22 0.16
25 0.4
26 0.4
27 0.15
28 0.15
29 0.15
3 -0.57
30 0.15
31 0.15
32 0.15
33 0.15
34 0.15
4 -0.87
5 -0.6
6 -0.62
7 0.03
8 0.03
9 0.51

> <PUBCHEM_EFFECTIVE_ROTOR_COUNT>
5

> <PUBCHEM_PHARMACOPHORE_FEATURES>
10
1 2 acceptor
1 3 acceptor
1 4 cation
1 4 donor
1 5 cation
1 5 donor
1 6 acceptor
4 7 8 10 11 rings
6 12 14 15 16 17 20 rings
6 6 13 18 19 21 22 rings

> <PUBCHEM_HEAVY_ATOM_COUNT>
22

> <PUBCHEM_ATOM_DEF_STEREO_COUNT>
0

> <PUBCHEM_ATOM_UDEF_STEREO_COUNT>
0

> <PUBCHEM_BOND_DEF_STEREO_COUNT>
0

> <PUBCHEM_BOND_UDEF_STEREO_COUNT>
0

> <PUBCHEM_ISOTOPIC_ATOM_COUNT>
0

> <PUBCHEM_COMPONENT_COUNT>
1

> <PUBCHEM_CACTVS_TAUTO_COUNT>
11

> <PUBCHEM_CONFORMER_ID>
02F85AB600000001

> <PUBCHEM_MMFF94_ENERGY>
67.8665

> <PUBCHEM_FEATURE_SELFOVERLAP>
50.747

> <PUBCHEM_SHAPE_FINGERPRINT>
10670039 82 18263093248841324612
1100329 8 18266466576047553377
11045515 52 18117549846178361927
11370993 70 18049718525423754296
12107183 9 17976248051039957178
12173636 292 18340768130982302327
12553582 1 18122083132292420279
12633257 1 18272942617319196944
12788726 201 18264501739556277926
13004483 165 18338788043637437811
13140716 1 18192720161427967314
138480 1 16465301185777266697
13965767 371 17683244664240461080
14081887 123 18340196492584750616
14178342 30 18336251363539642578
14790565 3 18268435642470316001
15442244 35 18261950744327158026
15961568 22 17980194516025959792
18785283 64 17402622848612886401
1979834 28 17760117041483078145
19930381 70 17402044999138599992
21524375 3 17973732376481688067
21731228 192 18120660123585549625
22182937 141 18270401577196099208
23402539 116 18270109240416298327
23557571 272 18270969049918823126
23558518 356 18335425603846548675
238 59 17033287014292008269
3117164 225 18048855444004736138
6438718 38 18131070428515588172
7064713 232 18265897951925843624
7097593 13 17970618594207334386
7164475 11 18410572898889228870
7471813 234 18051966219179827998
81228 2 18337684095387605467
9862522 239 17825941520918340204

> <PUBCHEM_SHAPE_MULTIPOLES>
418.79
7.84
4.98
0.96
9.47
0.45
-0.03
1.2
1.62
-6.39
-0.24
0.2
0.4
-0.96

> <PUBCHEM_SHAPE_SELFOVERLAP>
918.171

> <PUBCHEM_SHAPE_VOLUME>
225.4

> <PUBCHEM_COORDINATE_TYPE>
2
5
10

$$$$
