23433004
  -OEChem-10062121563D

 56 59  0     0  0  0  0  0  0999 V2000
   -6.2984   -0.3899    0.7301 O   0  0  0  0  0  0  0  0  0  0  0  0
    3.2534    1.1874    0.4498 N   0  0  0  0  0  0  0  0  0  0  0  0
    1.5925    3.4958    0.9708 N   0  0  0  0  0  0  0  0  0  0  0  0
    3.6901   -2.0516   -0.8674 N   0  0  0  0  0  0  0  0  0  0  0  0
    1.3747   -1.6045   -0.5258 N   0  0  0  0  0  0  0  0  0  0  0  0
   -0.7526    0.0648   -0.9167 N   0  0  0  0  0  0  0  0  0  0  0  0
   -2.1412   -1.2752    0.1860 N   0  0  0  0  0  0  0  0  0  0  0  0
   -4.5910   -1.8648    1.1396 N   0  0  0  0  0  0  0  0  0  0  0  0
    2.7683    1.4875    1.8026 C   0  0  0  0  0  0  0  0  0  0  0  0
    3.4016    2.4240   -0.3270 C   0  0  0  0  0  0  0  0  0  0  0  0
    1.4457    2.2598    1.7491 C   0  0  0  0  0  0  0  0  0  0  0  0
    2.0786    3.1956   -0.3815 C   0  0  0  0  0  0  0  0  0  0  0  0
    4.5157    0.4525    0.5022 C   0  0  0  0  0  0  0  0  0  0  0  0
    4.9506    0.0474   -0.9076 C   0  0  0  0  0  0  0  0  0  0  0  0
    0.3293    4.2291    0.9176 C   0  0  0  0  0  0  0  0  0  0  0  0
    3.9170   -0.8328   -1.6070 C   0  0  0  0  0  0  0  0  0  0  0  0
    2.4589   -2.4183   -0.3479 C   0  0  0  0  0  0  0  0  0  0  0  0
    0.1971   -2.0085    0.0013 C   0  0  0  0  0  0  0  0  0  0  0  0
    2.3656   -3.6273    0.3522 C   0  0  0  0  0  0  0  0  0  0  0  0
   -0.9015   -1.1066   -0.2236 C   0  0  0  0  0  0  0  0  0  0  0  0
   -1.9725    0.6898   -0.9557 C   0  0  0  0  0  0  0  0  0  0  0  0
   -2.8223   -0.1662   -0.2607 C   0  0  0  0  0  0  0  0  0  0  0  0
    0.0271   -3.1896    0.7053 C   0  0  0  0  0  0  0  0  0  0  0  0
    1.1370   -4.0089    0.8797 C   0  0  0  0  0  0  0  0  0  0  0  0
   -4.1750    0.1836   -0.1120 C   0  0  0  0  0  0  0  0  0  0  0  0
   -2.3929    1.8937   -1.5221 C   0  0  0  0  0  0  0  0  0  0  0  0
   -4.6194    1.3878   -0.6724 C   0  0  0  0  0  0  0  0  0  0  0  0
   -3.7423    2.2262   -1.3645 C   0  0  0  0  0  0  0  0  0  0  0  0
   -5.0942   -0.6807    0.6055 C   0  0  0  0  0  0  0  0  0  0  0  0
    2.5979    0.5528    2.3506 H   0  0  0  0  0  0  0  0  0  0  0  0
    3.5121    2.0667    2.3664 H   0  0  0  0  0  0  0  0  0  0  0  0
    4.1870    3.0646    0.0964 H   0  0  0  0  0  0  0  0  0  0  0  0
    3.6653    2.2223   -1.3692 H   0  0  0  0  0  0  0  0  0  0  0  0
    1.1468    2.5023    2.7762 H   0  0  0  0  0  0  0  0  0  0  0  0
    0.6613    1.6195    1.3245 H   0  0  0  0  0  0  0  0  0  0  0  0
    1.3352    2.6160   -0.9454 H   0  0  0  0  0  0  0  0  0  0  0  0
    2.2465    4.1307   -0.9297 H   0  0  0  0  0  0  0  0  0  0  0  0
    5.3074    1.0580    0.9625 H   0  0  0  0  0  0  0  0  0  0  0  0
    4.4073   -0.4437    1.1247 H   0  0  0  0  0  0  0  0  0  0  0  0
    5.2132    0.9050   -1.5346 H   0  0  0  0  0  0  0  0  0  0  0  0
    5.8833   -0.5253   -0.8087 H   0  0  0  0  0  0  0  0  0  0  0  0
   -0.0048    4.4923    1.9273 H   0  0  0  0  0  0  0  0  0  0  0  0
   -0.4652    3.6519    0.4316 H   0  0  0  0  0  0  0  0  0  0  0  0
    0.4540    5.1710    0.3722 H   0  0  0  0  0  0  0  0  0  0  0  0
    2.9970   -0.2730   -1.8072 H   0  0  0  0  0  0  0  0  0  0  0  0
    4.3131   -1.1085   -2.5918 H   0  0  0  0  0  0  0  0  0  0  0  0
    4.4653   -2.6970   -0.7633 H   0  0  0  0  0  0  0  0  0  0  0  0
    3.2326   -4.2670    0.4889 H   0  0  0  0  0  0  0  0  0  0  0  0
    0.1045    0.4115   -1.3271 H   0  0  0  0  0  0  0  0  0  0  0  0
   -0.9321   -3.4869    1.1167 H   0  0  0  0  0  0  0  0  0  0  0  0
    1.0446   -4.9429    1.4258 H   0  0  0  0  0  0  0  0  0  0  0  0
   -1.7096    2.5432   -2.0575 H   0  0  0  0  0  0  0  0  0  0  0  0
   -5.6588    1.6945   -0.5789 H   0  0  0  0  0  0  0  0  0  0  0  0
   -4.1143    3.1556   -1.7888 H   0  0  0  0  0  0  0  0  0  0  0  0
   -5.2042   -2.4981    1.6426 H   0  0  0  0  0  0  0  0  0  0  0  0
   -3.6224   -2.1540    1.0630 H   0  0  0  0  0  0  0  0  0  0  0  0
  1 29  2  0  0  0  0
  2  9  1  0  0  0  0
  2 10  1  0  0  0  0
  2 13  1  0  0  0  0
  3 11  1  0  0  0  0
  3 12  1  0  0  0  0
  3 15  1  0  0  0  0
  4 16  1  0  0  0  0
  4 17  1  0  0  0  0
  4 47  1  0  0  0  0
  5 17  1  0  0  0  0
  5 18  2  0  0  0  0
  6 20  1  0  0  0  0
  6 21  1  0  0  0  0
  6 49  1  0  0  0  0
  7 20  2  0  0  0  0
  7 22  1  0  0  0  0
  8 29  1  0  0  0  0
  8 55  1  0  0  0  0
  8 56  1  0  0  0  0
  9 11  1  0  0  0  0
  9 30  1  0  0  0  0
  9 31  1  0  0  0  0
 10 12  1  0  0  0  0
 10 32  1  0  0  0  0
 10 33  1  0  0  0  0
 11 34  1  0  0  0  0
 11 35  1  0  0  0  0
 12 36  1  0  0  0  0
 12 37  1  0  0  0  0
 13 14  1  0  0  0  0
 13 38  1  0  0  0  0
 13 39  1  0  0  0  0
 14 16  1  0  0  0  0
 14 40  1  0  0  0  0
 14 41  1  0  0  0  0
 15 42  1  0  0  0  0
 15 43  1  0  0  0  0
 15 44  1  0  0  0  0
 16 45  1  0  0  0  0
 16 46  1  0  0  0  0
 17 19  2  0  0  0  0
 18 20  1  0  0  0  0
 18 23  1  0  0  0  0
 19 24  1  0  0  0  0
 19 48  1  0  0  0  0
 21 22  1  0  0  0  0
 21 26  2  0  0  0  0
 22 25  2  0  0  0  0
 23 24  2  0  0  0  0
 23 50  1  0  0  0  0
 24 51  1  0  0  0  0
 25 27  1  0  0  0  0
 25 29  1  0  0  0  0
 26 28  1  0  0  0  0
 26 52  1  0  0  0  0
 27 28  2  0  0  0  0
 27 53  1  0  0  0  0
 28 54  1  0  0  0  0
M  END
> <PUBCHEM_COMPOUND_CID>
23433004

> <PUBCHEM_CONFORMER_RMSD>
1

> <PUBCHEM_CONFORMER_DIVERSEORDER>
1
137
116
271
129
82
182
219
110
79
232
256
76
250
195
77
148
201
216
248
27
242
28
123
12
46
162
98
180
127
47
124
196
48
115
191
207
194
167
62
87
71
173
172
80
166
174
133
29
101
145
239
88
7
258
185
225
72
149
106
15
95
285
128
283
159
24
154
97
231
52
151
226
293
57
208
247
246
32
138
38
278
235
120
181
113
56
146
26
175
42
236
134
35
108
111
140
144
63
112
102
143
158
39
237
223
109
289
230
156
183
130
273
224
142
31
126
105
65
94
199
238
78
66
96
153
59
157
286
49
222
160
161
253
118
276
100
186
197
13
184
264
169
209
67
136
73
170
64
8
255
211
53
44
188
30
121
69
249
288
254
104
178
2
215
150
84
212
22
204
189
89
36
177
221
132
11
206
164
291
58
70
294
229
99
214
107
122
74
91
240
165
10
176
218
19
220
279
203
233
103
135
210
269
192
274
171
272
86
114
75
125
50
265
139
33
4
23
20
193
282
55
147
292
198
268
155
90
6
152
9
163
43
243
119
141
227
270
261
45
200
263
85
259
3
17
54
284
41
14
92
281
190
5
40
290
187
37
131
287
257
60
179
51
18
217
262
83
202
117
244
245
213
168
61
275
280
251
267
81
25
252
205
68
34
277
266
228
260
21
241
93
234
16

> <PUBCHEM_MMFF94_PARTIAL_CHARGES>
38
1 -0.57
10 0.27
11 0.27
12 0.27
13 0.27
15 0.27
16 0.37
17 0.41
18 0.36
19 -0.15
2 -0.81
20 0.13
21 -0.15
22 0.23
23 -0.15
24 -0.15
25 0.09
26 -0.15
27 -0.15
28 -0.15
29 0.54
3 -0.81
4 -0.87
47 0.4
48 0.15
49 0.27
5 -0.62
50 0.15
51 0.15
52 0.15
53 0.15
54 0.15
55 0.37
56 0.37
6 0.03
7 -0.57
8 -0.8
9 0.27

> <PUBCHEM_EFFECTIVE_ROTOR_COUNT>
8.2

> <PUBCHEM_PHARMACOPHORE_FEATURES>
13
1 1 acceptor
1 2 cation
1 3 cation
1 4 cation
1 4 donor
1 5 acceptor
1 6 donor
1 8 donor
3 6 7 20 cation
5 6 7 20 21 22 rings
6 2 3 9 10 11 12 rings
6 21 22 25 26 27 28 rings
6 5 17 18 19 23 24 rings

> <PUBCHEM_HEAVY_ATOM_COUNT>
29

> <PUBCHEM_ATOM_DEF_STEREO_COUNT>
0

> <PUBCHEM_ATOM_UDEF_STEREO_COUNT>
0

> <PUBCHEM_BOND_DEF_STEREO_COUNT>
0

> <PUBCHEM_BOND_UDEF_STEREO_COUNT>
0

> <PUBCHEM_ISOTOPIC_ATOM_COUNT>
0

> <PUBCHEM_COMPONENT_COUNT>
1

> <PUBCHEM_CACTVS_TAUTO_COUNT>
16

> <PUBCHEM_CONFORMER_ID>
01658F2C00000001

> <PUBCHEM_MMFF94_ENERGY>
68.1878

> <PUBCHEM_FEATURE_SELFOVERLAP>
66.081

> <PUBCHEM_SHAPE_FINGERPRINT>
10165383 225 18261684752543733654
10190206 1 18194992694399108124
10675989 125 18339638937263759800
11578080 2 16444729564167164439
11595378 159 16805597054088077679
11646440 116 18272933813189588680
12769317 202 18337946810052662342
12788726 201 17550662210514858645
12925494 130 18265891355367974609
13402501 40 18410012165170223556
13561361 72 18118967137904148451
13583140 156 18410568458172243503
140371 6 17400915298107079175
14114211 80 18052843595236301916
14931854 50 18268713801557668828
150020 26 18264745745117213521
151778 21 18194119839831041320
15210252 30 18333736784815817268
17093844 170 18340476799763048704
1768 85 18270124655180004569
18608769 82 18336553831709736998
19930381 70 18410571786355218025
23558518 356 17766540723277036734
23559900 14 18042965376766861183
3298306 158 18410004442534032989
3524813 1 18335420162538923918
508706 21 18336539529363074886
5104073 3 17897451592889410331
5265222 85 18191030212842838964
552612 73 18117278056780503077
5776283 40 18046365269079630876
59755656 215 18407755933266787141
7471813 234 17692788421080383118
7808743 9 18044101370226365390
9777508 108 18193277622535413042

> <PUBCHEM_SHAPE_MULTIPOLES>
556.07
10.44
5.16
1.42
9.3
0.18
-0.1
0.23
0.73
-3.73
-1.63
-0.36
0.62
2.06

> <PUBCHEM_SHAPE_SELFOVERLAP>
1197.342

> <PUBCHEM_SHAPE_VOLUME>
306.3

> <PUBCHEM_COORDINATE_TYPE>
2
5
10

$$$$
