10483429
  -OEChem-10062121583D

 72 80  0     1  0  0  0  0  0999 V2000
    0.1287   -0.2593   -2.4303 O   0  0  0  0  0  0  0  0  0  0  0  0
    1.3079    0.5404    0.5917 O   0  0  0  0  0  0  0  0  0  0  0  0
   -5.5728    2.6268    1.2036 O   0  0  0  0  0  0  0  0  0  0  0  0
   -5.9361   -1.9562    1.3573 O   0  0  0  0  0  0  0  0  0  0  0  0
    4.6297    1.3381   -1.0048 O   0  0  0  0  0  0  0  0  0  0  0  0
   -0.6823    1.3615   -0.9690 N   0  0  0  0  0  0  0  0  0  0  0  0
   -0.9324   -1.6211   -0.8741 N   0  0  0  0  0  0  0  0  0  0  0  0
    3.6965   -0.7180   -0.3959 N   0  0  0  0  0  0  0  0  0  0  0  0
   -6.0923    0.3680    1.4503 N   0  0  0  0  0  0  0  0  0  0  0  0
    0.4961    0.9110   -1.6954 C   0  0  1  0  0  0  0  0  0  0  0  0
    1.7292    0.7109   -0.7690 C   0  0  2  0  0  0  0  0  0  0  0  0
    2.5052   -0.5346   -1.1884 C   0  0  2  0  0  0  0  0  0  0  0  0
    0.2169   -1.4797   -1.7379 C   0  0  2  0  0  0  0  0  0  0  0  0
    1.5788   -1.7421   -1.0796 C   0  0  0  0  0  0  0  0  0  0  0  0
   -1.7809    0.6786   -0.5044 C   0  0  0  0  0  0  0  0  0  0  0  0
   -1.8954   -0.7453   -0.4523 C   0  0  0  0  0  0  0  0  0  0  0  0
   -2.9079    1.4037    0.0551 C   0  0  0  0  0  0  0  0  0  0  0  0
    0.8749    1.8439   -2.8703 C   0  0  0  0  0  0  0  0  0  0  0  0
   -3.1230   -1.2489    0.1413 C   0  0  0  0  0  0  0  0  0  0  0  0
   -0.9707    2.6645   -0.5424 C   0  0  0  0  0  0  0  0  0  0  0  0
   -1.4795   -2.8532   -0.5010 C   0  0  0  0  0  0  0  0  0  0  0  0
   -2.3057    2.7360   -0.0346 C   0  0  0  0  0  0  0  0  0  0  0  0
   -2.7655   -2.6705    0.0864 C   0  0  0  0  0  0  0  0  0  0  0  0
   -4.0982    0.8712    0.5377 C   0  0  0  0  0  0  0  0  0  0  0  0
   -4.2067   -0.5026    0.5881 C   0  0  0  0  0  0  0  0  0  0  0  0
   -0.1552    3.8167   -0.5443 C   0  0  0  0  0  0  0  0  0  0  0  0
   -0.9316   -4.1433   -0.6632 C   0  0  0  0  0  0  0  0  0  0  0  0
   -2.7890    4.0097    0.3634 C   0  0  0  0  0  0  0  0  0  0  0  0
    3.7852   -1.9746    0.3561 C   0  0  0  0  0  0  0  0  0  0  0  0
   -5.3146    1.4449    1.0956 C   0  0  0  0  0  0  0  0  0  0  0  0
   -5.4966   -0.8393    1.1723 C   0  0  0  0  0  0  0  0  0  0  0  0
   -3.4559   -3.8351    0.5097 C   0  0  0  0  0  0  0  0  0  0  0  0
    4.6862    0.2795   -0.3803 C   0  0  0  0  0  0  0  0  0  0  0  0
    2.4161    0.3682    1.4664 C   0  0  0  0  0  0  0  0  0  0  0  0
   -0.6726    5.0450   -0.1320 C   0  0  0  0  0  0  0  0  0  0  0  0
   -1.9812    5.1461    0.3009 C   0  0  0  0  0  0  0  0  0  0  0  0
   -1.6511   -5.2571   -0.2327 C   0  0  0  0  0  0  0  0  0  0  0  0
   -2.8986   -5.1067    0.3483 C   0  0  0  0  0  0  0  0  0  0  0  0
    5.8838    0.0769    0.4506 C   0  0  0  0  0  0  0  0  0  0  0  0
    6.9918   -0.5525   -0.0955 C   0  0  0  0  0  0  0  0  0  0  0  0
    5.8829    0.5194    1.7643 C   0  0  0  0  0  0  0  0  0  0  0  0
    8.1271   -0.7443    0.6917 C   0  0  0  0  0  0  0  0  0  0  0  0
    7.0184    0.3276    2.5516 C   0  0  0  0  0  0  0  0  0  0  0  0
    8.1404   -0.3043    2.0153 C   0  0  0  0  0  0  0  0  0  0  0  0
    2.3247    1.6284   -0.7919 H   0  0  0  0  0  0  0  0  0  0  0  0
    2.8364   -0.4162   -2.2284 H   0  0  0  0  0  0  0  0  0  0  0  0
    0.0805   -2.2440   -2.5137 H   0  0  0  0  0  0  0  0  0  0  0  0
    2.0390   -2.6143   -1.5618 H   0  0  0  0  0  0  0  0  0  0  0  0
    1.3534   -2.0347   -0.0514 H   0  0  0  0  0  0  0  0  0  0  0  0
    1.5664    1.3388   -3.5570 H   0  0  0  0  0  0  0  0  0  0  0  0
   -0.0098    2.1063   -3.4637 H   0  0  0  0  0  0  0  0  0  0  0  0
    1.3640    2.7692   -2.5640 H   0  0  0  0  0  0  0  0  0  0  0  0
    0.8856    3.7733   -0.8438 H   0  0  0  0  0  0  0  0  0  0  0  0
    0.0453   -4.2833   -1.1170 H   0  0  0  0  0  0  0  0  0  0  0  0
   -3.7946    4.1258    0.7513 H   0  0  0  0  0  0  0  0  0  0  0  0
    4.0118   -2.7693   -0.3643 H   0  0  0  0  0  0  0  0  0  0  0  0
    2.9188   -2.2779    0.9395 H   0  0  0  0  0  0  0  0  0  0  0  0
    4.6232   -1.9593    1.0566 H   0  0  0  0  0  0  0  0  0  0  0  0
   -4.4337   -3.7647    0.9726 H   0  0  0  0  0  0  0  0  0  0  0  0
    3.2239    1.0581    1.2587 H   0  0  0  0  0  0  0  0  0  0  0  0
    2.5995   -0.6402    1.8005 H   0  0  0  0  0  0  0  0  0  0  0  0
    2.0409    0.7930    2.4108 H   0  0  0  0  0  0  0  0  0  0  0  0
   -7.0127    0.4553    1.8666 H   0  0  0  0  0  0  0  0  0  0  0  0
   -0.0379    5.9269   -0.1479 H   0  0  0  0  0  0  0  0  0  0  0  0
   -2.3758    6.1064    0.6205 H   0  0  0  0  0  0  0  0  0  0  0  0
   -1.2274   -6.2502   -0.3552 H   0  0  0  0  0  0  0  0  0  0  0  0
   -3.4503   -5.9812    0.6819 H   0  0  0  0  0  0  0  0  0  0  0  0
    6.9889   -0.8984   -1.1254 H   0  0  0  0  0  0  0  0  0  0  0  0
    5.0395    1.0322    2.2087 H   0  0  0  0  0  0  0  0  0  0  0  0
    9.0008   -1.2362    0.2742 H   0  0  0  0  0  0  0  0  0  0  0  0
    7.0311    0.6744    3.5808 H   0  0  0  0  0  0  0  0  0  0  0  0
    9.0248   -0.4526    2.6280 H   0  0  0  0  0  0  0  0  0  0  0  0
  1 10  1  0  0  0  0
  1 13  1  0  0  0  0
  2 11  1  0  0  0  0
  2 34  1  0  0  0  0
  3 30  2  0  0  0  0
  4 31  2  0  0  0  0
  5 33  2  0  0  0  0
  6 10  1  0  0  0  0
  6 15  1  0  0  0  0
  6 20  1  0  0  0  0
  7 13  1  0  0  0  0
  7 16  1  0  0  0  0
  7 21  1  0  0  0  0
  8 12  1  0  0  0  0
  8 29  1  0  0  0  0
  8 33  1  0  0  0  0
  9 30  1  0  0  0  0
  9 31  1  0  0  0  0
  9 63  1  0  0  0  0
 10 11  1  0  0  0  0
 10 18  1  0  0  0  0
 11 12  1  0  0  0  0
 11 45  1  0  0  0  0
 12 14  1  0  0  0  0
 12 46  1  0  0  0  0
 13 14  1  0  0  0  0
 13 47  1  0  0  0  0
 14 48  1  0  0  0  0
 14 49  1  0  0  0  0
 15 16  2  0  0  0  0
 15 17  1  0  0  0  0
 16 19  1  0  0  0  0
 17 22  1  0  0  0  0
 17 24  2  0  0  0  0
 18 50  1  0  0  0  0
 18 51  1  0  0  0  0
 18 52  1  0  0  0  0
 19 23  1  0  0  0  0
 19 25  2  0  0  0  0
 20 22  1  0  0  0  0
 20 26  2  0  0  0  0
 21 23  1  0  0  0  0
 21 27  2  0  0  0  0
 22 28  2  0  0  0  0
 23 32  2  0  0  0  0
 24 25  1  0  0  0  0
 24 30  1  0  0  0  0
 25 31  1  0  0  0  0
 26 35  1  0  0  0  0
 26 53  1  0  0  0  0
 27 37  1  0  0  0  0
 27 54  1  0  0  0  0
 28 36  1  0  0  0  0
 28 55  1  0  0  0  0
 29 56  1  0  0  0  0
 29 57  1  0  0  0  0
 29 58  1  0  0  0  0
 32 38  1  0  0  0  0
 32 59  1  0  0  0  0
 33 39  1  0  0  0  0
 34 60  1  0  0  0  0
 34 61  1  0  0  0  0
 34 62  1  0  0  0  0
 35 36  2  0  0  0  0
 35 64  1  0  0  0  0
 36 65  1  0  0  0  0
 37 38  2  0  0  0  0
 37 66  1  0  0  0  0
 38 67  1  0  0  0  0
 39 40  2  0  0  0  0
 39 41  1  0  0  0  0
 40 42  1  0  0  0  0
 40 68  1  0  0  0  0
 41 43  2  0  0  0  0
 41 69  1  0  0  0  0
 42 44  2  0  0  0  0
 42 70  1  0  0  0  0
 43 44  1  0  0  0  0
 43 71  1  0  0  0  0
 44 72  1  0  0  0  0
M  END
> <PUBCHEM_COMPOUND_CID>
10483429

> <PUBCHEM_CONFORMER_RMSD>
1

> <PUBCHEM_CONFORMER_DIVERSEORDER>
4
1
3
2
5

> <PUBCHEM_MMFF94_PARTIAL_CHARGES>
54
1 -0.56
10 0.54
11 0.28
12 0.3
13 0.54
15 -0.05
16 -0.05
17 -0.01
19 -0.01
2 -0.56
20 -0.15
21 -0.15
24 0.09
25 0.09
26 -0.15
27 -0.15
28 -0.15
29 0.3
3 -0.57
30 0.54
31 0.54
32 -0.15
33 0.54
34 0.28
35 -0.15
36 -0.15
37 -0.15
38 -0.15
39 0.09
4 -0.57
40 -0.15
41 -0.15
42 -0.15
43 -0.15
44 -0.15
5 -0.57
53 0.15
54 0.15
55 0.15
59 0.15
6 -0.04
63 0.37
64 0.15
65 0.15
66 0.15
67 0.15
68 0.15
69 0.15
7 -0.04
70 0.15
71 0.15
72 0.15
8 -0.66
9 -0.49

> <PUBCHEM_EFFECTIVE_ROTOR_COUNT>
5

> <PUBCHEM_PHARMACOPHORE_FEATURES>
17
1 1 acceptor
1 2 acceptor
1 3 acceptor
1 4 acceptor
1 5 acceptor
1 6 cation
1 7 cation
1 9 donor
5 6 15 17 20 22 rings
5 7 16 19 21 23 rings
5 9 24 25 30 31 rings
6 1 10 11 12 13 14 rings
6 15 16 17 19 24 25 rings
6 20 22 26 28 35 36 rings
6 21 23 27 32 37 38 rings
6 39 40 41 42 43 44 rings
7 1 6 7 10 13 15 16 rings

> <PUBCHEM_HEAVY_ATOM_COUNT>
44

> <PUBCHEM_ATOM_DEF_STEREO_COUNT>
4

> <PUBCHEM_ATOM_UDEF_STEREO_COUNT>
0

> <PUBCHEM_BOND_DEF_STEREO_COUNT>
0

> <PUBCHEM_BOND_UDEF_STEREO_COUNT>
0

> <PUBCHEM_ISOTOPIC_ATOM_COUNT>
0

> <PUBCHEM_COMPONENT_COUNT>
1

> <PUBCHEM_CACTVS_TAUTO_COUNT>
3

> <PUBCHEM_CONFORMER_ID>
009FF6E500000004

> <PUBCHEM_MMFF94_ENERGY>
230.7584

> <PUBCHEM_FEATURE_SELFOVERLAP>
87.228

> <PUBCHEM_SHAPE_FINGERPRINT>
10074138 170 18412536626408068826
10290309 65 18195525887790843518
10319926 262 18343022229305585182
10930396 42 18269254868104155640
1100329 8 18194415596243398079
11456790 92 18115322167681291619
12717326 150 15938906936480004946
12788726 201 18189641430133679364
13140716 1 18267313212426725309
14068700 675 17967536791452188688
14394314 77 18410296878837307185
14400156 162 18265055730472021922
14705955 166 17846502482805172601
14856354 85 18410852205308297614
15320294 125 18040998427420733855
15324884 4 17415034402082108495
15328829 1 17531828917194445846
15351339 4 17544774772773760652
15439362 3 17256239346221709933
15950262 2 15481570585212104443
16114785 44 18268976605810493789
16728300 4 17750224833998731331
21033648 29 18272377442778126099
22122407 14 16056603192064837346
23522609 53 17823719606193723228
24771293 8 18202008686427931065
3383291 50 18410857689686518595
3418910 222 18191014811633706816
3504750 166 18262785308102114010
3882209 13 17840006770404478495
3886686 26 18269833275945639881
392239 28 18335425690003974336
4403749 210 18336540508616008004
563151 248 18187366532408207538
6004065 56 18341896312434878429
6058803 2 17827093001618431741
6700243 42 17840624631661953214
9896288 288 18264770960986349896
9961470 85 17615692830541702197

> <PUBCHEM_SHAPE_MULTIPOLES>
856.23
15.7
6.25
1.8
30.69
0.33
0.27
2.08
-12.61
-9.85
0.24
1.63
-0.34
-0.22

> <PUBCHEM_SHAPE_SELFOVERLAP>
1981.535

> <PUBCHEM_SHAPE_VOLUME>
434.5

> <PUBCHEM_COORDINATE_TYPE>
2
5
10

$$$$
