24900160
  -OEChem-10062122023D

 32 33  0     0  0  0  0  0  0999 V2000
    3.6733   -1.6891    0.3318 O   0  0  0  0  0  0  0  0  0  0  0  0
   -3.6276    0.2834    2.1696 O   0  0  0  0  0  0  0  0  0  0  0  0
   -4.8719    0.1364   -0.3113 O   0  0  0  0  0  0  0  0  0  0  0  0
    3.2800    3.0544    0.1719 O   0  0  0  0  0  0  0  0  0  0  0  0
    1.3281   -2.7801   -0.9109 O   0  0  0  0  0  0  0  0  0  0  0  0
    0.0718   -2.4347    0.9516 O   0  0  0  0  0  0  0  0  0  0  0  0
   -0.7343    0.3709   -0.0626 C   0  0  0  0  0  0  0  0  0  0  0  0
    0.7095    0.4539    0.0463 C   0  0  0  0  0  0  0  0  0  0  0  0
   -1.3589    0.2977   -1.3076 C   0  0  0  0  0  0  0  0  0  0  0  0
    1.4970   -0.6937    0.1382 C   0  0  0  0  0  0  0  0  0  0  0  0
   -1.4999    0.3656    1.1033 C   0  0  0  0  0  0  0  0  0  0  0  0
    1.3084    1.7136    0.0578 C   0  0  0  0  0  0  0  0  0  0  0  0
   -2.7493    0.2195   -1.3868 C   0  0  0  0  0  0  0  0  0  0  0  0
    2.8835   -0.5817    0.2418 C   0  0  0  0  0  0  0  0  0  0  0  0
   -2.8903    0.2873    1.0240 C   0  0  0  0  0  0  0  0  0  0  0  0
   -0.5713    0.3009   -2.5786 C   0  0  0  0  0  0  0  0  0  0  0  0
   -3.5150    0.2143   -0.2210 C   0  0  0  0  0  0  0  0  0  0  0  0
    2.6949    1.8256    0.1612 C   0  0  0  0  0  0  0  0  0  0  0  0
    3.4825    0.6779    0.2530 C   0  0  0  0  0  0  0  0  0  0  0  0
    0.8896   -2.0222    0.1283 C   0  0  0  0  0  0  0  0  0  0  0  0
   -1.0168    0.4226    2.0768 H   0  0  0  0  0  0  0  0  0  0  0  0
    0.6989    2.6123   -0.0141 H   0  0  0  0  0  0  0  0  0  0  0  0
   -3.2405    0.1621   -2.3554 H   0  0  0  0  0  0  0  0  0  0  0  0
    0.0141    1.2214   -2.6710 H   0  0  0  0  0  0  0  0  0  0  0  0
    0.0977   -0.5643   -2.6246 H   0  0  0  0  0  0  0  0  0  0  0  0
   -1.2219    0.2480   -3.4587 H   0  0  0  0  0  0  0  0  0  0  0  0
    4.5625    0.7743    0.3330 H   0  0  0  0  0  0  0  0  0  0  0  0
    4.6036   -1.4126    0.3954 H   0  0  0  0  0  0  0  0  0  0  0  0
   -3.0280    0.3398    2.9332 H   0  0  0  0  0  0  0  0  0  0  0  0
   -5.1258    0.0931   -1.2491 H   0  0  0  0  0  0  0  0  0  0  0  0
    2.5881    3.7340    0.0998 H   0  0  0  0  0  0  0  0  0  0  0  0
    0.9156   -3.6702   -0.9137 H   0  0  0  0  0  0  0  0  0  0  0  0
  1 14  1  0  0  0  0
  1 28  1  0  0  0  0
  2 15  1  0  0  0  0
  2 29  1  0  0  0  0
  3 17  1  0  0  0  0
  3 30  1  0  0  0  0
  4 18  1  0  0  0  0
  4 31  1  0  0  0  0
  5 20  1  0  0  0  0
  5 32  1  0  0  0  0
  6 20  2  0  0  0  0
  7  8  1  0  0  0  0
  7  9  1  0  0  0  0
  7 11  2  0  0  0  0
  8 10  2  0  0  0  0
  8 12  1  0  0  0  0
  9 13  2  0  0  0  0
  9 16  1  0  0  0  0
 10 14  1  0  0  0  0
 10 20  1  0  0  0  0
 11 15  1  0  0  0  0
 11 21  1  0  0  0  0
 12 18  2  0  0  0  0
 12 22  1  0  0  0  0
 13 17  1  0  0  0  0
 13 23  1  0  0  0  0
 14 19  2  0  0  0  0
 15 17  2  0  0  0  0
 16 24  1  0  0  0  0
 16 25  1  0  0  0  0
 16 26  1  0  0  0  0
 18 19  1  0  0  0  0
 19 27  1  0  0  0  0
M  END
> <PUBCHEM_COMPOUND_CID>
24900160

> <PUBCHEM_CONFORMER_RMSD>
0.6

> <PUBCHEM_CONFORMER_DIVERSEORDER>
2
3
4
1

> <PUBCHEM_MMFF94_PARTIAL_CHARGES>
27
1 -0.53
10 0.09
11 -0.15
12 -0.15
13 -0.15
14 0.08
15 0.08
16 0.14
17 0.08
18 0.08
19 -0.15
2 -0.53
20 0.63
21 0.15
22 0.15
23 0.15
27 0.15
28 0.45
29 0.45
3 -0.53
30 0.45
31 0.45
32 0.5
4 -0.53
5 -0.65
6 -0.57
9 -0.14

> <PUBCHEM_EFFECTIVE_ROTOR_COUNT>
2

> <PUBCHEM_PHARMACOPHORE_FEATURES>
9
1 1 donor
1 2 donor
1 3 donor
1 4 donor
1 5 acceptor
1 6 acceptor
3 5 6 20 anion
6 7 9 11 13 15 17 rings
6 8 10 12 14 18 19 rings

> <PUBCHEM_HEAVY_ATOM_COUNT>
20

> <PUBCHEM_ATOM_DEF_STEREO_COUNT>
0

> <PUBCHEM_ATOM_UDEF_STEREO_COUNT>
0

> <PUBCHEM_BOND_DEF_STEREO_COUNT>
0

> <PUBCHEM_BOND_UDEF_STEREO_COUNT>
0

> <PUBCHEM_ISOTOPIC_ATOM_COUNT>
0

> <PUBCHEM_COMPONENT_COUNT>
1

> <PUBCHEM_CACTVS_TAUTO_COUNT>
333

> <PUBCHEM_CONFORMER_ID>
017BF24000000002

> <PUBCHEM_MMFF94_ENERGY>
66.134

> <PUBCHEM_FEATURE_SELFOVERLAP>
45.733

> <PUBCHEM_SHAPE_FINGERPRINT>
10366900 7 17749952154840449795
10863032 1 18269554004023115055
12236239 1 17775563147779177329
12390115 104 17689165925689260232
13140716 1 18120925360182549008
13538477 17 17346301744027477613
13583140 156 18122369907934339457
14142880 1 17542491082758914628
14787075 74 17625539365089400983
14817 1 17261345967878158222
15219456 202 17967810552640891593
15309172 13 18335419118535069760
15342168 16 18190741036293401700
15375358 24 17603579717143611045
16752209 62 16343406346568643221
16945 1 18343025445465482246
1813 80 17914907443987286046
18175812 5 17748826332221763669
18186145 218 18342740740905648940
18219364 16 18261101985236635732
19049666 15 17679291971525498429
19422 9 17846777416503875455
200 152 18343011173753407137
204376 136 18265052612024921416
20600515 1 14397917075962100757
20645477 70 18337101294089833463
21061003 4 18190744137364634418
21639500 275 18411408540452699088
21756936 100 17842856678678872368
22112679 90 17346588669038404057
2255824 54 18342457041314947654
23402539 116 16588012512055848751
23493267 7 17060350647053721623
23557571 272 16660923266860671591
23598291 2 17845946146932360240
238 59 17974248154603673583
2748010 2 18265060317660266186
298252 57 16845019025304807588
3286 77 18260827055763684550
350125 39 17471578101879615000
4340502 62 18410856607686452115
458136 41 18336000734653612886
474 4 18271523195126055648
495365 180 18190717822327177013
633830 44 18059031552003547813
77492 1 17775562052599446621
81228 2 17396690356231575714
8272917 22 18341615876212427781
9981440 41 16336354323632815728

> <PUBCHEM_SHAPE_MULTIPOLES>
376.37
6.67
2.28
1.54
3.05
0.6
-0.52
-1.58
1.32
-3.01
0.11
1.54
-0.06
0.13

> <PUBCHEM_SHAPE_SELFOVERLAP>
829.756

> <PUBCHEM_SHAPE_VOLUME>
203.5

> <PUBCHEM_COORDINATE_TYPE>
2
5
10

$$$$
