49830467
  -OEChem-10052120443D

 39 42  0     1  0  0  0  0  0999 V2000
    3.6953   -1.5513   -1.8296 O   0  0  0  0  0  0  0  0  0  0  0  0
    3.2144    2.5012    0.4316 O   0  0  0  0  0  0  0  0  0  0  0  0
   -0.4386    1.2665   -1.0676 O   0  0  0  0  0  0  0  0  0  0  0  0
    3.6094    0.1991    0.5773 N   0  0  0  0  0  0  0  0  0  0  0  0
    0.9076    1.6102   -1.0922 N   0  0  0  0  0  0  0  0  0  0  0  0
   -6.0184   -0.8953    0.4808 N   0  0  0  0  0  0  0  0  0  0  0  0
   -6.5684   -0.4485   -0.6606 N   0  0  0  0  0  0  0  0  0  0  0  0
    3.9758   -1.9972   -0.5034 C   0  0  1  0  0  0  0  0  0  0  0  0
    5.4754   -1.8520   -0.2385 C   0  0  0  0  0  0  0  0  0  0  0  0
    5.8901   -0.3833   -0.1289 C   0  0  0  0  0  0  0  0  0  0  0  0
    3.1374   -1.1926    0.4930 C   0  0  0  0  0  0  0  0  0  0  0  0
    5.0294    0.3515    0.8931 C   0  0  0  0  0  0  0  0  0  0  0  0
    2.8241    1.3364    0.3726 C   0  0  0  0  0  0  0  0  0  0  0  0
    1.4041    1.1452    0.0577 C   0  0  0  0  0  0  0  0  0  0  0  0
    0.4277    0.5055    0.8406 C   0  0  0  0  0  0  0  0  0  0  0  0
   -0.7123    0.6092    0.0883 C   0  0  0  0  0  0  0  0  0  0  0  0
   -2.0731    0.1891    0.2564 C   0  0  0  0  0  0  0  0  0  0  0  0
   -4.3370    0.0501   -0.5623 C   0  0  0  0  0  0  0  0  0  0  0  0
   -3.0093    0.4705   -0.7465 C   0  0  0  0  0  0  0  0  0  0  0  0
   -4.6813   -0.6281    0.6016 C   0  0  0  0  0  0  0  0  0  0  0  0
   -2.4461   -0.4938    1.4155 C   0  0  0  0  0  0  0  0  0  0  0  0
   -3.7639   -0.9187    1.6135 C   0  0  0  0  0  0  0  0  0  0  0  0
   -5.5424    0.1261   -1.2925 C   0  0  0  0  0  0  0  0  0  0  0  0
    3.6881   -3.0530   -0.4499 H   0  0  0  0  0  0  0  0  0  0  0  0
    5.7291   -2.3664    0.6964 H   0  0  0  0  0  0  0  0  0  0  0  0
    6.0529   -2.3241   -1.0416 H   0  0  0  0  0  0  0  0  0  0  0  0
    6.9459   -0.3164    0.1560 H   0  0  0  0  0  0  0  0  0  0  0  0
    5.7880    0.0986   -1.1091 H   0  0  0  0  0  0  0  0  0  0  0  0
    2.0959   -1.2501    0.1805 H   0  0  0  0  0  0  0  0  0  0  0  0
    3.2195   -1.6215    1.4982 H   0  0  0  0  0  0  0  0  0  0  0  0
    5.1888   -0.0584    1.8974 H   0  0  0  0  0  0  0  0  0  0  0  0
    5.3105    1.4090    0.9217 H   0  0  0  0  0  0  0  0  0  0  0  0
    4.2153   -2.1009   -2.4405 H   0  0  0  0  0  0  0  0  0  0  0  0
    0.5434    0.0448    1.8111 H   0  0  0  0  0  0  0  0  0  0  0  0
   -2.7487    0.9996   -1.6582 H   0  0  0  0  0  0  0  0  0  0  0  0
   -1.7231   -0.7153    2.1978 H   0  0  0  0  0  0  0  0  0  0  0  0
   -4.0556   -1.4493    2.5130 H   0  0  0  0  0  0  0  0  0  0  0  0
   -5.7142    0.5771   -2.2597 H   0  0  0  0  0  0  0  0  0  0  0  0
   -6.6144   -1.3786    1.1412 H   0  0  0  0  0  0  0  0  0  0  0  0
  1  8  1  0  0  0  0
  1 33  1  0  0  0  0
  2 13  2  0  0  0  0
  3  5  1  0  0  0  0
  3 16  1  0  0  0  0
  4 11  1  0  0  0  0
  4 12  1  0  0  0  0
  4 13  1  0  0  0  0
  5 14  2  0  0  0  0
  6  7  1  0  0  0  0
  6 20  1  0  0  0  0
  6 39  1  0  0  0  0
  7 23  2  0  0  0  0
  8  9  1  0  0  0  0
  8 11  1  0  0  0  0
  8 24  1  0  0  0  0
  9 10  1  0  0  0  0
  9 25  1  0  0  0  0
  9 26  1  0  0  0  0
 10 12  1  0  0  0  0
 10 27  1  0  0  0  0
 10 28  1  0  0  0  0
 11 29  1  0  0  0  0
 11 30  1  0  0  0  0
 12 31  1  0  0  0  0
 12 32  1  0  0  0  0
 13 14  1  0  0  0  0
 14 15  1  0  0  0  0
 15 16  2  0  0  0  0
 15 34  1  0  0  0  0
 16 17  1  0  0  0  0
 17 19  2  0  0  0  0
 17 21  1  0  0  0  0
 18 19  1  0  0  0  0
 18 20  2  0  0  0  0
 18 23  1  0  0  0  0
 19 35  1  0  0  0  0
 20 22  1  0  0  0  0
 21 22  2  0  0  0  0
 21 36  1  0  0  0  0
 22 37  1  0  0  0  0
 23 38  1  0  0  0  0
M  END
> <PUBCHEM_COMPOUND_CID>
49830467

> <PUBCHEM_CONFORMER_RMSD>
0.8

> <PUBCHEM_CONFORMER_DIVERSEORDER>
1
45
57
24
13
29
42
30
23
59
39
58
43
54
26
12
33
46
22
56
36
52
34
51
37
32
41
3
10
47
40
28
6
15
48
9
62
16
53
20
21
60
44
61
18
2
50
49
38
27
31
55
4
25
5
35
14
17
7
19
11
8

> <PUBCHEM_MMFF94_PARTIAL_CHARGES>
27
1 -0.68
11 0.3
12 0.3
13 0.72
14 0.2
15 -0.15
16 0.09
17 0.05
19 -0.15
2 -0.57
20 -0.15
21 -0.15
22 -0.15
23 0.14
3 -0.02
33 0.4
34 0.15
35 0.15
36 0.15
37 0.15
38 0.15
39 0.27
4 -0.66
5 -0.41
6 0.3
7 -0.71
8 0.28

> <PUBCHEM_EFFECTIVE_ROTOR_COUNT>
4.2

> <PUBCHEM_PHARMACOPHORE_FEATURES>
10
1 1 acceptor
1 1 donor
1 2 acceptor
1 5 acceptor
1 6 donor
1 7 acceptor
5 3 5 14 15 16 rings
5 6 7 18 20 23 rings
6 17 18 19 20 21 22 rings
6 4 8 9 10 11 12 rings

> <PUBCHEM_HEAVY_ATOM_COUNT>
23

> <PUBCHEM_ATOM_DEF_STEREO_COUNT>
0

> <PUBCHEM_ATOM_UDEF_STEREO_COUNT>
1

> <PUBCHEM_BOND_DEF_STEREO_COUNT>
0

> <PUBCHEM_BOND_UDEF_STEREO_COUNT>
0

> <PUBCHEM_ISOTOPIC_ATOM_COUNT>
0

> <PUBCHEM_COMPONENT_COUNT>
1

> <PUBCHEM_CACTVS_TAUTO_COUNT>
5

> <PUBCHEM_CONFORMER_ID>
02F85A4300000001

> <PUBCHEM_MMFF94_ENERGY>
42.7366

> <PUBCHEM_FEATURE_SELFOVERLAP>
50.841

> <PUBCHEM_SHAPE_FINGERPRINT>
10319926 262 13829584072482587358
106641 1 15554437531461471482
11059845 2 14904273014324191738
11595378 159 15051457067800599746
11796584 16 18186516631209767051
12107183 9 16267734502622077106
12236239 1 17131832079423212809
12516196 113 18272367572748120496
12596602 18 16271922731485580930
12788726 201 14924214985228086693
13402501 40 18187366514906558570
13464513 79 18343021069674737190
13533116 47 18059855086339041104
13544592 145 18113900480885389883
13544653 18 18341335521852994240
13668630 136 18344145904018428791
13685833 64 18409732859136277187
13911852 28 18128256684293542246
13914758 101 18060138692400434097
13955234 65 18271238439279848792
14211702 104 18130228284883880559
14251752 14 16298660607957464706
14251764 30 16269421201505268062
14341114 328 16056879130533296862
14366163 111 13984666957817668030
14386348 63 18186521007675868258
14528608 73 12685096998760501851
14573314 32 18113615668887947077
14617045 38 17675925378701298139
15183329 4 17821723906373510345
15788980 27 18131350804423931625
17349148 13 16559033804979388989
17834072 8 17822007614638132963
17844677 252 18335423465316669685
17857418 61 17775001293226955007
17870717 6 17676209061538949443
1813 80 18201169762707268660
19377110 9 15913057529732673147
193927 3 18340218413738847274
200 152 18273492373491397489
20374829 77 17749387065866519930
20397935 70 17846785108827453478
20567600 75 18410289190402605789
20645477 70 18411133649734537312
21033650 10 15937821683932264310
21150785 3 12901549066182560235
21315764 119 16515963658002406098
21623969 137 18343865511273185006
21682296 61 18271530775532576886
21781051 124 16443927058576745107
22061861 79 18408601470255734647
2215653 11 18187078456003016999
22224240 67 18059000783843861106
22849339 104 16443643371164622755
2297311 6 17458063764270908181
23175994 123 18334858346763382097
23557571 272 17749100067831366484
23559900 14 18041558143432768017
239999 70 18186517739706961496
2838139 119 11025803123759489838
2871803 45 18113336375992077762
29717793 49 18412543210856866013
3004659 81 16877662357750544222
314173 85 18187086139314693089
345986 75 17702941414467126746
34797466 226 17603594061801740469
3633792 109 18272364249139518457
3886686 26 14686985301301548206
4325135 7 18260832610010862900
4463277 69 18412549790625164940
46194498 28 18113053853085798668
465052 167 18273216396014862022
474 4 8646476428093190974
5718773 13 18191300473860562002
59755656 215 17822284670088500827
8988823 20 18202280329506946280
960060 61 17530971271721985966
9709674 26 17532942816561508851

> <PUBCHEM_SHAPE_MULTIPOLES>
435.8
15.66
1.75
1.29
6.09
0.17
0.07
-6.28
1.66
-2.53
0.17
0.6
-0.21
1.47

> <PUBCHEM_SHAPE_SELFOVERLAP>
961.959

> <PUBCHEM_SHAPE_VOLUME>
234.8

> <PUBCHEM_COORDINATE_TYPE>
2
5
10

$$$$
