10457505
  -OEChem-10062121583D

 52 55  0     0  0  0  0  0  0999 V2000
    9.7401    1.2482   -0.4446 Br  0  0  0  0  0  0  0  0  0  0  0  0
    3.5806   -1.2164    1.7883 O   0  0  0  0  0  0  0  0  0  0  0  0
   -4.1529    2.8824    0.5067 O   0  0  0  0  0  0  0  0  0  0  0  0
   -6.6495    1.8686   -0.1718 O   0  0  0  0  0  0  0  0  0  0  0  0
   -0.9492   -1.0512    0.1414 N   0  0  0  0  0  0  0  0  0  0  0  0
    1.7060   -0.3391    0.7644 N   0  0  0  0  0  0  0  0  0  0  0  0
   -2.3909   -2.8195   -0.5287 N   0  0  0  0  0  0  0  0  0  0  0  0
    3.8179   -0.1696   -0.2687 N   0  0  0  0  0  0  0  0  0  0  0  0
   -4.7490   -2.4445   -0.8544 N   0  0  0  0  0  0  0  0  0  0  0  0
   -0.2765   -1.6857    1.2885 C   0  0  0  0  0  0  0  0  0  0  0  0
   -0.0745   -0.5180   -0.9142 C   0  0  0  0  0  0  0  0  0  0  0  0
    0.8203   -0.7756    1.8419 C   0  0  0  0  0  0  0  0  0  0  0  0
    1.0013    0.3771   -0.3035 C   0  0  0  0  0  0  0  0  0  0  0  0
   -2.2319   -1.5037   -0.1907 C   0  0  0  0  0  0  0  0  0  0  0  0
    3.0867   -0.6117    0.8331 C   0  0  0  0  0  0  0  0  0  0  0  0
   -3.3408   -0.6244   -0.1783 C   0  0  0  0  0  0  0  0  0  0  0  0
   -4.5968   -1.1502   -0.5228 C   0  0  0  0  0  0  0  0  0  0  0  0
   -3.1939    0.7304    0.1667 C   0  0  0  0  0  0  0  0  0  0  0  0
   -5.6888   -0.2857   -0.5110 C   0  0  0  0  0  0  0  0  0  0  0  0
   -4.3021    1.5717    0.1703 C   0  0  0  0  0  0  0  0  0  0  0  0
   -3.6380   -3.2085   -0.8397 C   0  0  0  0  0  0  0  0  0  0  0  0
   -5.5508    1.0628   -0.1689 C   0  0  0  0  0  0  0  0  0  0  0  0
    5.1956    0.1596   -0.3097 C   0  0  0  0  0  0  0  0  0  0  0  0
    5.7919    0.4952   -1.5225 C   0  0  0  0  0  0  0  0  0  0  0  0
    5.9463    0.1468    0.8633 C   0  0  0  0  0  0  0  0  0  0  0  0
    7.1478    0.8202   -1.5627 C   0  0  0  0  0  0  0  0  0  0  0  0
    7.3022    0.4720    0.8230 C   0  0  0  0  0  0  0  0  0  0  0  0
   -3.8684    3.7959   -0.5515 C   0  0  0  0  0  0  0  0  0  0  0  0
    7.9030    0.8087   -0.3899 C   0  0  0  0  0  0  0  0  0  0  0  0
   -7.3859    1.9642    1.0457 C   0  0  0  0  0  0  0  0  0  0  0  0
    0.1571   -2.6406    0.9659 H   0  0  0  0  0  0  0  0  0  0  0  0
   -0.9971   -1.8974    2.0878 H   0  0  0  0  0  0  0  0  0  0  0  0
    0.3884   -1.3540   -1.4530 H   0  0  0  0  0  0  0  0  0  0  0  0
   -0.6546    0.0654   -1.6389 H   0  0  0  0  0  0  0  0  0  0  0  0
    0.3816    0.1243    2.2899 H   0  0  0  0  0  0  0  0  0  0  0  0
    1.3740   -1.2978    2.6280 H   0  0  0  0  0  0  0  0  0  0  0  0
    1.6666    0.7496   -1.0826 H   0  0  0  0  0  0  0  0  0  0  0  0
    0.5388    1.2592    0.1574 H   0  0  0  0  0  0  0  0  0  0  0  0
   -2.2273    1.1464    0.4402 H   0  0  0  0  0  0  0  0  0  0  0  0
    3.3403   -0.0927   -1.1601 H   0  0  0  0  0  0  0  0  0  0  0  0
   -6.6744   -0.6664   -0.7747 H   0  0  0  0  0  0  0  0  0  0  0  0
   -3.7671   -4.2500   -1.1077 H   0  0  0  0  0  0  0  0  0  0  0  0
    5.2143    0.5080   -2.4431 H   0  0  0  0  0  0  0  0  0  0  0  0
    5.5297   -0.0726    1.8385 H   0  0  0  0  0  0  0  0  0  0  0  0
    7.6007    1.0802   -2.5160 H   0  0  0  0  0  0  0  0  0  0  0  0
    7.8756    0.4655    1.7466 H   0  0  0  0  0  0  0  0  0  0  0  0
   -2.9198    3.5396   -1.0339 H   0  0  0  0  0  0  0  0  0  0  0  0
   -3.7841    4.7990   -0.1246 H   0  0  0  0  0  0  0  0  0  0  0  0
   -4.6776    3.7958   -1.2886 H   0  0  0  0  0  0  0  0  0  0  0  0
   -7.7801    0.9844    1.3334 H   0  0  0  0  0  0  0  0  0  0  0  0
   -8.2257    2.6458    0.8855 H   0  0  0  0  0  0  0  0  0  0  0  0
   -6.7568    2.3662    1.8462 H   0  0  0  0  0  0  0  0  0  0  0  0
  1 29  1  0  0  0  0
  2 15  2  0  0  0  0
  3 20  1  0  0  0  0
  3 28  1  0  0  0  0
  4 22  1  0  0  0  0
  4 30  1  0  0  0  0
  5 10  1  0  0  0  0
  5 11  1  0  0  0  0
  5 14  1  0  0  0  0
  6 12  1  0  0  0  0
  6 13  1  0  0  0  0
  6 15  1  0  0  0  0
  7 14  2  0  0  0  0
  7 21  1  0  0  0  0
  8 15  1  0  0  0  0
  8 23  1  0  0  0  0
  8 40  1  0  0  0  0
  9 17  1  0  0  0  0
  9 21  2  0  0  0  0
 10 12  1  0  0  0  0
 10 31  1  0  0  0  0
 10 32  1  0  0  0  0
 11 13  1  0  0  0  0
 11 33  1  0  0  0  0
 11 34  1  0  0  0  0
 12 35  1  0  0  0  0
 12 36  1  0  0  0  0
 13 37  1  0  0  0  0
 13 38  1  0  0  0  0
 14 16  1  0  0  0  0
 16 17  1  0  0  0  0
 16 18  2  0  0  0  0
 17 19  2  0  0  0  0
 18 20  1  0  0  0  0
 18 39  1  0  0  0  0
 19 22  1  0  0  0  0
 19 41  1  0  0  0  0
 20 22  2  0  0  0  0
 21 42  1  0  0  0  0
 23 24  2  0  0  0  0
 23 25  1  0  0  0  0
 24 26  1  0  0  0  0
 24 43  1  0  0  0  0
 25 27  2  0  0  0  0
 25 44  1  0  0  0  0
 26 29  2  0  0  0  0
 26 45  1  0  0  0  0
 27 29  1  0  0  0  0
 27 46  1  0  0  0  0
 28 47  1  0  0  0  0
 28 48  1  0  0  0  0
 28 49  1  0  0  0  0
 30 50  1  0  0  0  0
 30 51  1  0  0  0  0
 30 52  1  0  0  0  0
M  END
> <PUBCHEM_COMPOUND_CID>
10457505

> <PUBCHEM_CONFORMER_RMSD>
1

> <PUBCHEM_CONFORMER_DIVERSEORDER>
1
14
4
31
33
20
32
5
30
11
16
36
10
9
34
6
41
24
21
12
29
37
35
18
19
7
26
39
23
8
27
3
40
22
38
28
25
17
2
13
15

> <PUBCHEM_MMFF94_PARTIAL_CHARGES>
37
1 -0.11
10 0.37
11 0.37
12 0.3
13 0.3
14 0.41
15 0.69
17 0.31
18 -0.15
19 -0.15
2 -0.57
20 0.08
21 0.47
22 0.08
23 0.12
24 -0.15
25 -0.15
26 -0.15
27 -0.15
28 0.28
29 0.11
3 -0.36
30 0.28
39 0.15
4 -0.36
40 0.37
41 0.15
42 0.15
43 0.15
44 0.15
45 0.15
46 0.15
5 -0.84
6 -0.66
7 -0.62
8 -0.55
9 -0.62

> <PUBCHEM_EFFECTIVE_ROTOR_COUNT>
7.2

> <PUBCHEM_PHARMACOPHORE_FEATURES>
11
1 1 hydrophobe
1 2 acceptor
1 3 acceptor
1 4 acceptor
1 8 donor
3 5 7 14 cation
3 7 9 21 cation
6 16 17 18 19 20 22 rings
6 23 24 25 26 27 29 rings
6 5 6 10 11 12 13 rings
6 7 9 14 16 17 21 rings

> <PUBCHEM_HEAVY_ATOM_COUNT>
30

> <PUBCHEM_ATOM_DEF_STEREO_COUNT>
0

> <PUBCHEM_ATOM_UDEF_STEREO_COUNT>
0

> <PUBCHEM_BOND_DEF_STEREO_COUNT>
0

> <PUBCHEM_BOND_UDEF_STEREO_COUNT>
0

> <PUBCHEM_ISOTOPIC_ATOM_COUNT>
0

> <PUBCHEM_COMPONENT_COUNT>
1

> <PUBCHEM_CACTVS_TAUTO_COUNT>
2

> <PUBCHEM_CONFORMER_ID>
009F91A100000001

> <PUBCHEM_MMFF94_ENERGY>
127.1478

> <PUBCHEM_FEATURE_SELFOVERLAP>
55.984

> <PUBCHEM_SHAPE_FINGERPRINT>
10 15 13045946828715170678
10087517 78 18333730212851073180
10165383 225 18131355177349310601
10411042 1 17980757466370011799
10454371 7 18342742918559985264
106641 1 17095530595658671665
10670039 82 18411131450801140973
10906281 52 17749399178487113026
11315181 36 18187079598496180807
11646440 116 15213017159640991710
11991303 11 16630238229591722500
12082328 90 18413106195523629422
12236239 1 18113614586203026827
13690498 29 18058724857105878839
13726171 33 18122347883337342393
13885169 127 18413108377519652062
14294032 229 18186795839035076252
14856354 85 18339360876474579799
150020 25 17704076209968578796
15183329 4 17703513212158328066
15419008 47 17561361803205165720
15419008 91 17631998850227385528
15604295 49 18200025283500540416
1577012 14 18186796985637862938
15876981 60 18335703905195174213
16989713 51 17559668636771141119
16992828 155 17823126835734668965
17913733 40 14851601064345248832
20505436 4 18261388915397481939
20567600 75 17489874842948643198
20771845 165 18200321996202877487
21033648 29 17274523408515488786
21095123 145 12901550152724948466
21424621 283 18187082841349093650
21756936 100 18041001756537353131
21792961 116 17346605166740997990
22224240 67 15936131859019504857
23081809 10 18114174255597980346
23522609 53 18040729052153068140
23559900 14 17917704742579426475
23576562 1 16701156720861995969
24771293 8 18115584998073932756
335352 9 18342168978370341965
3610482 184 18187375341106387542
4073 2 18260552234082537418
4098825 35 18411700942527993454
44249763 50 18129928066532051104
44555599 121 18040722511028769820
445580 204 18333732420896389904
445580 37 18412267246528833436
44802255 64 18060137652237880743
44880568 143 18059856216168998392
4516262 110 18040989605974554655
5265222 85 18058166318373812758
57527295 17 16056321610136092335
5758199 1 17822008718687379938
5911458 16 18113343003084755220
59567204 34 18411981355978096069
6201320 215 18341324484621149744
636775 72 18335420210338458476
68570916 9 9439394749445191858
7808743 9 18339919330044959169

> <PUBCHEM_SHAPE_MULTIPOLES>
580.82
25.25
2.93
1.3
43.77
0.75
0.24
14.72
-3.65
-7.51
-0.42
1.21
-0.27
-2.19

> <PUBCHEM_SHAPE_SELFOVERLAP>
1239.309

> <PUBCHEM_SHAPE_VOLUME>
329.5

> <PUBCHEM_COORDINATE_TYPE>
2
5
10

$$$$
