135564570
  -OEChem-10052115183D

 43 46  0     0  0  0  0  0  0999 V2000
   -6.3629   -1.7809   -0.8013 O   0  0  0  0  0  0  0  0  0  0  0  0
    2.2108    3.6545   -0.2329 O   0  0  0  0  0  0  0  0  0  0  0  0
   -4.3661   -0.0651    0.2805 N   0  0  0  0  0  0  0  0  0  0  0  0
    3.9005    2.0454   -0.3070 N   0  0  0  0  0  0  0  0  0  0  0  0
   -0.2805    1.7266   -0.8402 N   0  0  0  0  0  0  0  0  0  0  0  0
    3.5840   -4.6309    0.2730 N   0  0  0  0  0  0  0  0  0  0  0  0
   -4.4358   -0.3506   -1.1593 C   0  0  0  0  0  0  0  0  0  0  0  0
   -5.7055   -0.1578    0.8777 C   0  0  0  0  0  0  0  0  0  0  0  0
   -3.7812    1.2527    0.5204 C   0  0  0  0  0  0  0  0  0  0  0  0
   -5.0608   -1.7244   -1.3853 C   0  0  0  0  0  0  0  0  0  0  0  0
   -6.2997   -1.5366    0.6042 C   0  0  0  0  0  0  0  0  0  0  0  0
   -2.2788    1.2250    0.4247 C   0  0  0  0  0  0  0  0  0  0  0  0
    1.8631    1.2220    0.0071 C   0  0  0  0  0  0  0  0  0  0  0  0
    2.7828    0.1365   -0.0168 C   0  0  0  0  0  0  0  0  0  0  0  0
    0.4390    1.2087    0.1806 C   0  0  0  0  0  0  0  0  0  0  0  0
   -1.5048    0.7005    1.4538 C   0  0  0  0  0  0  0  0  0  0  0  0
    4.0537    0.6802   -0.2151 C   0  0  0  0  0  0  0  0  0  0  0  0
   -1.6243    1.7212   -0.6910 C   0  0  0  0  0  0  0  0  0  0  0  0
   -0.1192    0.6884    1.3372 C   0  0  0  0  0  0  0  0  0  0  0  0
    2.5802    2.3823   -0.1740 C   0  0  0  0  0  0  0  0  0  0  0  0
    2.6556   -1.2610    0.1118 C   0  0  0  0  0  0  0  0  0  0  0  0
    5.2084   -0.1067   -0.2916 C   0  0  0  0  0  0  0  0  0  0  0  0
    3.8019   -2.0606    0.0374 C   0  0  0  0  0  0  0  0  0  0  0  0
    5.0577   -1.4902   -0.1613 C   0  0  0  0  0  0  0  0  0  0  0  0
    3.6817   -3.4792    0.1674 C   0  0  0  0  0  0  0  0  0  0  0  0
   -3.4383   -0.3528   -1.6108 H   0  0  0  0  0  0  0  0  0  0  0  0
   -5.0401    0.4097   -1.6713 H   0  0  0  0  0  0  0  0  0  0  0  0
   -6.3626    0.6147    0.4572 H   0  0  0  0  0  0  0  0  0  0  0  0
   -5.6524   -0.0070    1.9620 H   0  0  0  0  0  0  0  0  0  0  0  0
   -4.0186    1.5958    1.5375 H   0  0  0  0  0  0  0  0  0  0  0  0
   -4.2040    2.0175   -0.1452 H   0  0  0  0  0  0  0  0  0  0  0  0
   -4.4378   -2.5258   -0.9695 H   0  0  0  0  0  0  0  0  0  0  0  0
   -5.1694   -1.9126   -2.4583 H   0  0  0  0  0  0  0  0  0  0  0  0
   -7.3203   -1.5870    0.9967 H   0  0  0  0  0  0  0  0  0  0  0  0
   -5.7186   -2.3310    1.0883 H   0  0  0  0  0  0  0  0  0  0  0  0
   -1.9699    0.2997    2.3503 H   0  0  0  0  0  0  0  0  0  0  0  0
   -2.1727    2.1432   -1.5275 H   0  0  0  0  0  0  0  0  0  0  0  0
    0.4884    0.2834    2.1402 H   0  0  0  0  0  0  0  0  0  0  0  0
    4.6552    2.7016   -0.4518 H   0  0  0  0  0  0  0  0  0  0  0  0
    1.6768   -1.7089    0.2649 H   0  0  0  0  0  0  0  0  0  0  0  0
    6.1864    0.3366   -0.4463 H   0  0  0  0  0  0  0  0  0  0  0  0
    5.9457   -2.1170   -0.2182 H   0  0  0  0  0  0  0  0  0  0  0  0
    3.0059    4.1979   -0.3734 H   0  0  0  0  0  0  0  0  0  0  0  0
  1 10  1  0  0  0  0
  1 11  1  0  0  0  0
  2 20  1  0  0  0  0
  2 43  1  0  0  0  0
  3  7  1  0  0  0  0
  3  8  1  0  0  0  0
  3  9  1  0  0  0  0
  4 17  1  0  0  0  0
  4 20  1  0  0  0  0
  4 39  1  0  0  0  0
  5 15  2  0  0  0  0
  5 18  1  0  0  0  0
  6 25  3  0  0  0  0
  7 10  1  0  0  0  0
  7 26  1  0  0  0  0
  7 27  1  0  0  0  0
  8 11  1  0  0  0  0
  8 28  1  0  0  0  0
  8 29  1  0  0  0  0
  9 12  1  0  0  0  0
  9 30  1  0  0  0  0
  9 31  1  0  0  0  0
 10 32  1  0  0  0  0
 10 33  1  0  0  0  0
 11 34  1  0  0  0  0
 11 35  1  0  0  0  0
 12 16  1  0  0  0  0
 12 18  2  0  0  0  0
 13 14  1  0  0  0  0
 13 15  1  0  0  0  0
 13 20  2  0  0  0  0
 14 17  2  0  0  0  0
 14 21  1  0  0  0  0
 15 19  1  0  0  0  0
 16 19  2  0  0  0  0
 16 36  1  0  0  0  0
 17 22  1  0  0  0  0
 18 37  1  0  0  0  0
 19 38  1  0  0  0  0
 21 23  2  0  0  0  0
 21 40  1  0  0  0  0
 22 24  2  0  0  0  0
 22 41  1  0  0  0  0
 23 24  1  0  0  0  0
 23 25  1  0  0  0  0
 24 42  1  0  0  0  0
M  END
> <PUBCHEM_COMPOUND_CID>
135564570

> <PUBCHEM_CONFORMER_RMSD>
0.8

> <PUBCHEM_CONFORMER_DIVERSEORDER>
1
14
25
20
19
23
21
22
4
24
16
29
9
27
8
6
13
11
26
18
28
3
5
12
17
2
10
7
15

> <PUBCHEM_MMFF94_PARTIAL_CHARGES>
32
1 -0.56
10 0.28
11 0.28
12 -0.14
13 -0.05
15 0.36
16 -0.15
17 -0.15
18 0.16
19 -0.15
2 -0.51
20 -0.09
21 -0.15
22 -0.15
23 0.07
24 -0.15
25 0.48
3 -0.81
36 0.15
37 0.15
38 0.15
39 0.27
4 0.03
40 0.15
41 0.15
42 0.15
43 0.45
5 -0.62
6 -0.56
7 0.27
8 0.27
9 0.41

> <PUBCHEM_EFFECTIVE_ROTOR_COUNT>
4.2

> <PUBCHEM_PHARMACOPHORE_FEATURES>
11
1 1 acceptor
1 2 donor
1 3 cation
1 4 cation
1 4 donor
1 5 acceptor
1 6 acceptor
5 4 13 14 17 20 rings
6 1 3 7 8 10 11 rings
6 14 17 21 22 23 24 rings
6 5 12 15 16 18 19 rings

> <PUBCHEM_HEAVY_ATOM_COUNT>
25

> <PUBCHEM_ATOM_DEF_STEREO_COUNT>
0

> <PUBCHEM_ATOM_UDEF_STEREO_COUNT>
0

> <PUBCHEM_BOND_DEF_STEREO_COUNT>
0

> <PUBCHEM_BOND_UDEF_STEREO_COUNT>
0

> <PUBCHEM_ISOTOPIC_ATOM_COUNT>
0

> <PUBCHEM_COMPONENT_COUNT>
1

> <PUBCHEM_CACTVS_TAUTO_COUNT>
-1

> <PUBCHEM_CONFORMER_ID>
08148D1A00000001

> <PUBCHEM_MMFF94_ENERGY>
52.5667

> <PUBCHEM_FEATURE_SELFOVERLAP>
55.956

> <PUBCHEM_SHAPE_FINGERPRINT>
10595046 47 18341899631885896657
10622 236 18269545044822205483
11089746 13 11746938710976879722
11796584 16 17917716773189114565
11963148 33 18263638460432912378
12107183 9 18053956052254438625
12236239 1 18130794485937185657
12596602 18 17490151902767422032
12633257 1 16486972951419733029
12839892 36 17418377974102524511
13150687 139 17970091005431798788
13167823 11 18343304773301650537
13533116 47 18341898536294403977
1361 2 18409450323302495066
13955234 65 18270397325242117760
14347332 77 18410291381178980217
14576447 43 18412263917934297892
15250474 111 18201433710012245007
15348495 7 11671780494481115253
15361156 5 17897465911877929692
15475509 35 17988354962113888675
15537594 2 18130224964641408887
15799311 1 18338535122035899211
17492 89 18267021661425368666
17857418 61 18272369776372044787
200 152 18341898484591428609
20028762 73 18272932709019932262
20567600 247 18342453764107565115
20645477 70 18260269667893391872
21285901 2 17603584127785270396
22224240 67 18270955852318032560
22393880 68 17822842105425174733
22950370 63 18272653489285484993
23522609 53 18052855582374747137
23559900 14 18189339137551140576
23569914 152 17542186131997126695
23845131 108 17692526033023199656
25222932 49 18413106135272859142
2838139 119 11314026885756368519
314194 84 18410862057197961234
33382 64 18413392046739250379
3411729 13 15696579177511613520
3472631 163 7997973483836645379
34797466 226 16515692195079258861
351380 3 18060420244227392807
439807 62 18341612659830900023
44062 13 18120089481688430277
46194498 28 17604147128914231228
463206 1 18339926012344580875
465052 167 18272939327347490996
5104073 3 17988924435800911977
5718773 13 18189048708184783394
7495541 125 17560803290116504001
7970288 3 17906170642683468674
9709674 26 18260838072228360920

> <PUBCHEM_SHAPE_MULTIPOLES>
482.83
14.77
3.8
1.05
16.64
2.75
0.03
10.5
-1.39
-5.1
-0.18
1.25
0.03
-1.24

> <PUBCHEM_SHAPE_SELFOVERLAP>
1063.71

> <PUBCHEM_SHAPE_VOLUME>
257.5

> <PUBCHEM_COORDINATE_TYPE>
2
5
10

$$$$
