11196984
  -OEChem-10052115183D

 38 40  0     0  0  0  0  0  0999 V2000
    1.8900    1.5061    1.6687 O   0  0  0  0  0  0  0  0  0  0  0  0
    2.2184    1.2268   -0.6097 N   0  0  0  0  0  0  0  0  0  0  0  0
   -6.7325   -0.9141   -0.3448 N   0  0  0  0  0  0  0  0  0  0  0  0
   -2.6519    0.1558    0.0990 C   0  0  0  0  0  0  0  0  0  0  0  0
    3.6280    1.5455   -0.6161 C   0  0  0  0  0  0  0  0  0  0  0  0
    0.0314    0.8603    0.3930 C   0  0  0  0  0  0  0  0  0  0  0  0
    4.4261    0.2948   -0.4070 C   0  0  0  0  0  0  0  0  0  0  0  0
   -4.0437   -0.2095   -0.0527 C   0  0  0  0  0  0  0  0  0  0  0  0
   -1.9573    0.7184   -0.9717 C   0  0  0  0  0  0  0  0  0  0  0  0
   -2.0049   -0.0547    1.3168 C   0  0  0  0  0  0  0  0  0  0  0  0
   -0.6157    1.0706   -0.8247 C   0  0  0  0  0  0  0  0  0  0  0  0
   -0.6633    0.2976    1.4639 C   0  0  0  0  0  0  0  0  0  0  0  0
    1.4301    1.2275    0.5470 C   0  0  0  0  0  0  0  0  0  0  0  0
    4.7588   -0.1043    0.8840 C   0  0  0  0  0  0  0  0  0  0  0  0
    4.8288   -0.4595   -1.5048 C   0  0  0  0  0  0  0  0  0  0  0  0
   -4.8586    0.4969   -0.9300 C   0  0  0  0  0  0  0  0  0  0  0  0
   -4.5709   -1.2676    0.6788 C   0  0  0  0  0  0  0  0  0  0  0  0
    5.5016   -1.2688    1.0789 C   0  0  0  0  0  0  0  0  0  0  0  0
    5.5714   -1.6241   -1.3098 C   0  0  0  0  0  0  0  0  0  0  0  0
    5.9078   -2.0286   -0.0178 C   0  0  0  0  0  0  0  0  0  0  0  0
   -6.1841    0.1083   -1.0388 C   0  0  0  0  0  0  0  0  0  0  0  0
   -5.9094   -1.5773    0.4980 C   0  0  0  0  0  0  0  0  0  0  0  0
    3.8458    2.2842    0.1635 H   0  0  0  0  0  0  0  0  0  0  0  0
    3.8639    2.0078   -1.5809 H   0  0  0  0  0  0  0  0  0  0  0  0
   -2.4135    0.8797   -1.9446 H   0  0  0  0  0  0  0  0  0  0  0  0
   -2.5130   -0.4633    2.1861 H   0  0  0  0  0  0  0  0  0  0  0  0
    1.8242    0.9205   -1.4929 H   0  0  0  0  0  0  0  0  0  0  0  0
   -0.1198    1.5285   -1.6755 H   0  0  0  0  0  0  0  0  0  0  0  0
   -0.1777    0.1273    2.4213 H   0  0  0  0  0  0  0  0  0  0  0  0
    4.4543    0.4800    1.7475 H   0  0  0  0  0  0  0  0  0  0  0  0
    4.5711   -0.1552   -2.5156 H   0  0  0  0  0  0  0  0  0  0  0  0
   -4.5198    1.3493   -1.5085 H   0  0  0  0  0  0  0  0  0  0  0  0
   -3.9854   -1.8776    1.3579 H   0  0  0  0  0  0  0  0  0  0  0  0
    5.7646   -1.5831    2.0846 H   0  0  0  0  0  0  0  0  0  0  0  0
    5.8874   -2.2161   -2.1637 H   0  0  0  0  0  0  0  0  0  0  0  0
    6.4862   -2.9352    0.1339 H   0  0  0  0  0  0  0  0  0  0  0  0
   -6.8638    0.6310   -1.7038 H   0  0  0  0  0  0  0  0  0  0  0  0
   -6.3679   -2.3983    1.0393 H   0  0  0  0  0  0  0  0  0  0  0  0
  1 13  2  0  0  0  0
  2  5  1  0  0  0  0
  2 13  1  0  0  0  0
  2 27  1  0  0  0  0
  3 21  2  0  0  0  0
  3 22  1  0  0  0  0
  4  8  1  0  0  0  0
  4  9  2  0  0  0  0
  4 10  1  0  0  0  0
  5  7  1  0  0  0  0
  5 23  1  0  0  0  0
  5 24  1  0  0  0  0
  6 11  2  0  0  0  0
  6 12  1  0  0  0  0
  6 13  1  0  0  0  0
  7 14  2  0  0  0  0
  7 15  1  0  0  0  0
  8 16  2  0  0  0  0
  8 17  1  0  0  0  0
  9 11  1  0  0  0  0
  9 25  1  0  0  0  0
 10 12  2  0  0  0  0
 10 26  1  0  0  0  0
 11 28  1  0  0  0  0
 12 29  1  0  0  0  0
 14 18  1  0  0  0  0
 14 30  1  0  0  0  0
 15 19  2  0  0  0  0
 15 31  1  0  0  0  0
 16 21  1  0  0  0  0
 16 32  1  0  0  0  0
 17 22  2  0  0  0  0
 17 33  1  0  0  0  0
 18 20  2  0  0  0  0
 18 34  1  0  0  0  0
 19 20  1  0  0  0  0
 19 35  1  0  0  0  0
 20 36  1  0  0  0  0
 21 37  1  0  0  0  0
 22 38  1  0  0  0  0
M  END
> <PUBCHEM_COMPOUND_CID>
11196984

> <PUBCHEM_CONFORMER_RMSD>
0.8

> <PUBCHEM_CONFORMER_DIVERSEORDER>
1
5
6
4
2
3

> <PUBCHEM_MMFF94_PARTIAL_CHARGES>
34
1 -0.57
10 -0.15
11 -0.15
12 -0.15
13 0.54
14 -0.15
15 -0.15
16 -0.15
17 -0.15
18 -0.15
19 -0.15
2 -0.73
20 -0.15
21 0.16
22 0.16
25 0.15
26 0.15
27 0.37
28 0.15
29 0.15
3 -0.62
30 0.15
31 0.15
32 0.15
33 0.15
34 0.15
35 0.15
36 0.15
37 0.15
38 0.15
5 0.44
6 0.09
7 -0.14
9 -0.15

> <PUBCHEM_EFFECTIVE_ROTOR_COUNT>
5

> <PUBCHEM_PHARMACOPHORE_FEATURES>
6
1 1 acceptor
1 2 donor
1 3 acceptor
6 3 8 16 17 21 22 rings
6 4 6 9 10 11 12 rings
6 7 14 15 18 19 20 rings

> <PUBCHEM_HEAVY_ATOM_COUNT>
22

> <PUBCHEM_ATOM_DEF_STEREO_COUNT>
0

> <PUBCHEM_ATOM_UDEF_STEREO_COUNT>
0

> <PUBCHEM_BOND_DEF_STEREO_COUNT>
0

> <PUBCHEM_BOND_UDEF_STEREO_COUNT>
0

> <PUBCHEM_ISOTOPIC_ATOM_COUNT>
0

> <PUBCHEM_COMPONENT_COUNT>
1

> <PUBCHEM_CACTVS_TAUTO_COUNT>
2

> <PUBCHEM_CONFORMER_ID>
00AADA3800000001

> <PUBCHEM_MMFF94_ENERGY>
67.6253

> <PUBCHEM_FEATURE_SELFOVERLAP>
30.446

> <PUBCHEM_SHAPE_FINGERPRINT>
10 15 12823291312315215791
10378564 45 17458340840826658948
10498660 4 12973898017827262932
10638233 991 14129058114806752463
10670039 82 13840537424804621854
10730089 47 18261107491226642131
11524674 6 17988923392794161767
11796584 16 18409728477953241042
11858739 19 18411418410224047004
125118 31 10015598198468220083
12596602 18 13686300170784414183
12616971 3 16558749057454097501
12670543 26 17385721391941011653
12954195 1 18041273249947037181
13533116 47 17775003509772821904
13668630 136 18411142411768852606
13685833 64 18342738516122898762
13782708 43 18342455989201376391
13914758 101 17560800997073128353
13955234 65 18057320802580198624
14251740 57 17560250102924414190
14251752 14 17894627028995197591
14251764 75 10446483632987810338
14341114 328 14189282760812351414
14347332 77 17895184459467374021
14528608 73 14490191630633289436
15183329 4 17822010882591345412
15188451 53 17846214411185501042
15475509 8 17458064837733378621
15510800 12 18270691866147892894
16760501 71 11383820584988812890
17844677 252 18260268559744759461
17857418 61 17561080323837982839
1813 80 17418380198780169184
18222031 100 18341901779537868868
19784866 240 18341899571402315856
1979834 28 15626232303586800260
2026 5 18413106148211183831
20567600 234 12175615191854237154
20567600 247 18410289224551724043
20645477 70 18334580153209919564
21150785 3 13912326811188380875
21267235 1 17386007317463865475
21315764 119 17604148138395160007
21521239 73 18113613530100060155
21637258 2 18202559588269677287
21641784 216 13912593927462077079
21859007 373 16128101023236857577
22061861 79 18335138700099052703
22079108 93 10952046749527378332
221357 26 16805321081085968308
2215653 11 17676490544699276254
22849339 104 16298964163382351883
2303208 19 18187931724434192779
23035841 295 17967248707232348849
23081809 10 17846788429153846521
23536379 177 18408040723699962605
23559900 14 18188769569395825233
25122255 55 18341058492389370755
2838139 119 11097848644296033198
29717793 49 18187083962029849260
3004659 81 17530963575562344458
3472631 163 12901842631223488826
34797466 226 17822294655613365317
3886686 26 15332686686299860526
4058900 60 14635417240176638105
4340502 62 12967132705148300060
465052 167 18343025501621869230
5104073 3 17275110521928433608
531348 171 18343578530791524655
5364581 5 11815310746698051359
5718773 13 18265050229194265586
59682541 52 17240475888632063586
59755656 215 17967527956920550387
6438161 24 18334003991404521450
8988823 20 17775280595456785304
960060 61 17313111847856766806

> <PUBCHEM_SHAPE_MULTIPOLES>
436.92
17.91
1.68
1.42
4.26
0.36
0.12
10.12
-4.64
-1.31
-0.02
-0.87
-0.04
0.86

> <PUBCHEM_SHAPE_SELFOVERLAP>
955.567

> <PUBCHEM_SHAPE_VOLUME>
235.1

> <PUBCHEM_COORDINATE_TYPE>
2
5
10

$$$$
