24882503
  -OEChem-10062121573D

 59 61  0     0  0  0  0  0  0999 V2000
    7.4064   -2.9810    0.2722 Cl  0  0  0  0  0  0  0  0  0  0  0  0
    7.2742    2.3303   -0.9899 Cl  0  0  0  0  0  0  0  0  0  0  0  0
   -6.1782   -0.9858    0.9262 O   0  0  0  0  0  0  0  0  0  0  0  0
    5.2369    1.1252    1.0336 O   0  0  0  0  0  0  0  0  0  0  0  0
   -9.5643   -0.2869   -0.3512 N   0  0  0  0  0  0  0  0  0  0  0  0
   -0.9520   -0.1755   -0.8234 N   0  0  0  0  0  0  0  0  0  0  0  0
    3.7853   -0.0728   -0.3601 N   0  0  0  0  0  0  0  0  0  0  0  0
    0.0475    1.2564    0.7849 N   0  0  0  0  0  0  0  0  0  0  0  0
    6.0606   -0.3997   -0.5365 N   0  0  0  0  0  0  0  0  0  0  0  0
    2.4457    1.3059    1.0156 N   0  0  0  0  0  0  0  0  0  0  0  0
   -8.4822   -0.4190    0.6238 C   0  0  0  0  0  0  0  0  0  0  0  0
   -9.4165    0.9523   -1.1137 C   0  0  0  0  0  0  0  0  0  0  0  0
  -10.8635   -0.3229    0.3191 C   0  0  0  0  0  0  0  0  0  0  0  0
   -7.2042   -0.8882   -0.0529 C   0  0  0  0  0  0  0  0  0  0  0  0
  -10.4978    1.0767   -2.1738 C   0  0  0  0  0  0  0  0  0  0  0  0
  -11.0180    0.8436    1.2801 C   0  0  0  0  0  0  0  0  0  0  0  0
   -4.8924   -0.7866    0.4958 C   0  0  0  0  0  0  0  0  0  0  0  0
   -4.5352   -1.1185   -0.8111 C   0  0  0  0  0  0  0  0  0  0  0  0
   -3.9412   -0.2516    1.3644 C   0  0  0  0  0  0  0  0  0  0  0  0
   -2.2754   -0.3801   -0.3808 C   0  0  0  0  0  0  0  0  0  0  0  0
   -3.2267   -0.9152   -1.2494 C   0  0  0  0  0  0  0  0  0  0  0  0
   -2.6326   -0.0483    0.9261 C   0  0  0  0  0  0  0  0  0  0  0  0
    0.1974    0.3359   -0.1901 C   0  0  0  0  0  0  0  0  0  0  0  0
    1.4213   -0.1423   -0.6113 C   0  0  0  0  0  0  0  0  0  0  0  0
    2.5219    0.3839    0.0335 C   0  0  0  0  0  0  0  0  0  0  0  0
    7.4597   -0.3185   -0.3428 C   0  0  0  0  0  0  0  0  0  0  0  0
    5.0521    0.3047    0.1405 C   0  0  0  0  0  0  0  0  0  0  0  0
    1.1961    1.6918    1.3367 C   0  0  0  0  0  0  0  0  0  0  0  0
    8.1787   -1.4535    0.0319 C   0  0  0  0  0  0  0  0  0  0  0  0
    8.1202    0.8963   -0.5261 C   0  0  0  0  0  0  0  0  0  0  0  0
    9.5581   -1.3738    0.2235 C   0  0  0  0  0  0  0  0  0  0  0  0
    9.4996    0.9761   -0.3348 C   0  0  0  0  0  0  0  0  0  0  0  0
   10.2186   -0.1590    0.0400 C   0  0  0  0  0  0  0  0  0  0  0  0
   -8.7322   -1.1674    1.3884 H   0  0  0  0  0  0  0  0  0  0  0  0
   -8.2813    0.5120    1.1700 H   0  0  0  0  0  0  0  0  0  0  0  0
   -9.3767    1.8566   -0.4961 H   0  0  0  0  0  0  0  0  0  0  0  0
   -8.4696    0.9324   -1.6641 H   0  0  0  0  0  0  0  0  0  0  0  0
  -11.6944   -0.3494   -0.3939 H   0  0  0  0  0  0  0  0  0  0  0  0
  -10.9568   -1.2630    0.8783 H   0  0  0  0  0  0  0  0  0  0  0  0
   -6.9198   -0.1724   -0.8312 H   0  0  0  0  0  0  0  0  0  0  0  0
   -7.3573   -1.8741   -0.5086 H   0  0  0  0  0  0  0  0  0  0  0  0
  -10.6002    0.1559   -2.7584 H   0  0  0  0  0  0  0  0  0  0  0  0
  -11.4728    1.3385   -1.7518 H   0  0  0  0  0  0  0  0  0  0  0  0
  -10.2342    1.8778   -2.8738 H   0  0  0  0  0  0  0  0  0  0  0  0
  -10.2453    0.8821    2.0527 H   0  0  0  0  0  0  0  0  0  0  0  0
  -11.0722    1.8145    0.7800 H   0  0  0  0  0  0  0  0  0  0  0  0
  -11.9700    0.7296    1.8131 H   0  0  0  0  0  0  0  0  0  0  0  0
   -5.2365   -1.5642   -1.5102 H   0  0  0  0  0  0  0  0  0  0  0  0
   -4.2134    0.0029    2.3851 H   0  0  0  0  0  0  0  0  0  0  0  0
   -2.9599   -1.1842   -2.2684 H   0  0  0  0  0  0  0  0  0  0  0  0
   -1.9315    0.3434    1.6526 H   0  0  0  0  0  0  0  0  0  0  0  0
   -0.7958   -0.4536   -1.7884 H   0  0  0  0  0  0  0  0  0  0  0  0
    1.5106   -0.8841   -1.3970 H   0  0  0  0  0  0  0  0  0  0  0  0
    3.7926   -0.7629   -1.1074 H   0  0  0  0  0  0  0  0  0  0  0  0
    5.7486   -1.3034   -0.8865 H   0  0  0  0  0  0  0  0  0  0  0  0
    1.1052    2.4314    2.1228 H   0  0  0  0  0  0  0  0  0  0  0  0
   10.1334   -2.2487    0.5158 H   0  0  0  0  0  0  0  0  0  0  0  0
   10.0298    1.9149   -0.4734 H   0  0  0  0  0  0  0  0  0  0  0  0
   11.2926   -0.0969    0.1891 H   0  0  0  0  0  0  0  0  0  0  0  0
  1 29  1  0  0  0  0
  2 30  1  0  0  0  0
  3 14  1  0  0  0  0
  3 17  1  0  0  0  0
  4 27  2  0  0  0  0
  5 11  1  0  0  0  0
  5 12  1  0  0  0  0
  5 13  1  0  0  0  0
  6 20  1  0  0  0  0
  6 23  1  0  0  0  0
  6 52  1  0  0  0  0
  7 25  1  0  0  0  0
  7 27  1  0  0  0  0
  7 54  1  0  0  0  0
  8 23  1  0  0  0  0
  8 28  2  0  0  0  0
  9 26  1  0  0  0  0
  9 27  1  0  0  0  0
  9 55  1  0  0  0  0
 10 25  2  0  0  0  0
 10 28  1  0  0  0  0
 11 14  1  0  0  0  0
 11 34  1  0  0  0  0
 11 35  1  0  0  0  0
 12 15  1  0  0  0  0
 12 36  1  0  0  0  0
 12 37  1  0  0  0  0
 13 16  1  0  0  0  0
 13 38  1  0  0  0  0
 13 39  1  0  0  0  0
 14 40  1  0  0  0  0
 14 41  1  0  0  0  0
 15 42  1  0  0  0  0
 15 43  1  0  0  0  0
 15 44  1  0  0  0  0
 16 45  1  0  0  0  0
 16 46  1  0  0  0  0
 16 47  1  0  0  0  0
 17 18  2  0  0  0  0
 17 19  1  0  0  0  0
 18 21  1  0  0  0  0
 18 48  1  0  0  0  0
 19 22  2  0  0  0  0
 19 49  1  0  0  0  0
 20 21  2  0  0  0  0
 20 22  1  0  0  0  0
 21 50  1  0  0  0  0
 22 51  1  0  0  0  0
 23 24  2  0  0  0  0
 24 25  1  0  0  0  0
 24 53  1  0  0  0  0
 26 29  2  0  0  0  0
 26 30  1  0  0  0  0
 28 56  1  0  0  0  0
 29 31  1  0  0  0  0
 30 32  2  0  0  0  0
 31 33  2  0  0  0  0
 31 57  1  0  0  0  0
 32 33  1  0  0  0  0
 32 58  1  0  0  0  0
 33 59  1  0  0  0  0
M  END
> <PUBCHEM_COMPOUND_CID>
24882503

> <PUBCHEM_CONFORMER_RMSD>
1.2

> <PUBCHEM_CONFORMER_DIVERSEORDER>
2
13
10
29
24
28
4
19
42
37
3
30
32
17
44
12
11
23
25
9
15
39
26
36
20
27
22
40
33
16
38
31
5
8
14
7
18
1
34
43
6
21
41
35

> <PUBCHEM_MMFF94_PARTIAL_CHARGES>
43
1 -0.18
10 -0.62
11 0.27
12 0.27
13 0.27
14 0.28
17 0.08
18 -0.15
19 -0.15
2 -0.18
20 0.1
21 -0.15
22 -0.15
23 0.41
24 -0.15
25 0.43
26 0.12
27 0.69
28 0.47
29 0.18
3 -0.36
30 0.18
31 -0.15
32 -0.15
33 -0.15
4 -0.57
48 0.15
49 0.15
5 -0.81
50 0.15
51 0.15
52 0.4
53 0.15
54 0.37
55 0.37
56 0.15
57 0.15
58 0.15
59 0.15
6 -0.6
7 -0.55
8 -0.62
9 -0.55

> <PUBCHEM_EFFECTIVE_ROTOR_COUNT>
12

> <PUBCHEM_PHARMACOPHORE_FEATURES>
11
1 3 acceptor
1 4 acceptor
1 5 cation
1 6 cation
1 6 donor
1 7 donor
1 9 donor
3 8 10 28 cation
6 17 18 19 20 21 22 rings
6 26 29 30 31 32 33 rings
6 8 10 23 24 25 28 rings

> <PUBCHEM_HEAVY_ATOM_COUNT>
33

> <PUBCHEM_ATOM_DEF_STEREO_COUNT>
0

> <PUBCHEM_ATOM_UDEF_STEREO_COUNT>
0

> <PUBCHEM_BOND_DEF_STEREO_COUNT>
0

> <PUBCHEM_BOND_UDEF_STEREO_COUNT>
0

> <PUBCHEM_ISOTOPIC_ATOM_COUNT>
0

> <PUBCHEM_COMPONENT_COUNT>
1

> <PUBCHEM_CACTVS_TAUTO_COUNT>
22

> <PUBCHEM_CONFORMER_ID>
017BAD4700000002

> <PUBCHEM_MMFF94_ENERGY>
116.838

> <PUBCHEM_FEATURE_SELFOVERLAP>
55.871

> <PUBCHEM_SHAPE_FINGERPRINT>
10162869 55 16415477164151446868
10299344 5 18202004344147091422
106641 1 11384114146293047105
10674148 151 17167581601042746001
11409948 35 18335699387080216258
12013929 2 18333449837754728779
12089408 11 18411419553002034487
12559415 86 18261961747748430213
12664476 115 17346598573354295465
12741549 16 18413389834589526072
13947947 74 16515684438072942993
14251764 46 18410576192769922535
14344974 52 11383826069978222975
15061470 23 18409448090183615277
15065858 18 18259984898428793291
15347591 1 11387457731489275969
15392192 104 11815900046296913796
15461852 350 14548740617045444105
15510794 2 18041002864454454955
16664035 7 15482674572232791499
20105231 36 16008751325269507451
21362267 2 18338222881829743844
21362267 313 15481844380291949190
21792934 111 17418089936716803856
21792961 116 18411697660882724773
21792965 68 18336830798585133769
232437 2 18410012148175120027
23522609 53 17914644798448583192
3092352 35 10737281360141876080
335352 9 17561365106087386269
4353968 344 17060617781968750217
437795 160 14189282778002907007
439807 62 18413389839737976762
4625314 4 18187649162630354255
5028188 123 17022904584343039083
5219985 9 17988924483773584576
5381727 24 11167942454811267501
58083652 198 17917437570271372464
6081469 158 18413389834625793029
6691757 9 15841558509382707583
9663363 56 18343862226113502192
9937071 3 17967819340640085882

> <PUBCHEM_SHAPE_MULTIPOLES>
641.24
46.56
1.75
1.27
41.4
0.29
-0.09
0.32
-5.1
-3.98
-0.06
2.7
-0.37
0.47

> <PUBCHEM_SHAPE_SELFOVERLAP>
1333.359

> <PUBCHEM_SHAPE_VOLUME>
364.3

> <PUBCHEM_COORDINATE_TYPE>
2
5
10

$$$$
