56846693
  -OEChem-10062121563D

 59 62  0     0  0  0  0  0  0999 V2000
   -7.5744   -1.5562    1.9713 F   0  0  0  0  0  0  0  0  0  0  0  0
   -9.0505   -2.5019    0.6856 F   0  0  0  0  0  0  0  0  0  0  0  0
   -6.9474   -3.0529    0.5178 F   0  0  0  0  0  0  0  0  0  0  0  0
   -5.2117   -1.2966   -0.5926 O   0  0  0  0  0  0  0  0  0  0  0  0
    3.2922    1.4568   -0.6369 O   0  0  0  0  0  0  0  0  0  0  0  0
    6.6619   -2.0108   -2.2194 O   0  0  0  0  0  0  0  0  0  0  0  0
    7.5620   -3.2249    0.1132 O   0  0  0  0  0  0  0  0  0  0  0  0
   -1.3170    0.4903   -0.5274 O   0  0  0  0  0  0  0  0  0  0  0  0
   -3.9888   -0.6378   -0.5556 N   0  0  0  0  0  0  0  0  0  0  0  0
   -3.3169    1.6612   -0.2149 N   0  0  0  0  0  0  0  0  0  0  0  0
   -1.3098    2.8017   -0.1450 N   0  0  0  0  0  0  0  0  0  0  0  0
    4.7164   -0.4227    2.7072 N   0  0  0  0  0  0  0  0  0  0  0  0
    3.2991    1.2142    1.6497 N   0  0  0  0  0  0  0  0  0  0  0  0
   -7.5793   -0.9300   -0.3927 C   0  0  0  0  0  0  0  0  0  0  0  0
   -6.2101   -0.4002   -0.3856 C   0  0  0  0  0  0  0  0  0  0  0  0
   -7.7909   -2.0141    0.7158 C   0  0  0  0  0  0  0  0  0  0  0  0
   -7.9705   -1.5977   -1.7614 C   0  0  0  0  0  0  0  0  0  0  0  0
   -8.7212    0.1306   -0.1501 C   0  0  0  0  0  0  0  0  0  0  0  0
   -5.6782    0.8499   -0.2101 C   0  0  0  0  0  0  0  0  0  0  0  0
   -4.2928    0.6428   -0.3259 C   0  0  0  0  0  0  0  0  0  0  0  0
   -1.9222    1.5366   -0.3182 C   0  0  0  0  0  0  0  0  0  0  0  0
    4.7384   -0.2004    0.3195 C   0  0  0  0  0  0  0  0  0  0  0  0
    5.1851   -0.8043    1.5062 C   0  0  0  0  0  0  0  0  0  0  0  0
    0.0478    3.1230   -0.1722 C   0  0  0  0  0  0  0  0  0  0  0  0
    3.7894    0.8078    0.4635 C   0  0  0  0  0  0  0  0  0  0  0  0
    5.2357   -0.6074   -0.9307 C   0  0  0  0  0  0  0  0  0  0  0  0
    6.1844   -1.6225   -1.0053 C   0  0  0  0  0  0  0  0  0  0  0  0
    6.6343   -2.2279    0.1628 C   0  0  0  0  0  0  0  0  0  0  0  0
    6.1350   -1.8175    1.4023 C   0  0  0  0  0  0  0  0  0  0  0  0
    2.3538    2.4454   -0.4196 C   0  0  0  0  0  0  0  0  0  0  0  0
    0.9966    2.1245   -0.3930 C   0  0  0  0  0  0  0  0  0  0  0  0
    0.4565    4.4426    0.0220 C   0  0  0  0  0  0  0  0  0  0  0  0
    2.7623    3.7651   -0.2254 C   0  0  0  0  0  0  0  0  0  0  0  0
    1.8137    4.7636   -0.0043 C   0  0  0  0  0  0  0  0  0  0  0  0
    3.7989    0.5656    2.7138 C   0  0  0  0  0  0  0  0  0  0  0  0
    6.1456   -1.3362   -3.3658 C   0  0  0  0  0  0  0  0  0  0  0  0
    7.0725   -4.5598    0.0016 C   0  0  0  0  0  0  0  0  0  0  0  0
   -8.9944   -1.9870   -1.7489 H   0  0  0  0  0  0  0  0  0  0  0  0
   -7.8906   -0.8722   -2.5794 H   0  0  0  0  0  0  0  0  0  0  0  0
   -7.2971   -2.4304   -1.9946 H   0  0  0  0  0  0  0  0  0  0  0  0
   -9.7174   -0.3244   -0.1754 H   0  0  0  0  0  0  0  0  0  0  0  0
   -8.6876    0.9143   -0.9158 H   0  0  0  0  0  0  0  0  0  0  0  0
   -8.5944    0.6159    0.8245 H   0  0  0  0  0  0  0  0  0  0  0  0
   -6.2102    1.7719   -0.0262 H   0  0  0  0  0  0  0  0  0  0  0  0
   -3.6940    2.5888   -0.0391 H   0  0  0  0  0  0  0  0  0  0  0  0
   -1.9406    3.5819    0.0214 H   0  0  0  0  0  0  0  0  0  0  0  0
    4.8503   -0.1012   -1.8093 H   0  0  0  0  0  0  0  0  0  0  0  0
    6.4995   -2.3028    2.3065 H   0  0  0  0  0  0  0  0  0  0  0  0
    0.7538    1.0835   -0.5527 H   0  0  0  0  0  0  0  0  0  0  0  0
   -0.2718    5.2309    0.1952 H   0  0  0  0  0  0  0  0  0  0  0  0
    3.8179    4.0223   -0.2457 H   0  0  0  0  0  0  0  0  0  0  0  0
    2.1319    5.7909    0.1469 H   0  0  0  0  0  0  0  0  0  0  0  0
    3.4252    0.8684    3.6843 H   0  0  0  0  0  0  0  0  0  0  0  0
    5.0701   -1.5071   -3.4845 H   0  0  0  0  0  0  0  0  0  0  0  0
    6.4015   -0.2712   -3.3570 H   0  0  0  0  0  0  0  0  0  0  0  0
    6.6347   -1.7726   -4.2430 H   0  0  0  0  0  0  0  0  0  0  0  0
    7.9300   -5.2373   -0.0340 H   0  0  0  0  0  0  0  0  0  0  0  0
    6.4916   -4.6819   -0.9181 H   0  0  0  0  0  0  0  0  0  0  0  0
    6.4589   -4.8170    0.8708 H   0  0  0  0  0  0  0  0  0  0  0  0
  1 16  1  0  0  0  0
  2 16  1  0  0  0  0
  3 16  1  0  0  0  0
  4  9  1  0  0  0  0
  4 15  1  0  0  0  0
  5 25  1  0  0  0  0
  5 30  1  0  0  0  0
  6 27  1  0  0  0  0
  6 36  1  0  0  0  0
  7 28  1  0  0  0  0
  7 37  1  0  0  0  0
  8 21  2  0  0  0  0
  9 20  2  0  0  0  0
 10 20  1  0  0  0  0
 10 21  1  0  0  0  0
 10 45  1  0  0  0  0
 11 21  1  0  0  0  0
 11 24  1  0  0  0  0
 11 46  1  0  0  0  0
 12 23  1  0  0  0  0
 12 35  2  0  0  0  0
 13 25  2  0  0  0  0
 13 35  1  0  0  0  0
 14 15  1  0  0  0  0
 14 16  1  0  0  0  0
 14 17  1  0  0  0  0
 14 18  1  0  0  0  0
 15 19  2  0  0  0  0
 17 38  1  0  0  0  0
 17 39  1  0  0  0  0
 17 40  1  0  0  0  0
 18 41  1  0  0  0  0
 18 42  1  0  0  0  0
 18 43  1  0  0  0  0
 19 20  1  0  0  0  0
 19 44  1  0  0  0  0
 22 23  1  0  0  0  0
 22 25  1  0  0  0  0
 22 26  2  0  0  0  0
 23 29  2  0  0  0  0
 24 31  2  0  0  0  0
 24 32  1  0  0  0  0
 26 27  1  0  0  0  0
 26 47  1  0  0  0  0
 27 28  2  0  0  0  0
 28 29  1  0  0  0  0
 29 48  1  0  0  0  0
 30 31  1  0  0  0  0
 30 33  2  0  0  0  0
 31 49  1  0  0  0  0
 32 34  2  0  0  0  0
 32 50  1  0  0  0  0
 33 34  1  0  0  0  0
 33 51  1  0  0  0  0
 34 52  1  0  0  0  0
 35 53  1  0  0  0  0
 36 54  1  0  0  0  0
 36 55  1  0  0  0  0
 36 56  1  0  0  0  0
 37 57  1  0  0  0  0
 37 58  1  0  0  0  0
 37 59  1  0  0  0  0
M  END
> <PUBCHEM_COMPOUND_CID>
56846693

> <PUBCHEM_CONFORMER_RMSD>
1.4

> <PUBCHEM_CONFORMER_DIVERSEORDER>
2
106
63
71
26
85
31
3
82
88
98
49
95
40
59
17
92
109
73
27
80
13
105
107
48
7
91
112
79
32
66
64
83
87
8
29
70
93
34
16
60
84
23
110
39
1
61
111
35
103
78
77
104
44
108
101
33
28
41
51
90
69
30
42
47
52
10
36
99
86
89
20
37
15
94
75
19
97
45
14
96
22
18
74
53
68
65
100
54
43
81
4
38
58
76
62
5
102
56
72
67
12
21
6
46
9
24
57
25
55
50
11

> <PUBCHEM_MMFF94_PARTIAL_CHARGES>
44
1 -0.34
10 -0.49
11 -0.55
12 -0.62
13 -0.62
14 0.18
15 -0.04
16 1.02
19 -0.15
2 -0.34
20 0.35
21 0.69
23 0.31
24 0.12
25 0.39
26 -0.15
27 0.08
28 0.08
29 -0.15
3 -0.34
30 0.08
31 -0.15
32 -0.15
33 -0.15
34 -0.15
35 0.47
36 0.28
37 0.28
4 -0.02
44 0.15
45 0.37
46 0.37
47 0.15
48 0.15
49 0.15
5 -0.17
50 0.15
51 0.15
52 0.15
53 0.15
6 -0.36
7 -0.36
8 -0.57
9 -0.41

> <PUBCHEM_EFFECTIVE_ROTOR_COUNT>
10

> <PUBCHEM_PHARMACOPHORE_FEATURES>
11
1 10 donor
1 11 donor
1 6 acceptor
1 7 acceptor
1 8 acceptor
3 12 13 35 cation
3 14 17 18 hydrophobe
5 4 9 15 19 20 rings
6 12 13 22 23 25 35 rings
6 22 23 26 27 28 29 rings
6 24 30 31 32 33 34 rings

> <PUBCHEM_HEAVY_ATOM_COUNT>
37

> <PUBCHEM_ATOM_DEF_STEREO_COUNT>
0

> <PUBCHEM_ATOM_UDEF_STEREO_COUNT>
0

> <PUBCHEM_BOND_DEF_STEREO_COUNT>
0

> <PUBCHEM_BOND_UDEF_STEREO_COUNT>
0

> <PUBCHEM_ISOTOPIC_ATOM_COUNT>
0

> <PUBCHEM_COMPONENT_COUNT>
1

> <PUBCHEM_CACTVS_TAUTO_COUNT>
5

> <PUBCHEM_CONFORMER_ID>
0363696500000002

> <PUBCHEM_MMFF94_ENERGY>
128.5952

> <PUBCHEM_FEATURE_SELFOVERLAP>
55.905

> <PUBCHEM_SHAPE_FINGERPRINT>
10258705 36 18042698385064172627
10533779 1 8646482981992323646
10981352 41 18060132146252791542
11421887 103 9366762062986230762
11621639 208 17971762335187331178
117089 54 18338519630004706762
11761917 87 18334305279756238099
11828532 37 18260556653245000226
12124843 1 17676774163207884214
12342043 65 17845081875960569512
12728208 25 18343581867785921923
13248334 5 18194118740710518308
13383661 66 17559126363523381878
1361 4 18191303995490086003
1361 87 17530976803697834569
13692115 27 18409728426393210181
13782708 43 17916297252422741828
13947947 140 17988362559800408030
15152005 304 18338807718862483302
15467298 65 17693646426613209631
15684393 108 18113905982802137958
15803439 3 14201408161652967896
16991971 28 18409728443683049991
19301679 30 18343021056188838492
1979834 28 17632861940310003684
19841028 212 18408321094448040041
2026 5 18410570713510848959
20501277 180 8213881275396953775
208703 8 18335976502158127992
20982279 24 17677063434341645539
21130935 74 18267024045949752753
21585482 310 18411426115685721775
23569943 247 18409450280975561411
25025965 108 18059282284918553927
255183 451 18334011692344719516
2748736 6 9799401209675532888
3504750 166 18201996639118505685
406291 66 18411980256671852407
4169191 19 9151181952668235295
44880168 125 18201988946214679583
474113 269 18271230700154547733
5718773 13 18409727339755090197
6289498 60 10519984855232176631
6712543 237 16343697738345168727
7970288 3 18337384938410033326
9831232 110 18334571330898850143
9849439 229 9799684909699004172
9962374 69 18268700778747243925

> <PUBCHEM_SHAPE_MULTIPOLES>
685.37
29.11
5.31
1.93
48.21
3.32
0.09
-38.73
0.91
-5.66
0.28
-3.88
-1.11
1.83

> <PUBCHEM_SHAPE_SELFOVERLAP>
1495.477

> <PUBCHEM_SHAPE_VOLUME>
375.3

> <PUBCHEM_COORDINATE_TYPE>
2
5
10

$$$$
