49830594
  -OEChem-10062121563D

 33 35  0     0  0  0  0  0  0999 V2000
   -0.9244   -2.4127    0.0647 Cl  0  0  0  0  0  0  0  0  0  0  0  0
   -3.8063   -3.8281   -0.1322 Cl  0  0  0  0  0  0  0  0  0  0  0  0
   -3.1237    2.3567    0.1793 S   0  0  0  0  0  0  0  0  0  0  0  0
    1.1743    1.4132   -1.6190 O   0  0  0  0  0  0  0  0  0  0  0  0
    0.2016    0.3480    0.2406 N   0  0  0  0  0  0  0  0  0  0  0  0
    0.2382    4.0636    0.4109 N   0  0  0  0  0  0  0  0  0  0  0  0
   -2.2740   -0.0842    0.1074 C   0  0  0  0  0  0  0  0  0  0  0  0
   -1.1197    0.7640    0.1989 C   0  0  0  0  0  0  0  0  0  0  0  0
   -3.4534    0.6666    0.0872 C   0  0  0  0  0  0  0  0  0  0  0  0
   -1.4399    2.1001    0.2447 C   0  0  0  0  0  0  0  0  0  0  0  0
   -2.3772   -1.4946    0.0389 C   0  0  0  0  0  0  0  0  0  0  0  0
   -4.7173    0.0506    0.0011 C   0  0  0  0  0  0  0  0  0  0  0  0
    2.5746    0.0929   -0.3125 C   0  0  0  0  0  0  0  0  0  0  0  0
    1.2486    0.6802   -0.6387 C   0  0  0  0  0  0  0  0  0  0  0  0
   -3.6294   -2.1089   -0.0467 C   0  0  0  0  0  0  0  0  0  0  0  0
   -4.7860   -1.3423   -0.0653 C   0  0  0  0  0  0  0  0  0  0  0  0
    3.5053   -0.1356   -1.3261 C   0  0  0  0  0  0  0  0  0  0  0  0
    2.8880   -0.2305    1.0077 C   0  0  0  0  0  0  0  0  0  0  0  0
    5.0622   -1.0109    0.3005 C   0  0  0  0  0  0  0  0  0  0  0  0
    4.7490   -0.6875   -1.0198 C   0  0  0  0  0  0  0  0  0  0  0  0
    4.1317   -0.7825    1.3142 C   0  0  0  0  0  0  0  0  0  0  0  0
    6.3923   -1.6011    0.6277 C   0  0  0  0  0  0  0  0  0  0  0  0
   -0.5142    3.1831    0.3364 C   0  0  0  0  0  0  0  0  0  0  0  0
    0.3279   -0.5257    0.7472 H   0  0  0  0  0  0  0  0  0  0  0  0
   -5.6279    0.6429   -0.0140 H   0  0  0  0  0  0  0  0  0  0  0  0
   -5.7651   -1.8116   -0.1316 H   0  0  0  0  0  0  0  0  0  0  0  0
    3.2785    0.1049   -2.3615 H   0  0  0  0  0  0  0  0  0  0  0  0
    2.1960   -0.0464    1.8247 H   0  0  0  0  0  0  0  0  0  0  0  0
    5.4659   -0.8604   -1.8181 H   0  0  0  0  0  0  0  0  0  0  0  0
    4.3668   -1.0244    2.3474 H   0  0  0  0  0  0  0  0  0  0  0  0
    7.1135   -0.8061    0.8419 H   0  0  0  0  0  0  0  0  0  0  0  0
    6.3284   -2.2610    1.4996 H   0  0  0  0  0  0  0  0  0  0  0  0
    6.7717   -2.2049   -0.2036 H   0  0  0  0  0  0  0  0  0  0  0  0
  1 11  1  0  0  0  0
  2 15  1  0  0  0  0
  3  9  1  0  0  0  0
  3 10  1  0  0  0  0
  4 14  2  0  0  0  0
  5  8  1  0  0  0  0
  5 14  1  0  0  0  0
  5 24  1  0  0  0  0
  6 23  3  0  0  0  0
  7  8  1  0  0  0  0
  7  9  2  0  0  0  0
  7 11  1  0  0  0  0
  8 10  2  0  0  0  0
  9 12  1  0  0  0  0
 10 23  1  0  0  0  0
 11 15  2  0  0  0  0
 12 16  2  0  0  0  0
 12 25  1  0  0  0  0
 13 14  1  0  0  0  0
 13 17  2  0  0  0  0
 13 18  1  0  0  0  0
 15 16  1  0  0  0  0
 16 26  1  0  0  0  0
 17 20  1  0  0  0  0
 17 27  1  0  0  0  0
 18 21  2  0  0  0  0
 18 28  1  0  0  0  0
 19 20  2  0  0  0  0
 19 21  1  0  0  0  0
 19 22  1  0  0  0  0
 20 29  1  0  0  0  0
 21 30  1  0  0  0  0
 22 31  1  0  0  0  0
 22 32  1  0  0  0  0
 22 33  1  0  0  0  0
M  END
> <PUBCHEM_COMPOUND_CID>
49830594

> <PUBCHEM_CONFORMER_RMSD>
0.6

> <PUBCHEM_CONFORMER_DIVERSEORDER>
2
6
1
5
3
4

> <PUBCHEM_MMFF94_PARTIAL_CHARGES>
29
1 -0.18
10 0.06
11 0.18
12 -0.15
13 0.09
14 0.54
15 0.18
16 -0.15
17 -0.15
18 -0.15
19 -0.14
2 -0.18
20 -0.15
21 -0.15
22 0.14
23 0.54
24 0.37
25 0.15
26 0.15
27 0.15
28 0.15
29 0.15
3 -0.08
30 0.15
4 -0.57
5 -0.49
6 -0.56
8 0.06
9 0.04

> <PUBCHEM_EFFECTIVE_ROTOR_COUNT>
3

> <PUBCHEM_PHARMACOPHORE_FEATURES>
6
1 4 acceptor
1 5 donor
1 6 acceptor
5 3 7 8 9 10 rings
6 13 17 18 19 20 21 rings
6 7 9 11 12 15 16 rings

> <PUBCHEM_HEAVY_ATOM_COUNT>
23

> <PUBCHEM_ATOM_DEF_STEREO_COUNT>
0

> <PUBCHEM_ATOM_UDEF_STEREO_COUNT>
0

> <PUBCHEM_BOND_DEF_STEREO_COUNT>
0

> <PUBCHEM_BOND_UDEF_STEREO_COUNT>
0

> <PUBCHEM_ISOTOPIC_ATOM_COUNT>
0

> <PUBCHEM_COMPONENT_COUNT>
1

> <PUBCHEM_CACTVS_TAUTO_COUNT>
5

> <PUBCHEM_CONFORMER_ID>
02F85AC200000002

> <PUBCHEM_MMFF94_ENERGY>
71.549

> <PUBCHEM_FEATURE_SELFOVERLAP>
30.507

> <PUBCHEM_SHAPE_FINGERPRINT>
10319926 262 18126546961393062066
10411042 1 18267302217706703155
1100329 8 18411141368344753937
11056379 131 18196098746397554972
12236239 1 17895197679698237028
12553582 1 18410860983857167651
12633257 1 18270134490860651933
12788726 201 18336278863655757600
13140716 1 18342459265881745113
13583140 156 17631718367208485462
13782708 43 17489033661093678326
13862211 1 18411698825061701943
14790565 3 17765160466996916833
14844126 61 18409166571787480539
14866123 147 18412269420188480515
15042514 8 18411421665877874585
16752209 62 18407757023634631251
17492 89 18051409871018901675
200 152 17894916208863727304
20511986 3 17822281362974245220
20600515 1 18130520655654465977
20775438 99 17256511449611780059
21033648 29 17060043810041985818
21267235 1 18335146388196325819
2297311 6 18342465802995613988
23366157 5 17974007550815877981
23402539 116 18342734079342840221
23557571 272 18059301963075802348
23559900 14 18341042020941740969
3004659 81 18113899373021425022
3178227 256 18337690629056561433
335352 9 18411136940402185917
397830 11 18199730528595064642
4409770 3 18117549644431262053
463206 1 18334576888312790035
5104073 3 18271814574365656897
559249 180 18187925028284999635
59755656 215 18339923697584048983
602551 16 18341333301882338306
67856867 119 18262241139877317052
7970288 3 18337951293851664058
9709674 26 18200322017435127062

> <PUBCHEM_SHAPE_MULTIPOLES>
465.09
11.63
3.8
1.01
12.12
1.16
-0.14
-8.38
0.8
-4.3
0.34
1.18
0.04
-0.7

> <PUBCHEM_SHAPE_SELFOVERLAP>
990.757

> <PUBCHEM_SHAPE_VOLUME>
261.2

> <PUBCHEM_COORDINATE_TYPE>
2
5
10

$$$$
