49830363
  -OEChem-10052115183D

 60 64  0     0  0  0  0  0  0999 V2000
    4.0405    0.9977   -1.4424 S   0  0  0  0  0  0  0  0  0  0  0  0
    9.4281    2.2593    0.0942 O   0  0  0  0  0  0  0  0  0  0  0  0
   -4.6919   -0.4159   -0.7527 O   0  0  0  0  0  0  0  0  0  0  0  0
  -11.1732   -0.7662   -0.5927 O   0  0  0  0  0  0  0  0  0  0  0  0
    8.5476   -0.4293   -0.3635 N   0  0  0  0  0  0  0  0  0  0  0  0
    3.5554   -1.9937    1.8559 N   0  0  0  0  0  0  0  0  0  0  0  0
    8.2174   -0.7753   -1.6195 N   0  0  0  0  0  0  0  0  0  0  0  0
    1.2580   -1.4462    1.9555 N   0  0  0  0  0  0  0  0  0  0  0  0
   -3.7162    1.1507    0.6905 N   0  0  0  0  0  0  0  0  0  0  0  0
   -6.0138    0.9173    0.6415 N   0  0  0  0  0  0  0  0  0  0  0  0
    2.7192   -0.3249    0.3433 C   0  0  0  0  0  0  0  0  0  0  0  0
    4.0047   -0.1827   -0.1869 C   0  0  0  0  0  0  0  0  0  0  0  0
    1.7895    0.5532   -0.3076 C   0  0  0  0  0  0  0  0  0  0  0  0
    5.0781   -0.9410    0.2954 C   0  0  0  0  0  0  0  0  0  0  0  0
    6.4005   -0.8097   -0.2356 C   0  0  0  0  0  0  0  0  0  0  0  0
    0.3782    0.7069   -0.0524 C   0  0  0  0  0  0  0  0  0  0  0  0
    2.5295   -1.2538    1.3788 C   0  0  0  0  0  0  0  0  0  0  0  0
    2.3736    1.3194   -1.2882 C   0  0  0  0  0  0  0  0  0  0  0  0
    4.7785   -1.8254    1.3168 C   0  0  0  0  0  0  0  0  0  0  0  0
    7.4952   -0.4344    0.5042 C   0  0  0  0  0  0  0  0  0  0  0  0
    6.9046   -1.0063   -1.5352 C   0  0  0  0  0  0  0  0  0  0  0  0
   -0.5451   -0.0780   -0.7434 C   0  0  0  0  0  0  0  0  0  0  0  0
   -0.0635    1.6395    0.8861 C   0  0  0  0  0  0  0  0  0  0  0  0
    9.9161   -0.0971   -0.0480 C   0  0  0  0  0  0  0  0  0  0  0  0
   -2.3513    1.0031    0.4422 C   0  0  0  0  0  0  0  0  0  0  0  0
   -1.9098    0.0702   -0.4962 C   0  0  0  0  0  0  0  0  0  0  0  0
   -1.4282    1.7878    1.1334 C   0  0  0  0  0  0  0  0  0  0  0  0
   10.2935    1.3062   -0.5099 C   0  0  0  0  0  0  0  0  0  0  0  0
   -4.8019    0.4572    0.1021 C   0  0  0  0  0  0  0  0  0  0  0  0
   -7.3253    0.4891    0.3276 C   0  0  0  0  0  0  0  0  0  0  0  0
   -8.4199    1.0665    0.9710 C   0  0  0  0  0  0  0  0  0  0  0  0
   -7.5237   -0.5102   -0.6252 C   0  0  0  0  0  0  0  0  0  0  0  0
   -9.9113   -0.3548   -0.2908 C   0  0  0  0  0  0  0  0  0  0  0  0
   -9.7130    0.6447    0.6619 C   0  0  0  0  0  0  0  0  0  0  0  0
   -8.8167   -0.9321   -0.9344 C   0  0  0  0  0  0  0  0  0  0  0  0
  -11.3036   -1.7919   -1.5759 C   0  0  0  0  0  0  0  0  0  0  0  0
    1.9085    2.0572   -1.9286 H   0  0  0  0  0  0  0  0  0  0  0  0
    5.5449   -2.4601    1.7544 H   0  0  0  0  0  0  0  0  0  0  0  0
    7.6134   -0.1739    1.5479 H   0  0  0  0  0  0  0  0  0  0  0  0
    6.3758   -1.3121   -2.4272 H   0  0  0  0  0  0  0  0  0  0  0  0
   -0.2160   -0.8105   -1.4770 H   0  0  0  0  0  0  0  0  0  0  0  0
    0.6432    2.2581    1.4344 H   0  0  0  0  0  0  0  0  0  0  0  0
   10.5619   -0.8496   -0.5131 H   0  0  0  0  0  0  0  0  0  0  0  0
   10.0276   -0.1777    1.0395 H   0  0  0  0  0  0  0  0  0  0  0  0
   -2.5596   -0.5740   -1.0711 H   0  0  0  0  0  0  0  0  0  0  0  0
   -1.7581    2.5182    1.8678 H   0  0  0  0  0  0  0  0  0  0  0  0
    0.4374   -0.9425    1.6660 H   0  0  0  0  0  0  0  0  0  0  0  0
    1.1757   -2.1282    2.6984 H   0  0  0  0  0  0  0  0  0  0  0  0
   11.3237    1.5351   -0.2203 H   0  0  0  0  0  0  0  0  0  0  0  0
   10.2026    1.4002   -1.5970 H   0  0  0  0  0  0  0  0  0  0  0  0
   -3.9603    1.8500    1.3875 H   0  0  0  0  0  0  0  0  0  0  0  0
   -5.9516    1.6487    1.3453 H   0  0  0  0  0  0  0  0  0  0  0  0
    9.7044    3.1361   -0.2227 H   0  0  0  0  0  0  0  0  0  0  0  0
   -8.2791    1.8461    1.7153 H   0  0  0  0  0  0  0  0  0  0  0  0
   -6.7293   -1.0048   -1.1655 H   0  0  0  0  0  0  0  0  0  0  0  0
  -10.5618    1.0981    1.1664 H   0  0  0  0  0  0  0  0  0  0  0  0
   -8.9004   -1.7122   -1.6836 H   0  0  0  0  0  0  0  0  0  0  0  0
  -10.8342   -2.7256   -1.2482 H   0  0  0  0  0  0  0  0  0  0  0  0
  -12.3733   -1.9953   -1.6907 H   0  0  0  0  0  0  0  0  0  0  0  0
  -10.9344   -1.4620   -2.5530 H   0  0  0  0  0  0  0  0  0  0  0  0
  1 12  1  0  0  0  0
  1 18  1  0  0  0  0
  2 28  1  0  0  0  0
  2 53  1  0  0  0  0
  3 29  2  0  0  0  0
  4 33  1  0  0  0  0
  4 36  1  0  0  0  0
  5  7  1  0  0  0  0
  5 20  1  0  0  0  0
  5 24  1  0  0  0  0
  6 17  2  0  0  0  0
  6 19  1  0  0  0  0
  7 21  2  0  0  0  0
  8 17  1  0  0  0  0
  8 47  1  0  0  0  0
  8 48  1  0  0  0  0
  9 25  1  0  0  0  0
  9 29  1  0  0  0  0
  9 51  1  0  0  0  0
 10 29  1  0  0  0  0
 10 30  1  0  0  0  0
 10 52  1  0  0  0  0
 11 12  2  0  0  0  0
 11 13  1  0  0  0  0
 11 17  1  0  0  0  0
 12 14  1  0  0  0  0
 13 16  1  0  0  0  0
 13 18  2  0  0  0  0
 14 15  1  0  0  0  0
 14 19  2  0  0  0  0
 15 20  2  0  0  0  0
 15 21  1  0  0  0  0
 16 22  2  0  0  0  0
 16 23  1  0  0  0  0
 18 37  1  0  0  0  0
 19 38  1  0  0  0  0
 20 39  1  0  0  0  0
 21 40  1  0  0  0  0
 22 26  1  0  0  0  0
 22 41  1  0  0  0  0
 23 27  2  0  0  0  0
 23 42  1  0  0  0  0
 24 28  1  0  0  0  0
 24 43  1  0  0  0  0
 24 44  1  0  0  0  0
 25 26  2  0  0  0  0
 25 27  1  0  0  0  0
 26 45  1  0  0  0  0
 27 46  1  0  0  0  0
 28 49  1  0  0  0  0
 28 50  1  0  0  0  0
 30 31  2  0  0  0  0
 30 32  1  0  0  0  0
 31 34  1  0  0  0  0
 31 54  1  0  0  0  0
 32 35  2  0  0  0  0
 32 55  1  0  0  0  0
 33 34  2  0  0  0  0
 33 35  1  0  0  0  0
 34 56  1  0  0  0  0
 35 57  1  0  0  0  0
 36 58  1  0  0  0  0
 36 59  1  0  0  0  0
 36 60  1  0  0  0  0
M  END
> <PUBCHEM_COMPOUND_CID>
49830363

> <PUBCHEM_CONFORMER_RMSD>
1

> <PUBCHEM_CONFORMER_DIVERSEORDER>
1
37
38
10
15
23
17
5
19
12
36
9
13
32
29
35
39
4
34
31
11
28
7
18
25
27
22
33
16
8
21
26
14
6
24
3
20
30
2

> <PUBCHEM_MMFF94_PARTIAL_CHARGES>
52
1 -0.08
10 -0.55
12 0.04
13 -0.05
14 0.05
15 -0.05
16 0.05
17 0.41
18 -0.11
19 0.16
2 -0.68
20 -0.3
21 0.14
22 -0.15
23 -0.15
24 0.26
25 0.12
26 -0.15
27 -0.15
28 0.28
29 0.69
3 -0.57
30 0.12
31 -0.15
32 -0.15
33 0.08
34 -0.15
35 -0.15
36 0.28
37 0.15
38 0.15
39 0.15
4 -0.36
40 0.15
41 0.15
42 0.15
45 0.15
46 0.15
47 0.4
48 0.4
5 0.31
51 0.37
52 0.37
53 0.4
54 0.15
55 0.15
56 0.15
57 0.15
6 -0.62
7 -0.71
8 -0.9
9 -0.55

> <PUBCHEM_EFFECTIVE_ROTOR_COUNT>
9

> <PUBCHEM_PHARMACOPHORE_FEATURES>
14
1 10 donor
1 2 acceptor
1 2 donor
1 3 acceptor
1 4 acceptor
1 7 acceptor
1 8 donor
1 9 donor
3 6 8 17 cation
5 1 11 12 13 18 rings
5 5 7 15 20 21 rings
6 16 22 23 25 26 27 rings
6 30 31 32 33 34 35 rings
6 6 11 12 14 17 19 rings

> <PUBCHEM_HEAVY_ATOM_COUNT>
36

> <PUBCHEM_ATOM_DEF_STEREO_COUNT>
0

> <PUBCHEM_ATOM_UDEF_STEREO_COUNT>
0

> <PUBCHEM_BOND_DEF_STEREO_COUNT>
0

> <PUBCHEM_BOND_UDEF_STEREO_COUNT>
0

> <PUBCHEM_ISOTOPIC_ATOM_COUNT>
0

> <PUBCHEM_COMPONENT_COUNT>
1

> <PUBCHEM_CACTVS_TAUTO_COUNT>
6

> <PUBCHEM_CONFORMER_ID>
02F859DB00000001

> <PUBCHEM_MMFF94_ENERGY>
114.1765

> <PUBCHEM_FEATURE_SELFOVERLAP>
71.163

> <PUBCHEM_SHAPE_FINGERPRINT>
10076449 9 18259703385383121517
10162869 55 17894633660018488237
10299344 5 18335702729007020067
10533779 47 14476969973692990191
10883706 142 18413107239907271474
11135609 127 14490773285834463134
11409948 35 11530747203835139544
11456790 92 12535626086090233859
11534866 41 16343706517016008174
11607047 74 17987795358167474296
12013929 94 18131633400677341343
12089408 11 18411982416913503161
12144603 126 18413670222896305935
12522641 24 18343579677395572080
12559415 90 13406790038943666375
12664476 115 15791447136963579687
12838862 33 17240482520340747488
13947934 56 18336266864192612547
13947947 74 17676489436951466953
14118638 360 17313378977516400465
14251764 46 18410575080368118132
14251920 17 18201437013570160640
150020 25 15936130760114388641
15065858 18 17703791379588448453
15183329 4 17821444652459173609
15510794 2 16988848267727937911
15840311 113 18343865541934269252
15890870 6 18333448742876679211
16120349 18 18261114102062681772
16728433 110 18410011061754486329
1818759 1 18202565073428555407
20105231 36 17560803204211720918
21362267 2 15864354713160353044
232437 2 17775004587725230047
23522609 53 18194429778664272801
24893992 56 9439107755144849045
249057 3 17676212389906352215
3092352 35 17988926653248819326
335352 9 18114185237064192079
3383291 50 17203607117477206407
4874694 18 16660083299774485426
54039377 194 18202282507598619453
57303763 39 17131826637747278111
6081469 158 11530481138820732614
67123 10 18202566172164651556
9962374 69 18059849593424158909

> <PUBCHEM_SHAPE_MULTIPOLES>
697.22
41.73
1.71
1.43
52.06
0.09
-0.1
-6.65
10.9
-0.75
-0.3
-0.69
-0.45
-2.94

> <PUBCHEM_SHAPE_SELFOVERLAP>
1528.039

> <PUBCHEM_SHAPE_VOLUME>
380.7

> <PUBCHEM_COORDINATE_TYPE>
2
5
10

$$$$
