448912
  -OEChem-10062122043D

 37 39  0     0  0  0  0  0  0999 V2000
    5.5257    0.9327    0.0422 O   0  0  0  0  0  0  0  0  0  0  0  0
   -0.8260    1.7738    0.3852 N   0  0  0  0  0  0  0  0  0  0  0  0
   -3.4288   -0.4390   -0.4584 N   0  0  0  0  0  0  0  0  0  0  0  0
   -3.1958    2.2434    0.5736 N   0  0  0  0  0  0  0  0  0  0  0  0
   -0.9103   -0.3076   -0.4160 C   0  0  0  0  0  0  0  0  0  0  0  0
   -0.5185   -1.6364   -0.9294 C   0  0  0  0  0  0  0  0  0  0  0  0
   -0.3544   -2.6887    0.1834 C   0  0  0  0  0  0  0  0  0  0  0  0
   -0.0626    0.7092   -0.0272 C   0  0  0  0  0  0  0  0  0  0  0  0
   -2.2321    0.1597   -0.2317 C   0  0  0  0  0  0  0  0  0  0  0  0
   -2.1507    1.4536    0.2661 C   0  0  0  0  0  0  0  0  0  0  0  0
    0.0914   -4.0431   -0.3674 C   0  0  0  0  0  0  0  0  0  0  0  0
    1.3810    0.7666   -0.0093 C   0  0  0  0  0  0  0  0  0  0  0  0
    0.2876   -5.0603    0.7453 C   0  0  0  0  0  0  0  0  0  0  0  0
    2.0719    1.2278   -1.1281 C   0  0  0  0  0  0  0  0  0  0  0  0
    2.0788    0.3607    1.1269 C   0  0  0  0  0  0  0  0  0  0  0  0
   -4.4870    0.3413   -0.1546 C   0  0  0  0  0  0  0  0  0  0  0  0
    3.4656    1.2834   -1.1109 C   0  0  0  0  0  0  0  0  0  0  0  0
    3.4725    0.4163    1.1442 C   0  0  0  0  0  0  0  0  0  0  0  0
   -4.3744    1.6286    0.3408 C   0  0  0  0  0  0  0  0  0  0  0  0
    4.1660    0.8777    0.0253 C   0  0  0  0  0  0  0  0  0  0  0  0
   -1.2708   -1.9895   -1.6464 H   0  0  0  0  0  0  0  0  0  0  0  0
    0.4182   -1.5592   -1.4956 H   0  0  0  0  0  0  0  0  0  0  0  0
   -1.3040   -2.8047    0.7213 H   0  0  0  0  0  0  0  0  0  0  0  0
    0.3800   -2.3355    0.9180 H   0  0  0  0  0  0  0  0  0  0  0  0
   -0.6558   -4.4201   -1.0752 H   0  0  0  0  0  0  0  0  0  0  0  0
    1.0322   -3.9286   -0.9184 H   0  0  0  0  0  0  0  0  0  0  0  0
   -0.4691    2.6569    0.7242 H   0  0  0  0  0  0  0  0  0  0  0  0
   -0.6431   -5.2203    1.2989 H   0  0  0  0  0  0  0  0  0  0  0  0
    1.0547   -4.7264    1.4514 H   0  0  0  0  0  0  0  0  0  0  0  0
    0.6047   -6.0214    0.3287 H   0  0  0  0  0  0  0  0  0  0  0  0
    1.5406    1.5473   -2.0213 H   0  0  0  0  0  0  0  0  0  0  0  0
    1.5528   -0.0015    2.0069 H   0  0  0  0  0  0  0  0  0  0  0  0
   -5.4595   -0.1078   -0.3243 H   0  0  0  0  0  0  0  0  0  0  0  0
    3.9941    1.6448   -1.9890 H   0  0  0  0  0  0  0  0  0  0  0  0
    4.0123    0.0989    2.0321 H   0  0  0  0  0  0  0  0  0  0  0  0
   -5.2571    2.2159    0.5699 H   0  0  0  0  0  0  0  0  0  0  0  0
    5.8378    1.2755   -0.8129 H   0  0  0  0  0  0  0  0  0  0  0  0
  1 20  1  0  0  0  0
  1 37  1  0  0  0  0
  2  8  1  0  0  0  0
  2 10  1  0  0  0  0
  2 27  1  0  0  0  0
  3  9  2  0  0  0  0
  3 16  1  0  0  0  0
  4 10  2  0  0  0  0
  4 19  1  0  0  0  0
  5  6  1  0  0  0  0
  5  8  2  0  0  0  0
  5  9  1  0  0  0  0
  6  7  1  0  0  0  0
  6 21  1  0  0  0  0
  6 22  1  0  0  0  0
  7 11  1  0  0  0  0
  7 23  1  0  0  0  0
  7 24  1  0  0  0  0
  8 12  1  0  0  0  0
  9 10  1  0  0  0  0
 11 13  1  0  0  0  0
 11 25  1  0  0  0  0
 11 26  1  0  0  0  0
 12 14  2  0  0  0  0
 12 15  1  0  0  0  0
 13 28  1  0  0  0  0
 13 29  1  0  0  0  0
 13 30  1  0  0  0  0
 14 17  1  0  0  0  0
 14 31  1  0  0  0  0
 15 18  2  0  0  0  0
 15 32  1  0  0  0  0
 16 19  2  0  0  0  0
 16 33  1  0  0  0  0
 17 20  2  0  0  0  0
 17 34  1  0  0  0  0
 18 20  1  0  0  0  0
 18 35  1  0  0  0  0
 19 36  1  0  0  0  0
M  END
> <PUBCHEM_COMPOUND_CID>
448912

> <PUBCHEM_CONFORMER_RMSD>
0.6

> <PUBCHEM_CONFORMER_DIVERSEORDER>
1
17
5
6
18
7
2
9
11
10
14
8
16
12
15
13
3
4

> <PUBCHEM_MMFF94_PARTIAL_CHARGES>
25
1 -0.53
10 0.11
12 0.05
14 -0.15
15 -0.15
16 0.16
17 -0.15
18 -0.15
19 0.16
2 0.03
20 0.08
27 0.27
3 -0.57
31 0.15
32 0.15
33 0.15
34 0.15
35 0.15
36 0.15
37 0.45
4 -0.57
5 -0.18
6 0.18
8 -0.2
9 0.26

> <PUBCHEM_EFFECTIVE_ROTOR_COUNT>
4

> <PUBCHEM_PHARMACOPHORE_FEATURES>
8
1 1 donor
1 13 hydrophobe
1 2 donor
1 3 acceptor
3 2 4 10 cation
5 2 5 8 9 10 rings
6 12 14 15 17 18 20 rings
6 3 4 9 10 16 19 rings

> <PUBCHEM_HEAVY_ATOM_COUNT>
20

> <PUBCHEM_ATOM_DEF_STEREO_COUNT>
0

> <PUBCHEM_ATOM_UDEF_STEREO_COUNT>
0

> <PUBCHEM_BOND_DEF_STEREO_COUNT>
0

> <PUBCHEM_BOND_UDEF_STEREO_COUNT>
0

> <PUBCHEM_ISOTOPIC_ATOM_COUNT>
0

> <PUBCHEM_COMPONENT_COUNT>
1

> <PUBCHEM_CACTVS_TAUTO_COUNT>
8

> <PUBCHEM_CONFORMER_ID>
0006D99000000001

> <PUBCHEM_MMFF94_ENERGY>
38.5973

> <PUBCHEM_FEATURE_SELFOVERLAP>
40.728

> <PUBCHEM_SHAPE_FINGERPRINT>
107951 10 18340217353362447950
12236239 1 18186800292399028000
12553582 1 17472984381462144114
12592029 89 18339084778733106875
12788726 201 17757281744312507770
12839892 36 18336817628906954243
13052359 8 18265332987680122767
13140716 1 18339361855452640898
13538477 17 18190175878942496116
13540713 5 17842269273719341157
138480 1 17762055437216363754
13968360 50 18334845100983910799
14115302 16 18338238279650509228
14251757 5 17977396249804946878
14866123 147 18266738163266640138
15042514 8 18121504815030896931
15279307 12 18187639254330934018
15309172 13 18410862061788606801
15927050 60 18413108359829132374
16752209 62 18266730479733151559
17980427 23 16692149203869150889
18915476 22 18045483237072333647
20028762 73 17913493716937610751
20567600 347 18411141311998839799
20645476 183 18261956357136900190
20681677 155 18339359768884167728
212916 134 18271230673583033216
21524375 3 18272933804045837517
22224240 67 18343309197550222817
22849339 104 18194708049083048270
22956985 138 18045499716614902595
23366157 5 17974296425952212999
23402539 116 18202277022060654580
23557571 272 17911800485977822952
23559900 14 17906447728271453523
23598288 3 17826528935137445674
23728640 28 18337670944255981866
25147074 1 17843395190742723533
3091708 16 9193532936408243307
3759504 43 18336829778957730839
4073 2 18267583684741812696
43471831 8 18339640045085039275
458136 41 18266754501658804891
474229 33 18337676412160526787
5385378 56 18196379121941674785
58807428 26 18412261696882493603
59554788 281 18341063959876859846
6138700 20 18052829053031361302
633830 44 17989483013604498669
7364860 26 18055070952475397663
81228 2 17838880874433250407
81539 233 18336543803235004663
9709674 26 18129669720049045366
9981440 41 18408889516643249923

> <PUBCHEM_SHAPE_MULTIPOLES>
390.78
8.03
4.24
1
2.21
9.6
0.01
-6.87
-0.39
-0.61
-0.64
0.58
-0.03
-0.74

> <PUBCHEM_SHAPE_SELFOVERLAP>
850.752

> <PUBCHEM_SHAPE_VOLUME>
212.3

> <PUBCHEM_COORDINATE_TYPE>
2
5
10

$$$$
