49830398
  -OEChem-10052115183D

 63 67  0     1  0  0  0  0  0999 V2000
    5.6054    1.8853    0.1180 F   0  0  0  0  0  0  0  0  0  0  0  0
    2.2054   -4.1268    1.6810 O   0  0  0  0  0  0  0  0  0  0  0  0
    3.6699   -0.0617    0.0390 N   0  0  0  0  0  0  0  0  0  0  0  0
    3.0507   -2.2775    2.7579 N   0  0  0  0  0  0  0  0  0  0  0  0
    1.9869    1.5831    0.0623 N   0  0  0  0  0  0  0  0  0  0  0  0
   -4.3749    0.2657   -0.0680 N   0  0  0  0  0  0  0  0  0  0  0  0
   -6.9252   -1.0162   -0.1786 N   0  0  0  0  0  0  0  0  0  0  0  0
    2.6032    3.9116    0.1346 N   0  0  0  0  0  0  0  0  0  0  0  0
    0.3488    3.2627    0.0862 N   0  0  0  0  0  0  0  0  0  0  0  0
    2.2022   -1.4352   -1.4351 C   0  0  2  0  0  0  0  0  0  0  0  0
    3.0333   -3.4182   -0.8154 C   0  0  1  0  0  0  0  0  0  0  0  0
    2.7266   -1.1537   -0.0035 C   0  0  1  0  0  0  0  0  0  0  0  0
    3.3937   -2.5078    0.3858 C   0  0  1  0  0  0  0  0  0  0  0  0
    1.6704   -2.8600   -1.2527 C   0  0  0  0  0  0  0  0  0  0  0  0
    3.3595   -1.7497   -2.3598 C   0  0  0  0  0  0  0  0  0  0  0  0
    3.8542   -2.9406   -1.9906 C   0  0  0  0  0  0  0  0  0  0  0  0
    2.8260   -3.0668    1.6548 C   0  0  0  0  0  0  0  0  0  0  0  0
    3.3001    1.2735    0.0710 C   0  0  0  0  0  0  0  0  0  0  0  0
    4.3094    2.2138    0.1101 C   0  0  0  0  0  0  0  0  0  0  0  0
    1.7137    2.9014    0.0950 C   0  0  0  0  0  0  0  0  0  0  0  0
    3.8975    3.5306    0.1411 C   0  0  0  0  0  0  0  0  0  0  0  0
   -4.9679   -0.0790   -1.3638 C   0  0  0  0  0  0  0  0  0  0  0  0
   -5.3214    0.4123    1.0450 C   0  0  0  0  0  0  0  0  0  0  0  0
   -5.9209   -1.2681   -1.2191 C   0  0  0  0  0  0  0  0  0  0  0  0
   -6.2619   -0.7931    1.1121 C   0  0  0  0  0  0  0  0  0  0  0  0
   -3.1873    1.0044   -0.0227 C   0  0  0  0  0  0  0  0  0  0  0  0
   -2.0444    0.4817    0.5825 C   0  0  0  0  0  0  0  0  0  0  0  0
   -0.8368    2.5053    0.0495 C   0  0  0  0  0  0  0  0  0  0  0  0
   -7.8615   -2.1358   -0.0874 C   0  0  0  0  0  0  0  0  0  0  0  0
   -3.1550    2.2775   -0.5919 C   0  0  0  0  0  0  0  0  0  0  0  0
   -0.8691    1.2322    0.6185 C   0  0  0  0  0  0  0  0  0  0  0  0
   -1.9797    3.0280   -0.5556 C   0  0  0  0  0  0  0  0  0  0  0  0
   -2.0512   -0.8790    1.1998 C   0  0  0  0  0  0  0  0  0  0  0  0
    1.4805   -0.7208   -1.8337 H   0  0  0  0  0  0  0  0  0  0  0  0
    3.0569   -4.4982   -0.6616 H   0  0  0  0  0  0  0  0  0  0  0  0
    1.8791   -0.9505    0.6649 H   0  0  0  0  0  0  0  0  0  0  0  0
    4.4817   -2.4280    0.5131 H   0  0  0  0  0  0  0  0  0  0  0  0
    0.8940   -2.9377   -0.4836 H   0  0  0  0  0  0  0  0  0  0  0  0
    1.2927   -3.3084   -2.1809 H   0  0  0  0  0  0  0  0  0  0  0  0
    3.7449   -1.1081   -3.1359 H   0  0  0  0  0  0  0  0  0  0  0  0
    4.7137   -3.4365   -2.4120 H   0  0  0  0  0  0  0  0  0  0  0  0
    4.6299   -0.2599   -0.2254 H   0  0  0  0  0  0  0  0  0  0  0  0
    2.7075   -2.5493    3.6731 H   0  0  0  0  0  0  0  0  0  0  0  0
    3.5675   -1.4054    2.7053 H   0  0  0  0  0  0  0  0  0  0  0  0
   -5.5085    0.7867   -1.7669 H   0  0  0  0  0  0  0  0  0  0  0  0
   -4.1825   -0.3442   -2.0823 H   0  0  0  0  0  0  0  0  0  0  0  0
   -5.8990    1.3361    0.9121 H   0  0  0  0  0  0  0  0  0  0  0  0
   -4.7884    0.4950    2.0000 H   0  0  0  0  0  0  0  0  0  0  0  0
   -6.4135   -1.4317   -2.1853 H   0  0  0  0  0  0  0  0  0  0  0  0
   -5.3437   -2.1740   -0.9893 H   0  0  0  0  0  0  0  0  0  0  0  0
   -5.6951   -1.6837    1.4161 H   0  0  0  0  0  0  0  0  0  0  0  0
   -7.0101   -0.6009    1.8906 H   0  0  0  0  0  0  0  0  0  0  0  0
    4.6190    4.3399    0.1729 H   0  0  0  0  0  0  0  0  0  0  0  0
    0.2128    4.2630   -0.0253 H   0  0  0  0  0  0  0  0  0  0  0  0
   -8.3829   -2.2791   -1.0403 H   0  0  0  0  0  0  0  0  0  0  0  0
   -7.3620   -3.0749    0.1772 H   0  0  0  0  0  0  0  0  0  0  0  0
   -8.6323   -1.9317    0.6641 H   0  0  0  0  0  0  0  0  0  0  0  0
   -4.0374    2.7035   -1.0626 H   0  0  0  0  0  0  0  0  0  0  0  0
   -0.0096    0.8210    1.1379 H   0  0  0  0  0  0  0  0  0  0  0  0
   -1.9677    4.0190   -1.0022 H   0  0  0  0  0  0  0  0  0  0  0  0
   -1.0389   -1.2173    1.4478 H   0  0  0  0  0  0  0  0  0  0  0  0
   -2.4696   -1.6187    0.5088 H   0  0  0  0  0  0  0  0  0  0  0  0
   -2.6376   -0.8757    2.1239 H   0  0  0  0  0  0  0  0  0  0  0  0
  1 19  1  0  0  0  0
  2 17  2  0  0  0  0
  3 12  1  0  0  0  0
  3 18  1  0  0  0  0
  3 42  1  0  0  0  0
  4 17  1  0  0  0  0
  4 43  1  0  0  0  0
  4 44  1  0  0  0  0
  5 18  2  0  0  0  0
  5 20  1  0  0  0  0
  6 22  1  0  0  0  0
  6 23  1  0  0  0  0
  6 26  1  0  0  0  0
  7 24  1  0  0  0  0
  7 25  1  0  0  0  0
  7 29  1  0  0  0  0
  8 20  2  0  0  0  0
  8 21  1  0  0  0  0
  9 20  1  0  0  0  0
  9 28  1  0  0  0  0
  9 54  1  0  0  0  0
 10 12  1  0  0  0  0
 10 14  1  0  0  0  0
 10 15  1  0  0  0  0
 10 34  1  0  0  0  0
 11 13  1  0  0  0  0
 11 14  1  0  0  0  0
 11 16  1  0  0  0  0
 11 35  1  0  0  0  0
 12 13  1  0  0  0  0
 12 36  1  0  0  0  0
 13 17  1  0  0  0  0
 13 37  1  0  0  0  0
 14 38  1  0  0  0  0
 14 39  1  0  0  0  0
 15 16  2  0  0  0  0
 15 40  1  0  0  0  0
 16 41  1  0  0  0  0
 18 19  1  0  0  0  0
 19 21  2  0  0  0  0
 21 53  1  0  0  0  0
 22 24  1  0  0  0  0
 22 45  1  0  0  0  0
 22 46  1  0  0  0  0
 23 25  1  0  0  0  0
 23 47  1  0  0  0  0
 23 48  1  0  0  0  0
 24 49  1  0  0  0  0
 24 50  1  0  0  0  0
 25 51  1  0  0  0  0
 25 52  1  0  0  0  0
 26 27  2  0  0  0  0
 26 30  1  0  0  0  0
 27 31  1  0  0  0  0
 27 33  1  0  0  0  0
 28 31  2  0  0  0  0
 28 32  1  0  0  0  0
 29 55  1  0  0  0  0
 29 56  1  0  0  0  0
 29 57  1  0  0  0  0
 30 32  2  0  0  0  0
 30 58  1  0  0  0  0
 31 59  1  0  0  0  0
 32 60  1  0  0  0  0
 33 61  1  0  0  0  0
 33 62  1  0  0  0  0
 33 63  1  0  0  0  0
M  END
> <PUBCHEM_COMPOUND_CID>
49830398

> <PUBCHEM_CONFORMER_RMSD>
1.2

> <PUBCHEM_CONFORMER_DIVERSEORDER>
1
113
61
131
92
6
134
75
16
30
68
111
145
101
54
31
146
133
141
28
41
87
114
91
143
42
144
65
3
104
59
84
46
76
57
78
74
9
50
115
95
86
136
10
124
112
33
96
11
38
22
71
19
14
127
142
12
110
99
106
29
39
89
121
48
43
20
122
67
53
137
80
107
58
64
129
66
55
56
138
18
82
108
44
83
15
81
52
97
7
103
24
102
17
63
79
135
100
13
105
94
119
90
45
26
21
8
93
32
60
73
47
88
70
36
37
49
27
2
126
98
5
118
117
109
4
85
72
139
51
69
116
128
125
123
40
35
34
140
77
23
120
62
25
130
132

> <PUBCHEM_MMFF94_PARTIAL_CHARGES>
42
1 -0.19
10 0.14
11 0.14
12 0.37
13 0.06
15 -0.29
16 -0.29
17 0.57
18 0.41
19 0.19
2 -0.57
20 0.72
21 0.16
22 0.37
23 0.37
24 0.27
25 0.27
26 0.1
27 -0.14
28 0.1
29 0.27
3 -0.87
30 -0.15
31 -0.15
32 -0.15
33 0.14
4 -0.8
40 0.15
41 0.15
42 0.4
43 0.37
44 0.37
5 -0.62
53 0.15
54 0.4
58 0.15
59 0.15
6 -0.84
60 0.15
7 -0.81
8 -0.62
9 -0.6

> <PUBCHEM_EFFECTIVE_ROTOR_COUNT>
7.8

> <PUBCHEM_PHARMACOPHORE_FEATURES>
11
1 2 acceptor
1 3 donor
1 4 donor
1 6 cation
1 7 cation
1 9 donor
4 5 8 9 20 cation
6 26 27 28 30 31 32 rings
6 5 8 18 19 20 21 rings
6 6 7 22 23 24 25 rings
7 10 11 12 13 14 15 16 rings

> <PUBCHEM_HEAVY_ATOM_COUNT>
33

> <PUBCHEM_ATOM_DEF_STEREO_COUNT>
0

> <PUBCHEM_ATOM_UDEF_STEREO_COUNT>
4

> <PUBCHEM_BOND_DEF_STEREO_COUNT>
0

> <PUBCHEM_BOND_UDEF_STEREO_COUNT>
0

> <PUBCHEM_ISOTOPIC_ATOM_COUNT>
0

> <PUBCHEM_COMPONENT_COUNT>
1

> <PUBCHEM_CACTVS_TAUTO_COUNT>
12

> <PUBCHEM_CONFORMER_ID>
02F859FE00000001

> <PUBCHEM_MMFF94_ENERGY>
136.8984

> <PUBCHEM_FEATURE_SELFOVERLAP>
55.825

> <PUBCHEM_SHAPE_FINGERPRINT>
10050765 1 18340208497519937849
10928967 22 18192725440349378275
11421498 54 17703800210537465048
114674 6 18335711545973622184
11578080 2 16953656036418926604
11963148 33 18265605666769844775
11991303 11 17900550287656576532
12107183 9 17841732729045852705
12422481 6 17774449266118945351
12553582 1 17619360809963673304
12655387 17 18194126210443817813
12788726 201 17255698395707235944
13150687 139 18045804514076466580
1361 2 18269838764871249317
14910700 183 18125987502842591480
15003188 105 18261673679923183666
15297060 5 16486979556304488062
15347590 135 17846207921379947184
15484559 13 18193847161395830756
17492 89 18270683056536147525
19026451 147 18338517443855810346
19301679 30 18410578397175316257
20028762 73 18130223886847516068
20775438 99 18339073912730462279
20775530 9 18191315883237297293
21133410 32 16522501406298422434
21197605 99 18268712894718194775
21285901 2 18040989679015899053
21703447 108 18409161095693874889
22956985 138 18117263767534501130
23559900 14 18125717894453869412
23569914 152 17689397557901979997
25222932 49 18335698300242188182
345986 75 17917711288716702097
394071 54 18339938094546027265
463206 1 18199465644058672453
4756261 7 18119217655626898386
50009960 94 17897139386984126611
5309563 4 18340491075548525372
57359948 33 17240474793779017477
59755656 215 18261110819789587617
613672 6 17910097024105750092
6669772 16 18189330328984419827
6823239 73 18056201267951304142
86090 222 18262247727750058984
9709674 26 18410299072890498253

> <PUBCHEM_SHAPE_MULTIPOLES>
631.11
14.95
5.48
1.67
29.12
0.83
-0.19
-7.11
0.88
-7.52
-0.17
-1.23
-1.99
0.35

> <PUBCHEM_SHAPE_SELFOVERLAP>
1375.963

> <PUBCHEM_SHAPE_VOLUME>
345.4

> <PUBCHEM_COORDINATE_TYPE>
2
5
10

$$$$
