25224338
  -OEChem-10062121563D

 16 17  0     0  0  0  0  0  0999 V2000
   -1.8668    1.8350   -0.0002 S   0  0  0  0  0  0  0  0  0  0  0  0
    3.0427    0.9764    0.0001 O   0  0  0  0  0  0  0  0  0  0  0  0
    1.6094   -0.7962   -0.0003 N   0  0  0  0  0  0  0  0  0  0  0  0
    0.8050    1.4527    0.0000 N   0  0  0  0  0  0  0  0  0  0  0  0
    0.2116   -2.7224   -0.0001 N   0  0  0  0  0  0  0  0  0  0  0  0
   -0.7013   -0.5162    0.0003 C   0  0  0  0  0  0  0  0  0  0  0  0
    0.3434   -1.3603    0.0000 C   0  0  0  0  0  0  0  0  0  0  0  0
   -0.3659    0.9219    0.0001 C   0  0  0  0  0  0  0  0  0  0  0  0
   -2.1210   -0.7501    0.0002 C   0  0  0  0  0  0  0  0  0  0  0  0
   -2.8348    0.3834   -0.0002 C   0  0  0  0  0  0  0  0  0  0  0  0
    1.8776    0.5758    0.0001 C   0  0  0  0  0  0  0  0  0  0  0  0
   -2.5618   -1.7362    0.0003 H   0  0  0  0  0  0  0  0  0  0  0  0
    2.3952   -1.4400   -0.0006 H   0  0  0  0  0  0  0  0  0  0  0  0
   -3.9155    0.4222   -0.0003 H   0  0  0  0  0  0  0  0  0  0  0  0
   -0.7041   -3.1529    0.0000 H   0  0  0  0  0  0  0  0  0  0  0  0
    1.0449   -3.2967   -0.0005 H   0  0  0  0  0  0  0  0  0  0  0  0
  1  8  1  0  0  0  0
  1 10  1  0  0  0  0
  2 11  2  0  0  0  0
  3  7  1  0  0  0  0
  3 11  1  0  0  0  0
  3 13  1  0  0  0  0
  4  8  2  0  0  0  0
  4 11  1  0  0  0  0
  5  7  1  0  0  0  0
  5 15  1  0  0  0  0
  5 16  1  0  0  0  0
  6  7  2  0  0  0  0
  6  8  1  0  0  0  0
  6  9  1  0  0  0  0
  9 10  2  0  0  0  0
  9 12  1  0  0  0  0
 10 14  1  0  0  0  0
M  END
> <PUBCHEM_COMPOUND_CID>
25224338

> <PUBCHEM_CONFORMER_RMSD>
0.4

> <PUBCHEM_CONFORMER_DIVERSEORDER>
1

> <PUBCHEM_MMFF94_PARTIAL_CHARGES>
16
1 -0.24
10 -0.05
11 0.84
12 0.15
13 0.37
14 0.15
15 0.4
16 0.4
2 -0.57
3 -0.54
4 -0.66
5 -0.9
6 0.01
7 0.21
8 0.58
9 -0.15

> <PUBCHEM_EFFECTIVE_ROTOR_COUNT>
0

> <PUBCHEM_PHARMACOPHORE_FEATURES>
8
1 2 acceptor
1 3 donor
1 4 acceptor
1 4 donor
1 5 cation
1 5 donor
5 1 6 8 9 10 rings
6 3 4 6 7 8 11 rings

> <PUBCHEM_HEAVY_ATOM_COUNT>
11

> <PUBCHEM_ATOM_DEF_STEREO_COUNT>
0

> <PUBCHEM_ATOM_UDEF_STEREO_COUNT>
0

> <PUBCHEM_BOND_DEF_STEREO_COUNT>
0

> <PUBCHEM_BOND_UDEF_STEREO_COUNT>
0

> <PUBCHEM_ISOTOPIC_ATOM_COUNT>
0

> <PUBCHEM_COMPONENT_COUNT>
1

> <PUBCHEM_CACTVS_TAUTO_COUNT>
9

> <PUBCHEM_CONFORMER_ID>
0180E49200000001

> <PUBCHEM_MMFF94_ENERGY>
26.9513

> <PUBCHEM_FEATURE_SELFOVERLAP>
40.798

> <PUBCHEM_SHAPE_FINGERPRINT>
12423570 1 16958706492113622989
12897270 3 18410854348000813509
13380535 76 18335978684312549283
14325111 11 18410573989562781280
16945 1 18338517559360542917
193761 8 17834114147755403852
19973954 147 18122627154509564761
20871998 184 17911809281606634558
21040471 1 18338797926383319300
21501502 16 18266455400194489409
23235685 24 18409725188008175201
23402655 69 18268695144573376917
23463225 33 18262231115175117482
23552423 10 18193278494550111983
23559900 14 18271254928186857596
241688 4 16682035835364949059
2748010 2 18410014295141530652
5084963 1 18131072679162898953
528886 8 18411131463575097809
7364860 26 18126564509669440766

> <PUBCHEM_SHAPE_MULTIPOLES>
209.41
3.52
2.19
0.59
0.07
0.89
0
-1.25
0
0.25
0
-0.07
-0.02
0

> <PUBCHEM_SHAPE_SELFOVERLAP>
444.567

> <PUBCHEM_SHAPE_VOLUME>
119.5

> <PUBCHEM_COORDINATE_TYPE>
2
5
10

$$$$
