57394653
  -OEChem-10052115173D

 57 60  0     0  0  0  0  0  0999 V2000
   -1.2260   -3.2920    0.7339 F   0  0  0  0  0  0  0  0  0  0  0  0
   -3.6305    0.8986    1.2314 O   0  0  0  0  0  0  0  0  0  0  0  0
    0.8521    1.7499   -0.0592 N   0  0  0  0  0  0  0  0  0  0  0  0
    2.5768   -0.4115    0.3371 N   0  0  0  0  0  0  0  0  0  0  0  0
   -2.9943   -1.1936    0.3477 N   0  0  0  0  0  0  0  0  0  0  0  0
    4.4731    0.9295    0.1567 N   0  0  0  0  0  0  0  0  0  0  0  0
    1.2248    3.9088   -0.4088 N   0  0  0  0  0  0  0  0  0  0  0  0
   -8.3366    0.5266   -0.9015 N   0  0  0  0  0  0  0  0  0  0  0  0
    0.2697    0.4912    0.1373 C   0  0  0  0  0  0  0  0  0  0  0  0
    2.2164    1.9013   -0.0546 C   0  0  0  0  0  0  0  0  0  0  0  0
    1.1683   -0.5764    0.3339 C   0  0  0  0  0  0  0  0  0  0  0  0
    3.1059    0.7762    0.1519 C   0  0  0  0  0  0  0  0  0  0  0  0
   -1.1122    0.3023    0.1395 C   0  0  0  0  0  0  0  0  0  0  0  0
   -1.6147   -0.9821    0.3420 C   0  0  0  0  0  0  0  0  0  0  0  0
    0.6383   -1.8542    0.5351 C   0  0  0  0  0  0  0  0  0  0  0  0
   -0.7445   -2.0559    0.5390 C   0  0  0  0  0  0  0  0  0  0  0  0
    0.2997    2.9812   -0.2759 C   0  0  0  0  0  0  0  0  0  0  0  0
    2.4198    3.2453   -0.2728 C   0  0  0  0  0  0  0  0  0  0  0  0
    5.4172   -0.0162   -0.2311 C   0  0  0  0  0  0  0  0  0  0  0  0
    6.6843   -0.0402    0.3512 C   0  0  0  0  0  0  0  0  0  0  0  0
   -3.5335   -2.4846   -0.1908 C   0  0  0  0  0  0  0  0  0  0  0  0
   -3.9453   -0.1996    0.7723 C   0  0  0  0  0  0  0  0  0  0  0  0
    5.0839   -0.9475   -1.2147 C   0  0  0  0  0  0  0  0  0  0  0  0
    7.6183   -0.9953   -0.0499 C   0  0  0  0  0  0  0  0  0  0  0  0
   -5.3930   -0.5518    0.6739 C   0  0  0  0  0  0  0  0  0  0  0  0
    7.0671    0.9449    1.4075 C   0  0  0  0  0  0  0  0  0  0  0  0
   -7.7797    0.1328    0.3883 C   0  0  0  0  0  0  0  0  0  0  0  0
    6.0179   -1.9028   -1.6158 C   0  0  0  0  0  0  0  0  0  0  0  0
   -6.3069    0.4049    0.4587 C   0  0  0  0  0  0  0  0  0  0  0  0
    7.2851   -1.9268   -1.0334 C   0  0  0  0  0  0  0  0  0  0  0  0
   -9.7860    0.7054   -0.8030 C   0  0  0  0  0  0  0  0  0  0  0  0
   -8.0156   -0.4682   -1.9259 C   0  0  0  0  0  0  0  0  0  0  0  0
   -1.7640    1.1403   -0.0761 H   0  0  0  0  0  0  0  0  0  0  0  0
    1.2991   -2.7036    0.6902 H   0  0  0  0  0  0  0  0  0  0  0  0
   -0.7656    3.1597   -0.3283 H   0  0  0  0  0  0  0  0  0  0  0  0
    3.3608    3.7720   -0.3397 H   0  0  0  0  0  0  0  0  0  0  0  0
    4.8523    1.8537    0.3412 H   0  0  0  0  0  0  0  0  0  0  0  0
   -4.4295   -2.3080   -0.7921 H   0  0  0  0  0  0  0  0  0  0  0  0
   -2.8120   -2.9589   -0.8630 H   0  0  0  0  0  0  0  0  0  0  0  0
   -3.7711   -3.1416    0.6507 H   0  0  0  0  0  0  0  0  0  0  0  0
    4.1173   -0.9399   -1.7110 H   0  0  0  0  0  0  0  0  0  0  0  0
    8.6104   -1.0276    0.3925 H   0  0  0  0  0  0  0  0  0  0  0  0
   -5.7009   -1.5793    0.8272 H   0  0  0  0  0  0  0  0  0  0  0  0
    7.1201    1.9543    0.9866 H   0  0  0  0  0  0  0  0  0  0  0  0
    6.3438    0.9318    2.2298 H   0  0  0  0  0  0  0  0  0  0  0  0
    8.0473    0.7163    1.8401 H   0  0  0  0  0  0  0  0  0  0  0  0
   -8.2302    0.7369    1.1876 H   0  0  0  0  0  0  0  0  0  0  0  0
   -8.0162   -0.9122    0.6288 H   0  0  0  0  0  0  0  0  0  0  0  0
    5.7611   -2.6238   -2.3865 H   0  0  0  0  0  0  0  0  0  0  0  0
   -5.9952    1.4387    0.3274 H   0  0  0  0  0  0  0  0  0  0  0  0
    8.0128   -2.6695   -1.3471 H   0  0  0  0  0  0  0  0  0  0  0  0
  -10.0304    1.4942   -0.0828 H   0  0  0  0  0  0  0  0  0  0  0  0
  -10.2957   -0.2149   -0.4952 H   0  0  0  0  0  0  0  0  0  0  0  0
  -10.2008    1.0242   -1.7658 H   0  0  0  0  0  0  0  0  0  0  0  0
   -6.9334   -0.5640   -2.0654 H   0  0  0  0  0  0  0  0  0  0  0  0
   -8.4212   -0.1597   -2.8964 H   0  0  0  0  0  0  0  0  0  0  0  0
   -8.4227   -1.4576   -1.6868 H   0  0  0  0  0  0  0  0  0  0  0  0
  1 16  1  0  0  0  0
  2 22  2  0  0  0  0
  3  9  1  0  0  0  0
  3 10  1  0  0  0  0
  3 17  1  0  0  0  0
  4 11  1  0  0  0  0
  4 12  2  0  0  0  0
  5 14  1  0  0  0  0
  5 21  1  0  0  0  0
  5 22  1  0  0  0  0
  6 12  1  0  0  0  0
  6 19  1  0  0  0  0
  6 37  1  0  0  0  0
  7 17  2  0  0  0  0
  7 18  1  0  0  0  0
  8 27  1  0  0  0  0
  8 31  1  0  0  0  0
  8 32  1  0  0  0  0
  9 11  1  0  0  0  0
  9 13  2  0  0  0  0
 10 12  1  0  0  0  0
 10 18  2  0  0  0  0
 11 15  2  0  0  0  0
 13 14  1  0  0  0  0
 13 33  1  0  0  0  0
 14 16  2  0  0  0  0
 15 16  1  0  0  0  0
 15 34  1  0  0  0  0
 17 35  1  0  0  0  0
 18 36  1  0  0  0  0
 19 20  1  0  0  0  0
 19 23  2  0  0  0  0
 20 24  2  0  0  0  0
 20 26  1  0  0  0  0
 21 38  1  0  0  0  0
 21 39  1  0  0  0  0
 21 40  1  0  0  0  0
 22 25  1  0  0  0  0
 23 28  1  0  0  0  0
 23 41  1  0  0  0  0
 24 30  1  0  0  0  0
 24 42  1  0  0  0  0
 25 29  2  0  0  0  0
 25 43  1  0  0  0  0
 26 44  1  0  0  0  0
 26 45  1  0  0  0  0
 26 46  1  0  0  0  0
 27 29  1  0  0  0  0
 27 47  1  0  0  0  0
 27 48  1  0  0  0  0
 28 30  2  0  0  0  0
 28 49  1  0  0  0  0
 29 50  1  0  0  0  0
 30 51  1  0  0  0  0
 31 52  1  0  0  0  0
 31 53  1  0  0  0  0
 31 54  1  0  0  0  0
 32 55  1  0  0  0  0
 32 56  1  0  0  0  0
 32 57  1  0  0  0  0
M  END
> <PUBCHEM_COMPOUND_CID>
57394653

> <PUBCHEM_CONFORMER_RMSD>
1

> <PUBCHEM_CONFORMER_DIVERSEORDER>
1
61
74
21
60
30
98
58
99
78
77
85
51
43
114
69
122
64
86
55
113
25
35
80
50
57
49
24
59
79
82
105
94
23
66
111
27
65
115
54
56
117
81
84
37
108
116
121
97
45
41
104
76
70
12
73
34
39
109
96
103
101
62
92
15
42
118
31
13
95
107
29
44
10
33
93
112
83
63
67
102
71
119
5
89
20
17
72
100
91
88
4
68
106
22
120
3
32
48
90
75
7
14
36
8
38
46
2
52
53
9
87
18
6
40
16
110
47
19
28
26
11

> <PUBCHEM_MMFF94_PARTIAL_CHARGES>
43
1 -0.19
10 -0.24
11 0.18
12 0.58
13 -0.15
14 0.12
15 -0.15
16 0.19
17 0.04
18 0.08
19 0.1
2 -0.57
20 -0.14
21 0.3
22 0.62
23 -0.15
24 -0.15
25 -0.14
26 0.14
27 0.41
28 -0.15
29 -0.29
3 0.33
30 -0.15
31 0.27
32 0.27
33 0.15
34 0.15
35 0.15
36 0.15
37 0.4
4 -0.63
41 0.15
42 0.15
43 0.15
49 0.15
5 -0.48
50 0.15
51 0.15
6 -0.55
7 -0.57
8 -0.81
9 -0.02

> <PUBCHEM_EFFECTIVE_ROTOR_COUNT>
7

> <PUBCHEM_PHARMACOPHORE_FEATURES>
9
1 2 acceptor
1 6 donor
1 8 cation
3 3 7 17 cation
3 4 6 12 cation
5 3 7 10 17 18 rings
6 19 20 23 24 28 30 rings
6 3 4 9 10 11 12 rings
6 9 11 13 14 15 16 rings

> <PUBCHEM_HEAVY_ATOM_COUNT>
32

> <PUBCHEM_ATOM_DEF_STEREO_COUNT>
0

> <PUBCHEM_ATOM_UDEF_STEREO_COUNT>
0

> <PUBCHEM_BOND_DEF_STEREO_COUNT>
1

> <PUBCHEM_BOND_UDEF_STEREO_COUNT>
0

> <PUBCHEM_ISOTOPIC_ATOM_COUNT>
0

> <PUBCHEM_COMPONENT_COUNT>
1

> <PUBCHEM_CACTVS_TAUTO_COUNT>
2

> <PUBCHEM_CONFORMER_ID>
036BC5DD00000001

> <PUBCHEM_MMFF94_ENERGY>
116.1408

> <PUBCHEM_FEATURE_SELFOVERLAP>
45.8

> <PUBCHEM_SHAPE_FINGERPRINT>
10050765 1 18047758383943377419
10816530 90 18187651344854049292
11211813 89 18260552229755031308
11297010 23 18411128131424743047
11409948 41 17988072289121319575
12373685 5 16845568755354082509
12741549 16 17632571631656411840
12838862 33 18336813256545642889
13617811 41 18186807950794630948
13811026 1 18341896272677476428
14117953 113 18408319982789962533
14294032 229 17387697094241475212
14675019 173 17458347463561189605
14725015 67 18267590105444484030
15131766 46 16373565009672671804
15183329 4 18411992359984618514
15198563 99 18189907417944326132
15347591 1 18118970436733943249
15420108 30 17766296283407869784
15439362 3 17972888230941585220
15461852 350 16630528453496025929
15849732 13 18131070432884434367
15927050 60 17690852159281081064
16087824 20 18335420136648449981
16120349 18 17989201573382840744
17492 89 17978236281073569586
18335252 114 18410007750139100197
21521721 280 7925624492999212060
21792934 111 18409440402487697896
21792938 131 17896312520808956202
21792961 116 17895471427986733614
22311459 1 18408323272107144163
23559900 14 18270680986198283346
23569917 315 18342184405788263991
23576562 1 18043255828414800183
24893992 56 18186804712647999603
249057 25 17489602176955411025
249057 3 18410857681180421119
3004659 81 18113627807230306342
3103668 31 18115585933353748509
3178227 256 18188507838309473867
335352 9 18409169925998487852
3633792 109 18343303643814624113
4144715 1 17972044900721335091
58902169 19 18201994470038553125
59682541 35 10231750102808567477
59755656 215 18334860485013302823
6371380 46 18114181964652651259
9663363 56 18335137588567621256

> <PUBCHEM_SHAPE_MULTIPOLES>
615.52
25.1
3.07
1.15
31.85
1.69
0.29
-4.06
7.1
-2.4
0.36
0.29
-0.27
1.46

> <PUBCHEM_SHAPE_SELFOVERLAP>
1337.83

> <PUBCHEM_SHAPE_VOLUME>
339.9

> <PUBCHEM_COORDINATE_TYPE>
2
5
10

$$$$
