54759168
  -OEChem-10052115173D

 58 61  0     0  0  0  0  0  0999 V2000
   -5.5794    0.2226    0.9985 F   0  0  0  0  0  0  0  0  0  0  0  0
   -6.3526   -1.6442    0.1662 F   0  0  0  0  0  0  0  0  0  0  0  0
   -6.5420    0.2001   -0.9907 F   0  0  0  0  0  0  0  0  0  0  0  0
   -4.4852   -0.7697   -0.7473 O   0  0  0  0  0  0  0  0  0  0  0  0
    6.4120    0.1711   -0.7098 O   0  0  0  0  0  0  0  0  0  0  0  0
   -0.3480    2.8588   -0.0116 N   0  0  0  0  0  0  0  0  0  0  0  0
    1.7642    4.7783    0.1039 N   0  0  0  0  0  0  0  0  0  0  0  0
   -2.1101   -1.6242    0.4970 N   0  0  0  0  0  0  0  0  0  0  0  0
    3.3162   -2.6699   -0.9755 N   0  0  0  0  0  0  0  0  0  0  0  0
    0.2029   -1.9139    0.2672 N   0  0  0  0  0  0  0  0  0  0  0  0
   -1.1941   -3.6975    1.0883 N   0  0  0  0  0  0  0  0  0  0  0  0
    5.1725    1.1012    0.9804 N   0  0  0  0  0  0  0  0  0  0  0  0
    0.9483    2.5654   -0.6356 C   0  0  0  0  0  0  0  0  0  0  0  0
   -0.6568    4.2804    0.1711 C   0  0  0  0  0  0  0  0  0  0  0  0
    2.0676    3.3425    0.0611 C   0  0  0  0  0  0  0  0  0  0  0  0
    0.5148    5.0029    0.8408 C   0  0  0  0  0  0  0  0  0  0  0  0
   -1.3880    1.9404   -0.1932 C   0  0  0  0  0  0  0  0  0  0  0  0
    2.8646    5.5168    0.7225 C   0  0  0  0  0  0  0  0  0  0  0  0
   -1.2389    0.6227    0.2394 C   0  0  0  0  0  0  0  0  0  0  0  0
   -2.5734    2.3425   -0.8087 C   0  0  0  0  0  0  0  0  0  0  0  0
   -2.2753   -0.2928    0.0569 C   0  0  0  0  0  0  0  0  0  0  0  0
   -3.6097    1.4271   -0.9914 C   0  0  0  0  0  0  0  0  0  0  0  0
   -3.4606    0.1093   -0.5586 C   0  0  0  0  0  0  0  0  0  0  0  0
   -0.9790   -2.4520    0.6237 C   0  0  0  0  0  0  0  0  0  0  0  0
    2.5260   -2.1557    0.0193 C   0  0  0  0  0  0  0  0  0  0  0  0
    1.2655   -2.7344    0.4013 C   0  0  0  0  0  0  0  0  0  0  0  0
    3.1619   -1.0467    0.5325 C   0  0  0  0  0  0  0  0  0  0  0  0
    4.3768   -0.8887   -0.1788 C   0  0  0  0  0  0  0  0  0  0  0  0
    4.4466   -1.9059   -1.1051 C   0  0  0  0  0  0  0  0  0  0  0  0
    1.1791   -4.0311    0.8656 C   0  0  0  0  0  0  0  0  0  0  0  0
    3.0259   -3.8375   -1.7800 C   0  0  0  0  0  0  0  0  0  0  0  0
   -5.7398   -0.4790   -0.1436 C   0  0  0  0  0  0  0  0  0  0  0  0
   -0.0887   -4.4633    1.1974 C   0  0  0  0  0  0  0  0  0  0  0  0
    5.3766    0.1243   -0.0035 C   0  0  0  0  0  0  0  0  0  0  0  0
    0.9058    2.8362   -1.6985 H   0  0  0  0  0  0  0  0  0  0  0  0
    1.1926    1.4980   -0.5851 H   0  0  0  0  0  0  0  0  0  0  0  0
   -1.5416    4.4071    0.8073 H   0  0  0  0  0  0  0  0  0  0  0  0
   -0.8670    4.7450   -0.8009 H   0  0  0  0  0  0  0  0  0  0  0  0
    2.9987    3.1723   -0.4932 H   0  0  0  0  0  0  0  0  0  0  0  0
    2.2139    2.9454    1.0749 H   0  0  0  0  0  0  0  0  0  0  0  0
    0.6111    4.6601    1.8800 H   0  0  0  0  0  0  0  0  0  0  0  0
    0.2842    6.0748    0.8714 H   0  0  0  0  0  0  0  0  0  0  0  0
    3.7893    5.3778    0.1514 H   0  0  0  0  0  0  0  0  0  0  0  0
    3.0473    5.2018    1.7563 H   0  0  0  0  0  0  0  0  0  0  0  0
    2.6541    6.5921    0.7216 H   0  0  0  0  0  0  0  0  0  0  0  0
   -0.3318    0.3528    0.7711 H   0  0  0  0  0  0  0  0  0  0  0  0
   -2.7182    3.3556   -1.1726 H   0  0  0  0  0  0  0  0  0  0  0  0
   -4.5228    1.7520   -1.4826 H   0  0  0  0  0  0  0  0  0  0  0  0
   -2.9817   -2.1242    0.6448 H   0  0  0  0  0  0  0  0  0  0  0  0
    2.7803   -0.4260    1.3324 H   0  0  0  0  0  0  0  0  0  0  0  0
    5.2026   -2.1490   -1.8405 H   0  0  0  0  0  0  0  0  0  0  0  0
    2.0385   -4.6793    0.9824 H   0  0  0  0  0  0  0  0  0  0  0  0
    3.2391   -4.7294   -1.1866 H   0  0  0  0  0  0  0  0  0  0  0  0
    1.9798   -3.8097   -2.0949 H   0  0  0  0  0  0  0  0  0  0  0  0
    3.6633   -3.8274   -2.6687 H   0  0  0  0  0  0  0  0  0  0  0  0
   -0.2554   -5.4668    1.5743 H   0  0  0  0  0  0  0  0  0  0  0  0
    4.3521    1.1235    1.5764 H   0  0  0  0  0  0  0  0  0  0  0  0
    5.8569    1.8361    1.1254 H   0  0  0  0  0  0  0  0  0  0  0  0
  1 32  1  0  0  0  0
  2 32  1  0  0  0  0
  3 32  1  0  0  0  0
  4 23  1  0  0  0  0
  4 32  1  0  0  0  0
  5 34  2  0  0  0  0
  6 13  1  0  0  0  0
  6 14  1  0  0  0  0
  6 17  1  0  0  0  0
  7 15  1  0  0  0  0
  7 16  1  0  0  0  0
  7 18  1  0  0  0  0
  8 21  1  0  0  0  0
  8 24  1  0  0  0  0
  8 49  1  0  0  0  0
  9 25  1  0  0  0  0
  9 29  1  0  0  0  0
  9 31  1  0  0  0  0
 10 24  1  0  0  0  0
 10 26  2  0  0  0  0
 11 24  2  0  0  0  0
 11 33  1  0  0  0  0
 12 34  1  0  0  0  0
 12 57  1  0  0  0  0
 12 58  1  0  0  0  0
 13 15  1  0  0  0  0
 13 35  1  0  0  0  0
 13 36  1  0  0  0  0
 14 16  1  0  0  0  0
 14 37  1  0  0  0  0
 14 38  1  0  0  0  0
 15 39  1  0  0  0  0
 15 40  1  0  0  0  0
 16 41  1  0  0  0  0
 16 42  1  0  0  0  0
 17 19  2  0  0  0  0
 17 20  1  0  0  0  0
 18 43  1  0  0  0  0
 18 44  1  0  0  0  0
 18 45  1  0  0  0  0
 19 21  1  0  0  0  0
 19 46  1  0  0  0  0
 20 22  2  0  0  0  0
 20 47  1  0  0  0  0
 21 23  2  0  0  0  0
 22 23  1  0  0  0  0
 22 48  1  0  0  0  0
 25 26  1  0  0  0  0
 25 27  2  0  0  0  0
 26 30  1  0  0  0  0
 27 28  1  0  0  0  0
 27 50  1  0  0  0  0
 28 29  2  0  0  0  0
 28 34  1  0  0  0  0
 29 51  1  0  0  0  0
 30 33  2  0  0  0  0
 30 52  1  0  0  0  0
 31 53  1  0  0  0  0
 31 54  1  0  0  0  0
 31 55  1  0  0  0  0
 33 56  1  0  0  0  0
M  END
> <PUBCHEM_COMPOUND_CID>
54759168

> <PUBCHEM_CONFORMER_RMSD>
1

> <PUBCHEM_CONFORMER_DIVERSEORDER>
1
42
143
62
19
129
61
119
158
169
32
72
174
79
47
80
89
170
27
8
147
132
128
35
137
49
92
9
87
153
112
23
46
53
141
48
22
167
165
106
109
45
29
120
149
125
7
63
82
146
152
142
105
4
139
52
74
73
58
20
15
155
44
111
164
117
75
168
154
94
69
162
36
150
25
83
103
64
161
28
33
163
140
26
172
133
135
134
98
100
118
70
56
156
85
126
93
144
116
13
97
130
122
86
66
3
38
104
40
166
90
18
148
131
160
113
127
12
88
123
157
171
138
77
124
10
96
84
67
51
65
159
39
173
81
21
24
115
145
60
14
76
68
2
31
30
59
54
57
43
16
6
71
108
41
151
110
101
107
114
17
55
78
95
34
136
102
37
50
91
121
99
5
11

> <PUBCHEM_MMFF94_PARTIAL_CHARGES>
44
1 -0.34
10 -0.62
11 -0.62
12 -0.8
13 0.37
14 0.37
15 0.27
16 0.27
17 0.1
18 0.27
19 -0.15
2 -0.34
20 -0.15
21 0.1
22 -0.15
23 0.08
24 0.72
25 -0.2
26 0.36
27 -0.15
28 -0.09
29 -0.3
3 -0.34
30 -0.15
31 0.26
32 1.3
33 0.16
34 0.72
4 -0.36
46 0.15
47 0.15
48 0.15
49 0.4
5 -0.57
50 0.15
51 0.15
52 0.15
56 0.15
57 0.37
58 0.37
6 -0.84
7 -0.81
8 -0.6
9 0.05

> <PUBCHEM_EFFECTIVE_ROTOR_COUNT>
8.2

> <PUBCHEM_PHARMACOPHORE_FEATURES>
13
1 10 acceptor
1 12 donor
1 4 acceptor
1 5 acceptor
1 6 cation
1 7 cation
1 8 donor
1 9 cation
4 8 10 11 24 cation
5 9 25 27 28 29 rings
6 10 11 24 26 30 33 rings
6 17 19 20 21 22 23 rings
6 6 7 13 14 15 16 rings

> <PUBCHEM_HEAVY_ATOM_COUNT>
34

> <PUBCHEM_ATOM_DEF_STEREO_COUNT>
0

> <PUBCHEM_ATOM_UDEF_STEREO_COUNT>
0

> <PUBCHEM_BOND_DEF_STEREO_COUNT>
0

> <PUBCHEM_BOND_UDEF_STEREO_COUNT>
0

> <PUBCHEM_ISOTOPIC_ATOM_COUNT>
0

> <PUBCHEM_COMPONENT_COUNT>
1

> <PUBCHEM_CACTVS_TAUTO_COUNT>
6

> <PUBCHEM_CONFORMER_ID>
03438F0000000001

> <PUBCHEM_MMFF94_ENERGY>
110.3985

> <PUBCHEM_FEATURE_SELFOVERLAP>
65.975

> <PUBCHEM_SHAPE_FINGERPRINT>
10049733 57 18117852220555677819
10316853 100 18336263547786373994
10498660 4 18191304866783326398
10653451 467 18115881865886313475
1100329 8 18337109093618665042
11059048 146 17115232464964250100
11513181 2 17623291980560378918
11621639 179 17680978606233327541
12788726 201 18336828568204208306
13402501 40 18409445899559948562
1361 2 18410571820667581304
140371 6 18340497728711141344
14394314 77 18339086982157519593
14647877 51 18122064475144176000
14725015 67 18337094697410710544
15081414 286 18412831261164658762
15320467 1 18410009957620460368
15439362 3 18267017443942122401
15927050 60 17979354488635306735
19311894 1 16974781945012906494
19611394 137 18188504586845910978
19930381 70 18336260124602506545
21133410 171 17252534099900852119
21133410 221 17912338113242385696
23559900 14 18339635750017594473
24771750 20 17974019636616238925
392239 28 18193281792937322002
463206 1 18339078314622560708
469060 322 18267309728965792169
5265222 85 17037831802788492652
5309563 4 18340202994774833501
532947 4 18337670944577332289
53794403 172 18192150614589785276
6004065 56 18340199791093065231
6669772 16 18195522829927213845
9961470 85 18122901203161279993

> <PUBCHEM_SHAPE_MULTIPOLES>
631.28
11.59
7.91
1.1
6.54
7.64
0.15
-3.7
2.7
-5.06
-2.23
-0.33
-0.64
1.74

> <PUBCHEM_SHAPE_SELFOVERLAP>
1367.405

> <PUBCHEM_SHAPE_VOLUME>
347.6

> <PUBCHEM_COORDINATE_TYPE>
2
5
10

$$$$
