49830786
  -OEChem-10052120443D

 46 49  0     0  0  0  0  0  0999 V2000
   -2.0781   -1.9153   -0.7592 F   0  0  0  0  0  0  0  0  0  0  0  0
    6.0727    2.5104    0.3687 F   0  0  0  0  0  0  0  0  0  0  0  0
    2.4795   -0.9881   -0.2740 O   0  0  0  0  0  0  0  0  0  0  0  0
   -6.6349   -0.5102    1.4846 N   0  0  0  0  0  0  0  0  0  0  0  0
   -5.7141   -0.4142    2.4583 N   0  0  0  0  0  0  0  0  0  0  0  0
    1.5340    1.1524   -0.1561 N   0  0  0  0  0  0  0  0  0  0  0  0
   -3.3718    0.0278    2.3733 N   0  0  0  0  0  0  0  0  0  0  0  0
    3.8237    0.9027    0.0205 N   0  0  0  0  0  0  0  0  0  0  0  0
   -4.7805   -0.0819    0.3955 C   0  0  0  0  0  0  0  0  0  0  0  0
   -3.9750    0.1545   -0.7309 C   0  0  0  0  0  0  0  0  0  0  0  0
   -6.1392   -0.3210    0.2228 C   0  0  0  0  0  0  0  0  0  0  0  0
   -2.5616    0.4067   -0.5838 C   0  0  0  0  0  0  0  0  0  0  0  0
   -4.5872   -0.1538    1.7919 C   0  0  0  0  0  0  0  0  0  0  0  0
   -4.5741    0.1407   -1.9967 C   0  0  0  0  0  0  0  0  0  0  0  0
   -6.7562   -0.3394   -1.0298 C   0  0  0  0  0  0  0  0  0  0  0  0
   -1.6540   -0.6524   -0.6038 C   0  0  0  0  0  0  0  0  0  0  0  0
   -2.1040    1.7144   -0.4214 C   0  0  0  0  0  0  0  0  0  0  0  0
   -5.9412   -0.1021   -2.1416 C   0  0  0  0  0  0  0  0  0  0  0  0
    0.1687    0.9038   -0.2986 C   0  0  0  0  0  0  0  0  0  0  0  0
   -0.2889   -0.4037   -0.4613 C   0  0  0  0  0  0  0  0  0  0  0  0
   -0.7389    1.9630   -0.2786 C   0  0  0  0  0  0  0  0  0  0  0  0
    5.1251    0.3512    0.0824 C   0  0  0  0  0  0  0  0  0  0  0  0
    2.6053    0.2258   -0.1494 C   0  0  0  0  0  0  0  0  0  0  0  0
    6.5838   -1.5742    0.0293 C   0  0  0  0  0  0  0  0  0  0  0  0
    5.3017   -1.0278   -0.0319 C   0  0  0  0  0  0  0  0  0  0  0  0
    6.2304    1.1837    0.2580 C   0  0  0  0  0  0  0  0  0  0  0  0
    7.6891   -0.7415    0.2052 C   0  0  0  0  0  0  0  0  0  0  0  0
    7.5125    0.6374    0.3193 C   0  0  0  0  0  0  0  0  0  0  0  0
    6.7733   -3.0486   -0.0930 C   0  0  0  0  0  0  0  0  0  0  0  0
   -3.9778    0.3202   -2.8892 H   0  0  0  0  0  0  0  0  0  0  0  0
   -7.8182   -0.5282   -1.1403 H   0  0  0  0  0  0  0  0  0  0  0  0
   -2.7979    2.5515   -0.4030 H   0  0  0  0  0  0  0  0  0  0  0  0
   -6.3813   -0.1073   -3.1356 H   0  0  0  0  0  0  0  0  0  0  0  0
   -7.5916   -0.7083    1.7497 H   0  0  0  0  0  0  0  0  0  0  0  0
    0.3479   -1.2762   -0.4873 H   0  0  0  0  0  0  0  0  0  0  0  0
   -0.3964    2.9869   -0.1523 H   0  0  0  0  0  0  0  0  0  0  0  0
    1.7906    2.1298   -0.0420 H   0  0  0  0  0  0  0  0  0  0  0  0
   -3.2614   -0.0290    3.3813 H   0  0  0  0  0  0  0  0  0  0  0  0
   -2.5142    0.2262    1.8737 H   0  0  0  0  0  0  0  0  0  0  0  0
    4.4914   -1.7298   -0.1676 H   0  0  0  0  0  0  0  0  0  0  0  0
    3.7774    1.9145    0.1116 H   0  0  0  0  0  0  0  0  0  0  0  0
    8.6936   -1.1531    0.2564 H   0  0  0  0  0  0  0  0  0  0  0  0
    8.3727    1.2859    0.4563 H   0  0  0  0  0  0  0  0  0  0  0  0
    7.8211   -3.3083   -0.2782 H   0  0  0  0  0  0  0  0  0  0  0  0
    6.1894   -3.4442   -0.9309 H   0  0  0  0  0  0  0  0  0  0  0  0
    6.4559   -3.5465    0.8288 H   0  0  0  0  0  0  0  0  0  0  0  0
  1 16  1  0  0  0  0
  2 26  1  0  0  0  0
  3 23  2  0  0  0  0
  4  5  1  0  0  0  0
  4 11  1  0  0  0  0
  4 34  1  0  0  0  0
  5 13  2  0  0  0  0
  6 19  1  0  0  0  0
  6 23  1  0  0  0  0
  6 37  1  0  0  0  0
  7 13  1  0  0  0  0
  7 38  1  0  0  0  0
  7 39  1  0  0  0  0
  8 22  1  0  0  0  0
  8 23  1  0  0  0  0
  8 41  1  0  0  0  0
  9 10  2  0  0  0  0
  9 11  1  0  0  0  0
  9 13  1  0  0  0  0
 10 12  1  0  0  0  0
 10 14  1  0  0  0  0
 11 15  2  0  0  0  0
 12 16  2  0  0  0  0
 12 17  1  0  0  0  0
 14 18  2  0  0  0  0
 14 30  1  0  0  0  0
 15 18  1  0  0  0  0
 15 31  1  0  0  0  0
 16 20  1  0  0  0  0
 17 21  2  0  0  0  0
 17 32  1  0  0  0  0
 18 33  1  0  0  0  0
 19 20  2  0  0  0  0
 19 21  1  0  0  0  0
 20 35  1  0  0  0  0
 21 36  1  0  0  0  0
 22 25  1  0  0  0  0
 22 26  2  0  0  0  0
 24 25  2  0  0  0  0
 24 27  1  0  0  0  0
 24 29  1  0  0  0  0
 25 40  1  0  0  0  0
 26 28  1  0  0  0  0
 27 28  2  0  0  0  0
 27 42  1  0  0  0  0
 28 43  1  0  0  0  0
 29 44  1  0  0  0  0
 29 45  1  0  0  0  0
 29 46  1  0  0  0  0
M  END
> <PUBCHEM_COMPOUND_CID>
49830786

> <PUBCHEM_CONFORMER_RMSD>
0.8

> <PUBCHEM_CONFORMER_DIVERSEORDER>
2
23
46
24
20
67
39
31
68
56
22
38
21
49
17
1
65
66
43
33
64
61
19
47
3
63
13
62
14
35
28
4
50
27
40
54
18
26
36
25
11
51
16
60
44
52
29
8
37
58
12
59
7
55
15
30
10
57
53
41
6
45
42
48
5
34
32
9

> <PUBCHEM_MMFF94_PARTIAL_CHARGES>
40
1 -0.19
11 -0.15
13 0.37
14 -0.15
15 -0.15
16 0.19
17 -0.15
18 -0.15
19 0.12
2 -0.19
20 -0.15
21 -0.15
22 0.12
23 0.69
24 -0.14
25 -0.15
26 0.19
27 -0.15
28 -0.15
29 0.14
3 -0.57
30 0.15
31 0.15
32 0.15
33 0.15
34 0.27
35 0.15
36 0.15
37 0.37
38 0.4
39 0.4
4 0.3
40 0.15
41 0.37
42 0.15
43 0.15
5 -0.71
6 -0.55
7 -0.88
8 -0.55

> <PUBCHEM_EFFECTIVE_ROTOR_COUNT>
5

> <PUBCHEM_PHARMACOPHORE_FEATURES>
10
1 3 acceptor
1 4 donor
1 6 donor
1 7 donor
1 8 donor
3 5 7 13 cation
5 4 5 9 11 13 rings
6 12 16 17 19 20 21 rings
6 22 24 25 26 27 28 rings
6 9 10 11 14 15 18 rings

> <PUBCHEM_HEAVY_ATOM_COUNT>
29

> <PUBCHEM_ATOM_DEF_STEREO_COUNT>
0

> <PUBCHEM_ATOM_UDEF_STEREO_COUNT>
0

> <PUBCHEM_BOND_DEF_STEREO_COUNT>
0

> <PUBCHEM_BOND_UDEF_STEREO_COUNT>
0

> <PUBCHEM_ISOTOPIC_ATOM_COUNT>
0

> <PUBCHEM_COMPONENT_COUNT>
1

> <PUBCHEM_CACTVS_TAUTO_COUNT>
150

> <PUBCHEM_CONFORMER_ID>
02F85B8200000002

> <PUBCHEM_MMFF94_ENERGY>
83.8363

> <PUBCHEM_FEATURE_SELFOVERLAP>
50.887

> <PUBCHEM_SHAPE_FINGERPRINT>
10 15 17895190052221811456
10299344 5 17632576059171217142
11315181 36 17275382136398606197
11524674 6 17894350003557711563
12236239 1 17632297882613410149
12741549 16 18260554451061160845
13533116 47 18343298155300100026
13685833 64 18408041801905182244
14028597 1 17417819383393917170
14118638 360 18409166576979414856
14251764 18 17704352182353308884
14344974 204 17460611435523637059
14849402 71 17202758340822239320
14856354 85 16343697772810564221
15183329 4 18059855069554823686
15328684 2 17060062480497696946
15352257 5 16950563259969397586
15419008 47 17676196979374700660
15419008 91 17168691042355888588
15510794 2 17748542637264094682
15716309 27 18202001018924584501
1577012 14 17489591168832580016
15849732 13 17603583036784287126
19377110 9 17561365050231582366
21130935 74 18201998850209284342
21267235 1 18410858729537199628
21315759 40 17846775226139191300
21623969 137 18334300855286028714
2303208 19 17894634742756402618
23081809 10 17561080324006872236
23522609 53 17703246116521972704
23559900 14 18269260430076442044
23569943 247 18200304403748534750
249057 3 15791730815501164519
3383291 50 18113902679803709571
3663271 9 16845573097882678662
397830 11 17386855087293053000
44880568 143 16877942728483265780
504579 68 10737291217376293826
5104073 3 18339077078458327024
5265222 85 16298963050764164939
57527293 21 17462316787359602147
57527295 17 17970321799799229463
58083652 198 18343576356599894520
9962374 69 18340473522903494526
999808 66 18114188531552015227

> <PUBCHEM_SHAPE_MULTIPOLES>
551.48
24.07
1.82
1.56
24.59
0.24
-0.56
6.19
-2.07
3.93
0.1
-4.51
0.25
1.15

> <PUBCHEM_SHAPE_SELFOVERLAP>
1230.458

> <PUBCHEM_SHAPE_VOLUME>
294.3

> <PUBCHEM_COORDINATE_TYPE>
2
5
10

$$$$
