71716081
  -OEChem-10062121573D

 69 72  0     1  0  0  0  0  0999 V2000
    0.8315    5.0343    0.8146 O   0  0  0  0  0  0  0  0  0  0  0  0
   -0.0080    1.5503    0.5770 O   0  0  0  0  0  0  0  0  0  0  0  0
   -1.5081    3.4933    1.8240 O   0  0  0  0  0  0  0  0  0  0  0  0
   -1.2779    6.1191    0.9935 O   0  0  0  0  0  0  0  0  0  0  0  0
   -2.6987    2.1062   -0.2926 O   0  0  0  0  0  0  0  0  0  0  0  0
    2.9311    2.1394    0.0780 O   0  0  0  0  0  0  0  0  0  0  0  0
    0.2627    0.7535   -1.5658 O   0  0  0  0  0  0  0  0  0  0  0  0
   -4.4439    2.4268   -1.7592 O   0  0  0  0  0  0  0  0  0  0  0  0
    4.8776    2.6488   -1.0407 O   0  0  0  0  0  0  0  0  0  0  0  0
   -0.0243   -4.2840   -0.7878 O   0  0  0  0  0  0  0  0  0  0  0  0
   -0.5545   -2.2799    3.5297 O   0  0  0  0  0  0  0  0  0  0  0  0
   -0.4098   -4.5453    1.9425 O   0  0  0  0  0  0  0  0  0  0  0  0
   -5.4803   -2.5590   -2.6457 O   0  0  0  0  0  0  0  0  0  0  0  0
   -3.7006   -2.2658    1.7912 O   0  0  0  0  0  0  0  0  0  0  0  0
    6.0971   -2.1690   -2.4617 O   0  0  0  0  0  0  0  0  0  0  0  0
    3.6537   -2.4959    1.6446 O   0  0  0  0  0  0  0  0  0  0  0  0
   -4.8526   -3.7655   -0.2329 O   0  0  0  0  0  0  0  0  0  0  0  0
    5.1273   -3.7006   -0.3678 O   0  0  0  0  0  0  0  0  0  0  0  0
   -1.1142    3.7232    0.4691 C   0  0  2  0  0  0  0  0  0  0  0  0
    0.1029    2.8821    0.1178 C   0  0  1  0  0  0  0  0  0  0  0  0
    1.2282    3.6476    0.8095 C   0  0  1  0  0  0  0  0  0  0  0  0
   -0.5213    5.1235    0.3257 C   0  0  2  0  0  0  0  0  0  0  0  0
   -2.3277    3.4698   -0.4083 C   0  0  0  0  0  0  0  0  0  0  0  0
    2.5658    3.5094    0.1025 C   0  0  0  0  0  0  0  0  0  0  0  0
    0.0896    0.5721   -0.3705 C   0  0  0  0  0  0  0  0  0  0  0  0
   -3.7797    1.7127   -1.0242 C   0  0  0  0  0  0  0  0  0  0  0  0
   -0.0430   -0.7759    0.2378 C   0  0  0  0  0  0  0  0  0  0  0  0
    4.1166    1.8438   -0.5266 C   0  0  0  0  0  0  0  0  0  0  0  0
   -4.0636    0.2703   -0.8160 C   0  0  0  0  0  0  0  0  0  0  0  0
    4.3821    0.3835   -0.4859 C   0  0  0  0  0  0  0  0  0  0  0  0
   -0.2382   -0.9033    1.6131 C   0  0  0  0  0  0  0  0  0  0  0  0
    0.0286   -1.9142   -0.5649 C   0  0  0  0  0  0  0  0  0  0  0  0
   -3.7471   -0.3336    0.4010 C   0  0  0  0  0  0  0  0  0  0  0  0
   -4.6454   -0.4812   -1.8368 C   0  0  0  0  0  0  0  0  0  0  0  0
   -0.0950   -3.1803    0.0076 C   0  0  0  0  0  0  0  0  0  0  0  0
   -0.3620   -2.1694    2.1856 C   0  0  0  0  0  0  0  0  0  0  0  0
    3.8910   -0.3848    0.5696 C   0  0  0  0  0  0  0  0  0  0  0  0
    5.1230   -0.2200   -1.5020 C   0  0  0  0  0  0  0  0  0  0  0  0
   -0.2905   -3.3077    1.3828 C   0  0  0  0  0  0  0  0  0  0  0  0
   -4.9108   -1.8367   -1.6408 C   0  0  0  0  0  0  0  0  0  0  0  0
   -4.0126   -1.6888    0.5972 C   0  0  0  0  0  0  0  0  0  0  0  0
    5.3729   -1.5918   -1.4625 C   0  0  0  0  0  0  0  0  0  0  0  0
    4.1408   -1.7566    0.6092 C   0  0  0  0  0  0  0  0  0  0  0  0
   -4.5945   -2.4403   -0.4237 C   0  0  0  0  0  0  0  0  0  0  0  0
    4.8816   -2.3601   -0.4070 C   0  0  0  0  0  0  0  0  0  0  0  0
    0.2556    2.9427   -0.9689 H   0  0  0  0  0  0  0  0  0  0  0  0
    1.3367    3.3135    1.8490 H   0  0  0  0  0  0  0  0  0  0  0  0
   -0.4548    5.4008   -0.7343 H   0  0  0  0  0  0  0  0  0  0  0  0
   -2.1020    3.6984   -1.4568 H   0  0  0  0  0  0  0  0  0  0  0  0
   -3.1668    4.0940   -0.0777 H   0  0  0  0  0  0  0  0  0  0  0  0
    3.3260    4.0934    0.6357 H   0  0  0  0  0  0  0  0  0  0  0  0
    2.5014    3.9039   -0.9194 H   0  0  0  0  0  0  0  0  0  0  0  0
   -0.8046    3.8150    2.4120 H   0  0  0  0  0  0  0  0  0  0  0  0
   -1.0871    6.9670    0.5578 H   0  0  0  0  0  0  0  0  0  0  0  0
   -0.2990   -0.0341    2.2625 H   0  0  0  0  0  0  0  0  0  0  0  0
    0.1808   -1.8212   -1.6374 H   0  0  0  0  0  0  0  0  0  0  0  0
   -3.3062    0.2439    1.2100 H   0  0  0  0  0  0  0  0  0  0  0  0
   -4.8899   -0.0131   -2.7874 H   0  0  0  0  0  0  0  0  0  0  0  0
    3.3211    0.0743    1.3739 H   0  0  0  0  0  0  0  0  0  0  0  0
    5.5041    0.3767   -2.3274 H   0  0  0  0  0  0  0  0  0  0  0  0
    0.1132   -4.0035   -1.7089 H   0  0  0  0  0  0  0  0  0  0  0  0
   -0.5814   -1.3905    3.9221 H   0  0  0  0  0  0  0  0  0  0  0  0
   -0.5399   -4.4375    2.9007 H   0  0  0  0  0  0  0  0  0  0  0  0
   -5.6282   -1.9770   -3.4108 H   0  0  0  0  0  0  0  0  0  0  0  0
   -3.3227   -1.5913    2.3810 H   0  0  0  0  0  0  0  0  0  0  0  0
    6.3530   -1.4851   -3.1043 H   0  0  0  0  0  0  0  0  0  0  0  0
    3.1531   -1.9148    2.2426 H   0  0  0  0  0  0  0  0  0  0  0  0
   -4.5643   -4.0080    0.6643 H   0  0  0  0  0  0  0  0  0  0  0  0
    4.7101   -4.0658    0.4318 H   0  0  0  0  0  0  0  0  0  0  0  0
  1 21  1  0  0  0  0
  1 22  1  0  0  0  0
  2 20  1  0  0  0  0
  2 25  1  0  0  0  0
  3 19  1  0  0  0  0
  3 53  1  0  0  0  0
  4 22  1  0  0  0  0
  4 54  1  0  0  0  0
  5 23  1  0  0  0  0
  5 26  1  0  0  0  0
  6 24  1  0  0  0  0
  6 28  1  0  0  0  0
  7 25  2  0  0  0  0
  8 26  2  0  0  0  0
  9 28  2  0  0  0  0
 10 35  1  0  0  0  0
 10 61  1  0  0  0  0
 11 36  1  0  0  0  0
 11 62  1  0  0  0  0
 12 39  1  0  0  0  0
 12 63  1  0  0  0  0
 13 40  1  0  0  0  0
 13 64  1  0  0  0  0
 14 41  1  0  0  0  0
 14 65  1  0  0  0  0
 15 42  1  0  0  0  0
 15 66  1  0  0  0  0
 16 43  1  0  0  0  0
 16 67  1  0  0  0  0
 17 44  1  0  0  0  0
 17 68  1  0  0  0  0
 18 45  1  0  0  0  0
 18 69  1  0  0  0  0
 19 20  1  0  0  0  0
 19 22  1  0  0  0  0
 19 23  1  0  0  0  0
 20 21  1  0  0  0  0
 20 46  1  0  0  0  0
 21 24  1  0  0  0  0
 21 47  1  0  0  0  0
 22 48  1  0  0  0  0
 23 49  1  0  0  0  0
 23 50  1  0  0  0  0
 24 51  1  0  0  0  0
 24 52  1  0  0  0  0
 25 27  1  0  0  0  0
 26 29  1  0  0  0  0
 27 31  2  0  0  0  0
 27 32  1  0  0  0  0
 28 30  1  0  0  0  0
 29 33  2  0  0  0  0
 29 34  1  0  0  0  0
 30 37  2  0  0  0  0
 30 38  1  0  0  0  0
 31 36  1  0  0  0  0
 31 55  1  0  0  0  0
 32 35  2  0  0  0  0
 32 56  1  0  0  0  0
 33 41  1  0  0  0  0
 33 57  1  0  0  0  0
 34 40  2  0  0  0  0
 34 58  1  0  0  0  0
 35 39  1  0  0  0  0
 36 39  2  0  0  0  0
 37 43  1  0  0  0  0
 37 59  1  0  0  0  0
 38 42  2  0  0  0  0
 38 60  1  0  0  0  0
 40 44  1  0  0  0  0
 41 44  2  0  0  0  0
 42 45  1  0  0  0  0
 43 45  2  0  0  0  0
M  END
> <PUBCHEM_COMPOUND_CID>
71716081

> <PUBCHEM_CONFORMER_RMSD>
1.2

> <PUBCHEM_CONFORMER_DIVERSEORDER>
1
11
30
33
32
7
23
62
28
66
68
22
35
34
69
46
39
36
42
55
38
3
13
56
18
70
67
51
17
29
58
20
72
57
12
19
47
63
15
49
26
5
37
61
44
59
31
54
10
9
16
65
53
73
45
25
71
48
41
52
27
4
14
60
24
50
43
2
8
40
6
64
21

> <PUBCHEM_MMFF94_PARTIAL_CHARGES>
62
1 -0.56
10 -0.53
11 -0.53
12 -0.53
13 -0.53
14 -0.53
15 -0.53
16 -0.53
17 -0.53
18 -0.53
19 0.28
2 -0.43
20 0.28
21 0.28
22 0.56
23 0.28
24 0.28
25 0.63
26 0.63
27 0.09
28 0.63
29 0.09
3 -0.68
30 0.09
31 -0.15
32 -0.15
33 -0.15
34 -0.15
35 0.08
36 0.08
37 -0.15
38 -0.15
39 0.08
4 -0.68
40 0.08
41 0.08
42 0.08
43 0.08
44 0.08
45 0.08
5 -0.43
53 0.4
54 0.4
55 0.15
56 0.15
57 0.15
58 0.15
59 0.15
6 -0.43
60 0.15
61 0.45
62 0.45
63 0.45
64 0.45
65 0.45
66 0.45
67 0.45
68 0.45
69 0.45
7 -0.57
8 -0.57
9 -0.57

> <PUBCHEM_EFFECTIVE_ROTOR_COUNT>
12

> <PUBCHEM_PHARMACOPHORE_FEATURES>
21
1 1 acceptor
1 10 donor
1 11 donor
1 12 donor
1 13 donor
1 14 donor
1 15 donor
1 16 donor
1 17 donor
1 18 donor
1 3 acceptor
1 3 donor
1 4 acceptor
1 4 donor
1 7 acceptor
1 8 acceptor
1 9 acceptor
5 1 19 20 21 22 rings
6 27 31 32 35 36 39 rings
6 29 33 34 40 41 44 rings
6 30 37 38 42 43 45 rings

> <PUBCHEM_HEAVY_ATOM_COUNT>
45

> <PUBCHEM_ATOM_DEF_STEREO_COUNT>
4

> <PUBCHEM_ATOM_UDEF_STEREO_COUNT>
0

> <PUBCHEM_BOND_DEF_STEREO_COUNT>
0

> <PUBCHEM_BOND_UDEF_STEREO_COUNT>
0

> <PUBCHEM_ISOTOPIC_ATOM_COUNT>
0

> <PUBCHEM_COMPONENT_COUNT>
1

> <PUBCHEM_CACTVS_TAUTO_COUNT>
1001

> <PUBCHEM_CONFORMER_ID>
04464CF100000001

> <PUBCHEM_MMFF94_ENERGY>
128.4296

> <PUBCHEM_FEATURE_SELFOVERLAP>
106.665

> <PUBCHEM_SHAPE_FINGERPRINT>
10556698 54 17828160482002691319
10940486 97 17113798705701595483
11285246 1 18339651027342717696
12788726 201 18408609132741472506
15351339 4 18261379057671421307
17909252 39 18271519918023830320
19311894 1 18341894048486135165
20764821 26 18337398153560602008
20775438 99 17838591685521586590
4015057 19 18267311021825001858
45266715 3 17760905730600802759
463206 1 18267020561655836785

> <PUBCHEM_SHAPE_MULTIPOLES>
820.43
11.6
7.77
2.07
4.96
7.29
0.47
-8.58
-8.12
-1.12
2.51
-0.72
-1.72
0.23

> <PUBCHEM_SHAPE_SELFOVERLAP>
1798.055

> <PUBCHEM_SHAPE_VOLUME>
440.3

> <PUBCHEM_COORDINATE_TYPE>
2
5
10

$$$$
