24809803
  -OEChem-10052115183D

 34 36  0     0  0  0  0  0  0999 V2000
   -1.9717    0.2862   -2.6064 Cl  0  0  0  0  0  0  0  0  0  0  0  0
   -5.9328    2.4017    0.3467 Cl  0  0  0  0  0  0  0  0  0  0  0  0
   -2.5588   -2.5806    0.1185 O   0  0  0  0  0  0  0  0  0  0  0  0
    0.5078    0.3193    0.0919 N   0  0  0  0  0  0  0  0  0  0  0  0
    3.0864    1.2327    0.0563 N   0  0  0  0  0  0  0  0  0  0  0  0
   -0.8503   -4.1103    0.1084 N   0  0  0  0  0  0  0  0  0  0  0  0
    5.4716    0.8909    0.0218 N   0  0  0  0  0  0  0  0  0  0  0  0
    4.5649    3.0548    0.0377 N   0  0  0  0  0  0  0  0  0  0  0  0
   -0.6710   -0.3796    0.1089 C   0  0  0  0  0  0  0  0  0  0  0  0
   -0.3655   -1.7226    0.1026 C   0  0  0  0  0  0  0  0  0  0  0  0
    1.5611   -0.5574    0.0756 C   0  0  0  0  0  0  0  0  0  0  0  0
   -1.9496    0.2959    0.1309 C   0  0  0  0  0  0  0  0  0  0  0  0
    1.0468   -1.8351    0.0814 C   0  0  0  0  0  0  0  0  0  0  0  0
    2.9318   -0.1076    0.0560 C   0  0  0  0  0  0  0  0  0  0  0  0
   -2.6203    0.6409   -1.0425 C   0  0  0  0  0  0  0  0  0  0  0  0
   -2.5108    0.6021    1.3706 C   0  0  0  0  0  0  0  0  0  0  0  0
   -1.3234   -2.7920    0.1163 C   0  0  0  0  0  0  0  0  0  0  0  0
    3.9835   -1.0008    0.0393 C   0  0  0  0  0  0  0  0  0  0  0  0
   -3.8521    1.2921   -0.9762 C   0  0  0  0  0  0  0  0  0  0  0  0
   -3.7425    1.2532    1.4371 C   0  0  0  0  0  0  0  0  0  0  0  0
   -4.4132    1.5981    0.2637 C   0  0  0  0  0  0  0  0  0  0  0  0
    5.2437   -0.4390    0.0227 C   0  0  0  0  0  0  0  0  0  0  0  0
    4.3643    1.6572    0.0387 C   0  0  0  0  0  0  0  0  0  0  0  0
    0.5883    1.3275    0.0921 H   0  0  0  0  0  0  0  0  0  0  0  0
    1.6252   -2.7488    0.0716 H   0  0  0  0  0  0  0  0  0  0  0  0
   -2.0029    0.3407    2.2962 H   0  0  0  0  0  0  0  0  0  0  0  0
    3.8640   -2.0763    0.0392 H   0  0  0  0  0  0  0  0  0  0  0  0
   -4.3774    1.5623   -1.8899 H   0  0  0  0  0  0  0  0  0  0  0  0
   -4.1677    1.4854    2.4101 H   0  0  0  0  0  0  0  0  0  0  0  0
    6.1322   -1.0612    0.0091 H   0  0  0  0  0  0  0  0  0  0  0  0
    0.1358   -4.3466    0.0999 H   0  0  0  0  0  0  0  0  0  0  0  0
   -1.5008   -4.8891    0.1115 H   0  0  0  0  0  0  0  0  0  0  0  0
    3.7644    3.6717    0.0500 H   0  0  0  0  0  0  0  0  0  0  0  0
    5.5064    3.4218    0.0249 H   0  0  0  0  0  0  0  0  0  0  0  0
  1 15  1  0  0  0  0
  2 21  1  0  0  0  0
  3 17  2  0  0  0  0
  4  9  1  0  0  0  0
  4 11  1  0  0  0  0
  4 24  1  0  0  0  0
  5 14  2  0  0  0  0
  5 23  1  0  0  0  0
  6 17  1  0  0  0  0
  6 31  1  0  0  0  0
  6 32  1  0  0  0  0
  7 22  1  0  0  0  0
  7 23  2  0  0  0  0
  8 23  1  0  0  0  0
  8 33  1  0  0  0  0
  8 34  1  0  0  0  0
  9 10  2  0  0  0  0
  9 12  1  0  0  0  0
 10 13  1  0  0  0  0
 10 17  1  0  0  0  0
 11 13  2  0  0  0  0
 11 14  1  0  0  0  0
 12 15  2  0  0  0  0
 12 16  1  0  0  0  0
 13 25  1  0  0  0  0
 14 18  1  0  0  0  0
 15 19  1  0  0  0  0
 16 20  2  0  0  0  0
 16 26  1  0  0  0  0
 18 22  2  0  0  0  0
 18 27  1  0  0  0  0
 19 21  2  0  0  0  0
 19 28  1  0  0  0  0
 20 21  1  0  0  0  0
 20 29  1  0  0  0  0
 22 30  1  0  0  0  0
M  END
> <PUBCHEM_COMPOUND_CID>
24809803

> <PUBCHEM_CONFORMER_RMSD>
0.6

> <PUBCHEM_CONFORMER_DIVERSEORDER>
1
76
62
55
77
15
7
58
78
27
75
44
28
4
65
67
9
72
74
29
35
73
56
3
61
42
2
32
16
33
8
47
31
38
36
34
10
51
26
57
63
25
71
6
22
45
5
70
39
30
49
21
53
18
12
17
64
54
40
37
59
11
52
41
60
43
24
48
68
69
66
23
50
46
20
19
14
13

> <PUBCHEM_MMFF94_PARTIAL_CHARGES>
34
1 -0.18
10 -0.09
11 -0.2
12 0.05
13 -0.15
14 0.36
15 0.18
16 -0.15
17 0.72
18 -0.15
19 -0.15
2 -0.18
20 -0.15
21 0.18
22 0.16
23 0.72
24 0.27
25 0.15
26 0.15
27 0.15
28 0.15
29 0.15
3 -0.57
30 0.15
31 0.37
32 0.37
33 0.4
34 0.4
4 0.03
5 -0.62
6 -0.8
7 -0.62
8 -0.9
9 -0.2

> <PUBCHEM_EFFECTIVE_ROTOR_COUNT>
3

> <PUBCHEM_PHARMACOPHORE_FEATURES>
10
1 3 acceptor
1 4 cation
1 4 donor
1 5 acceptor
1 6 donor
1 8 donor
4 5 7 8 23 cation
5 4 9 10 11 13 rings
6 12 15 16 19 20 21 rings
6 5 7 14 18 22 23 rings

> <PUBCHEM_HEAVY_ATOM_COUNT>
23

> <PUBCHEM_ATOM_DEF_STEREO_COUNT>
0

> <PUBCHEM_ATOM_UDEF_STEREO_COUNT>
0

> <PUBCHEM_BOND_DEF_STEREO_COUNT>
0

> <PUBCHEM_BOND_UDEF_STEREO_COUNT>
0

> <PUBCHEM_ISOTOPIC_ATOM_COUNT>
0

> <PUBCHEM_COMPONENT_COUNT>
1

> <PUBCHEM_CACTVS_TAUTO_COUNT>
21

> <PUBCHEM_CONFORMER_ID>
017A914B00000001

> <PUBCHEM_MMFF94_ENERGY>
56.8661

> <PUBCHEM_FEATURE_SELFOVERLAP>
50.746

> <PUBCHEM_SHAPE_FINGERPRINT>
10493431 412 18409451367164190093
11405975 8 18408881867649373850
11582403 64 15940579323577563967
11796584 16 13326558640994551357
12107183 9 18336256831185777178
12173636 292 18412546526291829447
12236239 1 17774153497079928357
12390115 104 18339658813775377843
12516196 113 9294992562331115129
12633257 1 18336537258068757928
12788726 201 18125421253884852679
12969540 114 18261096449097768213
13140716 1 18407759248870938850
13583140 156 16516231986078701724
13994607 96 17988933300966623777
14142880 1 18261670484604360311
14787075 74 18201718466691745955
14790565 3 18340493253150133881
15342168 16 18410014316848852565
17834072 32 18410012139168265720
17980427 23 17313682511597728509
1813 80 7853281098841957627
19784866 140 11023822847456546605
204376 136 18410013195951890139
20645477 56 18259703393687790614
21033648 144 18339067290106682900
21033648 29 18041826347108467764
21033650 10 16915407453861233176
21049683 118 18265872770542566099
21236236 1 18411981395070430755
21756936 100 18272929423057908601
22079108 93 18413109459540154697
22122407 14 18270131102042785897
22224240 67 18261679186703954793
23227448 37 18411420652081113004
23419403 2 13263247778125550391
23558518 356 18044096984753863802
23559900 14 18343866607191367834
23845131 108 18261395503898347995
335352 9 18339364068230950718
350125 39 18266745873022066993
4214541 1 18338517542824278010
4340502 62 18339370660942192955
469060 322 16733258062404410679
474 4 18271244911177806755
5104073 3 18261948657130944648
59755656 520 18409728435024667159
621550 34 17897729756635927773
633830 44 18200594687749642055
8272917 22 17981327790422498953

> <PUBCHEM_SHAPE_MULTIPOLES>
446.29
11.48
3.25
1.23
5.2
2.51
0.72
-10.47
-1.06
-0.15
-0.35
-1.58
-0.28
-0.26

> <PUBCHEM_SHAPE_SELFOVERLAP>
969.461

> <PUBCHEM_SHAPE_VOLUME>
246.1

> <PUBCHEM_COORDINATE_TYPE>
2
5
10

$$$$
