25134688
  -OEChem-10052120443D

 42 46  0     0  0  0  0  0  0999 V2000
   -1.4424    2.7658    1.7826 F   0  0  0  0  0  0  0  0  0  0  0  0
    1.9845    4.6608   -0.8686 F   0  0  0  0  0  0  0  0  0  0  0  0
   -5.0417   -0.5633    0.3638 O   0  0  0  0  0  0  0  0  0  0  0  0
    1.7951   -1.5993    0.0164 N   0  0  0  0  0  0  0  0  0  0  0  0
   -2.9070   -1.1271    0.1091 N   0  0  0  0  0  0  0  0  0  0  0  0
    0.7049   -0.8079    0.1742 N   0  0  0  0  0  0  0  0  0  0  0  0
   -3.2661    1.0740    0.0371 N   0  0  0  0  0  0  0  0  0  0  0  0
    3.8690   -2.3076    0.0457 N   0  0  0  0  0  0  0  0  0  0  0  0
    3.0793   -3.3101   -0.4799 N   0  0  0  0  0  0  0  0  0  0  0  0
   -1.6765   -0.5985   -0.0839 C   0  0  0  0  0  0  0  0  0  0  0  0
    3.4859   -0.0003    0.9195 C   0  0  0  0  0  0  0  0  0  0  0  0
    3.0857   -1.2934    0.3357 C   0  0  0  0  0  0  0  0  0  0  0  0
   -0.4089   -1.3641   -0.2102 C   0  0  0  0  0  0  0  0  0  0  0  0
   -1.9203    0.7698   -0.1259 C   0  0  0  0  0  0  0  0  0  0  0  0
    1.8367   -2.8763   -0.4934 C   0  0  0  0  0  0  0  0  0  0  0  0
   -3.7993   -0.1068    0.1726 C   0  0  0  0  0  0  0  0  0  0  0  0
   -0.5119   -2.7385   -0.7991 C   0  0  0  0  0  0  0  0  0  0  0  0
    4.4573    0.7972    0.0173 C   0  0  0  0  0  0  0  0  0  0  0  0
    4.1030   -0.1377    2.3316 C   0  0  0  0  0  0  0  0  0  0  0  0
   -0.9151    1.7738   -0.3138 C   0  0  0  0  0  0  0  0  0  0  0  0
    0.6194   -3.4453   -0.9167 C   0  0  0  0  0  0  0  0  0  0  0  0
   -3.5722   -2.3143    0.2629 C   0  0  0  0  0  0  0  0  0  0  0  0
   -4.8611   -1.9711    0.4166 C   0  0  0  0  0  0  0  0  0  0  0  0
   -0.7082    2.7505    0.6603 C   0  0  0  0  0  0  0  0  0  0  0  0
   -0.1426    1.7723   -1.4753 C   0  0  0  0  0  0  0  0  0  0  0  0
    0.2715    3.7258    0.4729 C   0  0  0  0  0  0  0  0  0  0  0  0
    0.8368    2.7475   -1.6627 C   0  0  0  0  0  0  0  0  0  0  0  0
    1.0439    3.7242   -0.6886 C   0  0  0  0  0  0  0  0  0  0  0  0
    2.6000    0.6367    1.0407 H   0  0  0  0  0  0  0  0  0  0  0  0
   -1.4449   -3.1292   -1.1769 H   0  0  0  0  0  0  0  0  0  0  0  0
    5.4000    0.2567   -0.1222 H   0  0  0  0  0  0  0  0  0  0  0  0
    4.6828    1.7748    0.4561 H   0  0  0  0  0  0  0  0  0  0  0  0
    4.0159    0.9620   -0.9718 H   0  0  0  0  0  0  0  0  0  0  0  0
    5.0287   -0.7232    2.3020 H   0  0  0  0  0  0  0  0  0  0  0  0
    3.4069   -0.6456    3.0081 H   0  0  0  0  0  0  0  0  0  0  0  0
    4.3320    0.8462    2.7542 H   0  0  0  0  0  0  0  0  0  0  0  0
    0.6134   -4.4360   -1.3569 H   0  0  0  0  0  0  0  0  0  0  0  0
   -3.1181   -3.2890    0.2751 H   0  0  0  0  0  0  0  0  0  0  0  0
   -5.7463   -2.5563    0.5759 H   0  0  0  0  0  0  0  0  0  0  0  0
   -0.2921    1.0251   -2.2512 H   0  0  0  0  0  0  0  0  0  0  0  0
    0.4330    4.4861    1.2313 H   0  0  0  0  0  0  0  0  0  0  0  0
    1.4381    2.7471   -2.5671 H   0  0  0  0  0  0  0  0  0  0  0  0
  1 24  1  0  0  0  0
  2 28  1  0  0  0  0
  3 16  1  0  0  0  0
  3 23  1  0  0  0  0
  4  6  1  0  0  0  0
  4 12  1  0  0  0  0
  4 15  1  0  0  0  0
  5 10  1  0  0  0  0
  5 16  1  0  0  0  0
  5 22  1  0  0  0  0
  6 13  2  0  0  0  0
  7 14  1  0  0  0  0
  7 16  2  0  0  0  0
  8  9  1  0  0  0  0
  8 12  2  0  0  0  0
  9 15  2  0  0  0  0
 10 13  1  0  0  0  0
 10 14  2  0  0  0  0
 11 12  1  0  0  0  0
 11 18  1  0  0  0  0
 11 19  1  0  0  0  0
 11 29  1  0  0  0  0
 13 17  1  0  0  0  0
 14 20  1  0  0  0  0
 15 21  1  0  0  0  0
 17 21  2  0  0  0  0
 17 30  1  0  0  0  0
 18 31  1  0  0  0  0
 18 32  1  0  0  0  0
 18 33  1  0  0  0  0
 19 34  1  0  0  0  0
 19 35  1  0  0  0  0
 19 36  1  0  0  0  0
 20 24  2  0  0  0  0
 20 25  1  0  0  0  0
 21 37  1  0  0  0  0
 22 23  2  0  0  0  0
 22 38  1  0  0  0  0
 23 39  1  0  0  0  0
 24 26  1  0  0  0  0
 25 27  2  0  0  0  0
 25 40  1  0  0  0  0
 26 28  2  0  0  0  0
 26 41  1  0  0  0  0
 27 28  1  0  0  0  0
 27 42  1  0  0  0  0
M  END
> <PUBCHEM_COMPOUND_CID>
25134688

> <PUBCHEM_CONFORMER_RMSD>
0.8

> <PUBCHEM_CONFORMER_DIVERSEORDER>
1
20
19
3
16
22
2
7
5
4
21
17
11
13
8
6
10
9
14
15
12
18

> <PUBCHEM_MMFF94_PARTIAL_CHARGES>
33
1 -0.19
10 -0.24
11 0.18
12 0.01
13 0.52
14 0.17
15 0.14
16 0.25
17 -0.14
2 -0.19
20 0.05
21 -0.11
22 -0.18
23 -0.07
24 0.19
25 -0.15
26 -0.15
27 -0.15
28 0.19
3 -0.14
30 0.15
37 0.15
38 0.15
39 0.15
4 0.51
40 0.15
41 0.15
42 0.15
5 0.33
6 -0.65
7 -0.57
8 -0.34
9 -0.34

> <PUBCHEM_EFFECTIVE_ROTOR_COUNT>
3

> <PUBCHEM_PHARMACOPHORE_FEATURES>
10
1 6 acceptor
3 11 18 19 hydrophobe
3 4 8 12 cation
3 4 9 15 cation
3 5 7 16 cation
5 3 5 16 22 23 rings
5 4 8 9 12 15 rings
5 5 7 10 14 16 rings
6 20 24 25 26 27 28 rings
6 4 6 13 15 17 21 rings

> <PUBCHEM_HEAVY_ATOM_COUNT>
28

> <PUBCHEM_ATOM_DEF_STEREO_COUNT>
0

> <PUBCHEM_ATOM_UDEF_STEREO_COUNT>
0

> <PUBCHEM_BOND_DEF_STEREO_COUNT>
0

> <PUBCHEM_BOND_UDEF_STEREO_COUNT>
0

> <PUBCHEM_ISOTOPIC_ATOM_COUNT>
0

> <PUBCHEM_COMPONENT_COUNT>
1

> <PUBCHEM_CACTVS_TAUTO_COUNT>
1

> <PUBCHEM_CONFORMER_ID>
017F866000000001

> <PUBCHEM_MMFF94_ENERGY>
83.6341

> <PUBCHEM_FEATURE_SELFOVERLAP>
53.74

> <PUBCHEM_SHAPE_FINGERPRINT>
10006869 2 17397831177503605913
10165383 225 18059570334845778234
10670039 82 18337685101301392862
1100329 8 18051415364186426300
11115154 58 17628882731607166069
11963148 33 17035566800361416979
12403259 226 18126000464816285762
13140716 1 17905609161128171562
133893 2 17605580905389221621
138480 1 18409735075049173613
14028597 1 17627543693188032609
140371 6 18339369569883369211
14081887 123 18120929512550786523
14223421 5 18124311601870335142
14787075 74 18041842925418148178
14790565 3 18195536019328940552
14955137 171 18339651164565613986
15297060 5 17842567524653551504
15463212 79 16818551809235301805
15927050 60 17547578531697651836
1813 80 18186520986301278033
19591789 44 17690570005962943895
19611394 137 17970361523145544986
19930381 70 18411698798669055312
20600515 1 17675926486491506786
20642791 178 18263933309477963229
20739085 24 18269855154366627075
20775438 99 17400316146227313613
21421861 104 18194992775276168041
22113638 7 18267296707020465284
23419403 2 17678712713575772271
23557571 272 18265336109820621270
23559900 14 18195522584924374822
23845131 108 16897374105919397265
25019877 29 17632289142772091294
3187 122 18263350413421872640
350125 39 18270400465390549410
469060 322 18410300172808029456
484985 159 15148786782569797162
508706 21 17691114947303154942
5265222 85 17181389512604174292
6287921 2 18197511635965848990
7399639 24 18199453395097326418
81228 2 18046924675220366979
9709674 26 17839742560884976719
9925002 15 17625802126398263975

> <PUBCHEM_SHAPE_MULTIPOLES>
525.92
7.68
5.55
1.27
3.06
3.24
-0.28
-4.38
-2.85
-2.95
1.52
-0.93
0.57
-0.33

> <PUBCHEM_SHAPE_SELFOVERLAP>
1188.635

> <PUBCHEM_SHAPE_VOLUME>
279.9

> <PUBCHEM_COORDINATE_TYPE>
2
5
10

$$$$
