49830308
  -OEChem-10062121543D

 53 56  0     0  0  0  0  0  0999 V2000
    3.6980   -4.7855    0.6219 Cl  0  0  0  0  0  0  0  0  0  0  0  0
   -5.9918   -0.4470    1.4206 O   0  0  0  0  0  0  0  0  0  0  0  0
   -0.1920   -2.1498   -0.7969 N   0  0  0  0  0  0  0  0  0  0  0  0
   -4.5141   -0.2452   -0.3598 N   0  0  0  0  0  0  0  0  0  0  0  0
    1.6608   -0.9129   -0.1477 N   0  0  0  0  0  0  0  0  0  0  0  0
    1.6899   -3.3223   -0.1135 N   0  0  0  0  0  0  0  0  0  0  0  0
   -6.7832    2.1599    1.0383 N   0  0  0  0  0  0  0  0  0  0  0  0
    4.8689    1.8946    1.4102 N   0  0  0  0  0  0  0  0  0  0  0  0
    4.2726    3.8284    0.1030 N   0  0  0  0  0  0  0  0  0  0  0  0
   -0.9600   -0.9533   -1.0811 C   0  0  0  0  0  0  0  0  0  0  0  0
   -3.7436   -1.4412   -0.1053 C   0  0  0  0  0  0  0  0  0  0  0  0
   -2.0993   -1.2720   -2.0523 C   0  0  0  0  0  0  0  0  0  0  0  0
   -1.4706   -0.3403    0.2246 C   0  0  0  0  0  0  0  0  0  0  0  0
   -3.2398   -2.0660   -1.4089 C   0  0  0  0  0  0  0  0  0  0  0  0
   -2.5957   -1.1564    0.8656 C   0  0  0  0  0  0  0  0  0  0  0  0
   -5.5820    0.1549    0.4305 C   0  0  0  0  0  0  0  0  0  0  0  0
    1.1092   -2.1273   -0.3335 C   0  0  0  0  0  0  0  0  0  0  0  0
   -6.2233    1.4259   -0.0875 C   0  0  0  0  0  0  0  0  0  0  0  0
    2.9308   -0.9280    0.3074 C   0  0  0  0  0  0  0  0  0  0  0  0
    3.5367    0.3565    0.5100 C   0  0  0  0  0  0  0  0  0  0  0  0
    2.9590   -3.2636    0.3406 C   0  0  0  0  0  0  0  0  0  0  0  0
    3.6368   -2.0839    0.5717 C   0  0  0  0  0  0  0  0  0  0  0  0
    3.3093    1.5885   -0.1587 C   0  0  0  0  0  0  0  0  0  0  0  0
    4.5015    0.5754    1.4697 C   0  0  0  0  0  0  0  0  0  0  0  0
    4.1552    2.5264    0.4260 C   0  0  0  0  0  0  0  0  0  0  0  0
   -7.4232    3.3903    0.5920 C   0  0  0  0  0  0  0  0  0  0  0  0
    2.4792    2.0287   -1.2024 C   0  0  0  0  0  0  0  0  0  0  0  0
    2.5604    3.3686   -1.5774 C   0  0  0  0  0  0  0  0  0  0  0  0
    3.4505    4.1969   -0.9070 C   0  0  0  0  0  0  0  0  0  0  0  0
   -0.3136   -0.2245   -1.5870 H   0  0  0  0  0  0  0  0  0  0  0  0
   -4.4197   -2.1603    0.3741 H   0  0  0  0  0  0  0  0  0  0  0  0
   -2.5016   -0.3298   -2.4452 H   0  0  0  0  0  0  0  0  0  0  0  0
   -1.7173   -1.8290   -2.9169 H   0  0  0  0  0  0  0  0  0  0  0  0
   -0.6631   -0.2147    0.9546 H   0  0  0  0  0  0  0  0  0  0  0  0
   -1.8472    0.6688    0.0123 H   0  0  0  0  0  0  0  0  0  0  0  0
   -4.0631   -2.1601   -2.1277 H   0  0  0  0  0  0  0  0  0  0  0  0
   -2.8910   -3.0852   -1.2009 H   0  0  0  0  0  0  0  0  0  0  0  0
   -2.1849   -2.1098    1.2214 H   0  0  0  0  0  0  0  0  0  0  0  0
   -2.9648   -0.6260    1.7519 H   0  0  0  0  0  0  0  0  0  0  0  0
   -0.6260   -3.0596   -0.9000 H   0  0  0  0  0  0  0  0  0  0  0  0
   -4.2268    0.3490   -1.1317 H   0  0  0  0  0  0  0  0  0  0  0  0
   -7.0050    1.1339   -0.7979 H   0  0  0  0  0  0  0  0  0  0  0  0
   -5.4795    2.0372   -0.6112 H   0  0  0  0  0  0  0  0  0  0  0  0
   -6.0393    2.3939    1.6957 H   0  0  0  0  0  0  0  0  0  0  0  0
    4.6614   -2.0907    0.9240 H   0  0  0  0  0  0  0  0  0  0  0  0
    4.9626   -0.0730    2.2027 H   0  0  0  0  0  0  0  0  0  0  0  0
    5.5590    2.3353    2.0025 H   0  0  0  0  0  0  0  0  0  0  0  0
   -7.8423    3.9167    1.4551 H   0  0  0  0  0  0  0  0  0  0  0  0
   -6.7087    4.0605    0.1030 H   0  0  0  0  0  0  0  0  0  0  0  0
   -8.2474    3.1801   -0.0974 H   0  0  0  0  0  0  0  0  0  0  0  0
    1.7949    1.3600   -1.7137 H   0  0  0  0  0  0  0  0  0  0  0  0
    1.9401    3.7556   -2.3787 H   0  0  0  0  0  0  0  0  0  0  0  0
    3.5268    5.2444   -1.1866 H   0  0  0  0  0  0  0  0  0  0  0  0
  1 21  1  0  0  0  0
  2 16  2  0  0  0  0
  3 10  1  0  0  0  0
  3 17  1  0  0  0  0
  3 40  1  0  0  0  0
  4 11  1  0  0  0  0
  4 16  1  0  0  0  0
  4 41  1  0  0  0  0
  5 17  2  0  0  0  0
  5 19  1  0  0  0  0
  6 17  1  0  0  0  0
  6 21  2  0  0  0  0
  7 18  1  0  0  0  0
  7 26  1  0  0  0  0
  7 44  1  0  0  0  0
  8 24  1  0  0  0  0
  8 25  1  0  0  0  0
  8 47  1  0  0  0  0
  9 25  1  0  0  0  0
  9 29  2  0  0  0  0
 10 12  1  0  0  0  0
 10 13  1  0  0  0  0
 10 30  1  0  0  0  0
 11 14  1  0  0  0  0
 11 15  1  0  0  0  0
 11 31  1  0  0  0  0
 12 14  1  0  0  0  0
 12 32  1  0  0  0  0
 12 33  1  0  0  0  0
 13 15  1  0  0  0  0
 13 34  1  0  0  0  0
 13 35  1  0  0  0  0
 14 36  1  0  0  0  0
 14 37  1  0  0  0  0
 15 38  1  0  0  0  0
 15 39  1  0  0  0  0
 16 18  1  0  0  0  0
 18 42  1  0  0  0  0
 18 43  1  0  0  0  0
 19 20  1  0  0  0  0
 19 22  2  0  0  0  0
 20 23  1  0  0  0  0
 20 24  2  0  0  0  0
 21 22  1  0  0  0  0
 22 45  1  0  0  0  0
 23 25  2  0  0  0  0
 23 27  1  0  0  0  0
 24 46  1  0  0  0  0
 26 48  1  0  0  0  0
 26 49  1  0  0  0  0
 26 50  1  0  0  0  0
 27 28  2  0  0  0  0
 27 51  1  0  0  0  0
 28 29  1  0  0  0  0
 28 52  1  0  0  0  0
 29 53  1  0  0  0  0
M  END
> <PUBCHEM_COMPOUND_CID>
49830308

> <PUBCHEM_CONFORMER_RMSD>
1

> <PUBCHEM_CONFORMER_DIVERSEORDER>
1
58
11
29
13
26
42
31
59
50
52
14
6
39
43
55
49
38
20
56
16
60
15
36
48
35
12
61
10
47
22
24
4
53
21
19
27
18
40
34
45
57
23
25
5
54
30
41
9
3
2
46
62
37
44
32
17
33
51
28
8
7

> <PUBCHEM_MMFF94_PARTIAL_CHARGES>
33
1 -0.18
10 0.37
11 0.3
16 0.57
17 0.72
18 0.33
19 0.36
2 -0.57
20 -0.05
21 0.49
22 -0.15
24 -0.3
25 0.11
26 0.27
27 -0.15
28 -0.15
29 0.16
3 -0.87
4 -0.73
40 0.4
41 0.37
44 0.36
45 0.15
46 0.15
47 0.27
5 -0.62
51 0.15
52 0.15
53 0.15
6 -0.62
7 -0.9
8 0.03
9 -0.57

> <PUBCHEM_EFFECTIVE_ROTOR_COUNT>
8.2

> <PUBCHEM_PHARMACOPHORE_FEATURES>
14
1 2 acceptor
1 3 donor
1 4 donor
1 6 acceptor
1 7 cation
1 7 donor
1 8 cation
1 8 donor
1 9 acceptor
4 3 5 6 17 cation
5 8 20 23 24 25 rings
6 10 11 12 13 14 15 rings
6 5 6 17 19 21 22 rings
6 9 23 25 27 28 29 rings

> <PUBCHEM_HEAVY_ATOM_COUNT>
29

> <PUBCHEM_ATOM_DEF_STEREO_COUNT>
0

> <PUBCHEM_ATOM_UDEF_STEREO_COUNT>
0

> <PUBCHEM_BOND_DEF_STEREO_COUNT>
0

> <PUBCHEM_BOND_UDEF_STEREO_COUNT>
0

> <PUBCHEM_ISOTOPIC_ATOM_COUNT>
0

> <PUBCHEM_COMPONENT_COUNT>
1

> <PUBCHEM_CACTVS_TAUTO_COUNT>
32

> <PUBCHEM_CONFORMER_ID>
02F859A400000001

> <PUBCHEM_MMFF94_ENERGY>
57.2663

> <PUBCHEM_FEATURE_SELFOVERLAP>
71.16

> <PUBCHEM_SHAPE_FINGERPRINT>
10763959 59 18199757942448018471
10917259 69 18048603905083174772
10937287 8 18049161369771007774
12061779 8 16986906526162459609
12107183 9 18196931072547316843
12422481 6 18040711468346085357
12633257 1 17095796745437663418
13785724 45 18124318199056523246
13878862 14 18267847416369938229
14114211 80 17899709143627466484
14251764 75 17974013048152542476
14790565 3 18123190361892401253
15348495 7 18187655665749268355
15439362 3 18268153231511884148
16992787 43 18409736141446547686
17810953 82 18411139147076788228
20511986 3 17845924216839584809
20715895 44 18412544284635762873
21315764 268 18190743034275789117
21792938 324 17977080389694208536
22122407 14 18340218392928675585
23522609 53 11603963566985382495
23559900 14 18335704905664785611
245318 6 18262528124790497541
24771293 8 18199444681315681890
373842 8 18338235939094292937
397830 11 18187096074665832099
4144715 1 18260561026217526947
439807 62 8934994872735131569
4408954 64 17027946737976535384
4409770 3 17040630592809879238
474 4 18265321992822281886
5104073 3 18333731304363720659
57724786 102 18411696561239085423
6058803 2 18200010950271650791
633830 44 18270400632646250814

> <PUBCHEM_SHAPE_MULTIPOLES>
557.94
15.65
5.82
1.39
31.95
1.09
0.31
12.54
-6.37
-7.71
0.49
0.25
0.24
-2.45

> <PUBCHEM_SHAPE_SELFOVERLAP>
1193.39

> <PUBCHEM_SHAPE_VOLUME>
309.3

> <PUBCHEM_COORDINATE_TYPE>
2
5
10

$$$$
