24905314
  -OEChem-10052115163D

 35 38  0     0  0  0  0  0  0999 V2000
    5.5406    0.7509    0.3233 F   0  0  0  0  0  0  0  0  0  0  0  0
    4.1758    0.9489   -2.0587 O   0  0  0  0  0  0  0  0  0  0  0  0
   -4.1271    3.0409   -0.4864 N   0  0  0  0  0  0  0  0  0  0  0  0
   -2.0260    0.6018    0.3521 N   0  0  0  0  0  0  0  0  0  0  0  0
   -0.7905    1.1311    0.4236 N   0  0  0  0  0  0  0  0  0  0  0  0
   -3.1058   -1.5410    0.0287 N   0  0  0  0  0  0  0  0  0  0  0  0
   -1.4797   -3.3355   -0.2641 N   0  0  0  0  0  0  0  0  0  0  0  0
    0.8770   -2.9597   -0.2239 N   0  0  0  0  0  0  0  0  0  0  0  0
   -3.2252    1.4096    0.4879 C   0  0  0  0  0  0  0  0  0  0  0  0
   -2.9419    2.9157    0.3969 C   0  0  0  0  0  0  0  0  0  0  0  0
   -3.9614    1.6107   -0.8442 C   0  0  0  0  0  0  0  0  0  0  0  0
   -2.0307   -0.7453    0.1429 C   0  0  0  0  0  0  0  0  0  0  0  0
   -0.7019   -1.1254    0.0723 C   0  0  0  0  0  0  0  0  0  0  0  0
    0.0114    0.0743    0.2525 C   0  0  0  0  0  0  0  0  0  0  0  0
    1.4415    0.2509    0.2688 C   0  0  0  0  0  0  0  0  0  0  0  0
   -0.4407   -2.4751   -0.1395 C   0  0  0  0  0  0  0  0  0  0  0  0
    2.1252    0.5194   -0.9169 C   0  0  0  0  0  0  0  0  0  0  0  0
    2.1422    0.1515    1.4708 C   0  0  0  0  0  0  0  0  0  0  0  0
   -2.7298   -2.8223   -0.1736 C   0  0  0  0  0  0  0  0  0  0  0  0
    3.5097    0.6888   -0.9007 C   0  0  0  0  0  0  0  0  0  0  0  0
    3.5267    0.3205    1.4870 C   0  0  0  0  0  0  0  0  0  0  0  0
    4.2105    0.5893    0.3013 C   0  0  0  0  0  0  0  0  0  0  0  0
   -3.8644    1.1210    1.3310 H   0  0  0  0  0  0  0  0  0  0  0  0
   -3.0233    3.4644    1.3405 H   0  0  0  0  0  0  0  0  0  0  0  0
   -2.0249    3.2410   -0.1081 H   0  0  0  0  0  0  0  0  0  0  0  0
   -3.3650    1.4642   -1.7534 H   0  0  0  0  0  0  0  0  0  0  0  0
   -4.9001    1.0590   -0.9527 H   0  0  0  0  0  0  0  0  0  0  0  0
   -4.9889    3.2242    0.0289 H   0  0  0  0  0  0  0  0  0  0  0  0
    1.5814    0.5964   -1.8562 H   0  0  0  0  0  0  0  0  0  0  0  0
    1.6243   -0.0582    2.4037 H   0  0  0  0  0  0  0  0  0  0  0  0
   -3.5379   -3.5384   -0.2778 H   0  0  0  0  0  0  0  0  0  0  0  0
    1.6709   -2.3428   -0.1347 H   0  0  0  0  0  0  0  0  0  0  0  0
    1.0224   -3.9484   -0.3784 H   0  0  0  0  0  0  0  0  0  0  0  0
    4.0726    0.2428    2.4225 H   0  0  0  0  0  0  0  0  0  0  0  0
    3.5360    0.9827   -2.7905 H   0  0  0  0  0  0  0  0  0  0  0  0
  1 22  1  0  0  0  0
  2 20  1  0  0  0  0
  2 35  1  0  0  0  0
  3 10  1  0  0  0  0
  3 11  1  0  0  0  0
  3 28  1  0  0  0  0
  4  5  1  0  0  0  0
  4  9  1  0  0  0  0
  4 12  1  0  0  0  0
  5 14  2  0  0  0  0
  6 12  2  0  0  0  0
  6 19  1  0  0  0  0
  7 16  1  0  0  0  0
  7 19  2  0  0  0  0
  8 16  1  0  0  0  0
  8 32  1  0  0  0  0
  8 33  1  0  0  0  0
  9 10  1  0  0  0  0
  9 11  1  0  0  0  0
  9 23  1  0  0  0  0
 10 24  1  0  0  0  0
 10 25  1  0  0  0  0
 11 26  1  0  0  0  0
 11 27  1  0  0  0  0
 12 13  1  0  0  0  0
 13 14  1  0  0  0  0
 13 16  2  0  0  0  0
 14 15  1  0  0  0  0
 15 17  2  0  0  0  0
 15 18  1  0  0  0  0
 17 20  1  0  0  0  0
 17 29  1  0  0  0  0
 18 21  2  0  0  0  0
 18 30  1  0  0  0  0
 19 31  1  0  0  0  0
 20 22  2  0  0  0  0
 21 22  1  0  0  0  0
 21 34  1  0  0  0  0
M  END
> <PUBCHEM_COMPOUND_CID>
24905314

> <PUBCHEM_CONFORMER_RMSD>
0.6

> <PUBCHEM_CONFORMER_DIVERSEORDER>
1
5
8
10
3
4
9
7
6
2

> <PUBCHEM_MMFF94_PARTIAL_CHARGES>
29
1 -0.19
10 0.21
11 0.21
12 0.11
14 0.23
15 0.05
16 0.41
17 -0.15
18 -0.15
19 0.47
2 -0.53
20 0.08
21 -0.15
22 0.19
28 0.36
29 0.15
3 -0.78
30 0.15
31 0.15
32 0.4
33 0.4
34 0.15
35 0.45
4 0.48
5 -0.71
6 -0.57
7 -0.62
8 -0.9
9 0.09

> <PUBCHEM_EFFECTIVE_ROTOR_COUNT>
2.8

> <PUBCHEM_PHARMACOPHORE_FEATURES>
12
1 2 donor
1 3 cation
1 3 donor
1 5 acceptor
1 8 cation
1 8 donor
3 4 6 12 cation
3 6 7 19 cation
4 3 9 10 11 rings
5 4 5 12 13 14 rings
6 15 17 18 20 21 22 rings
6 6 7 12 13 16 19 rings

> <PUBCHEM_HEAVY_ATOM_COUNT>
22

> <PUBCHEM_ATOM_DEF_STEREO_COUNT>
0

> <PUBCHEM_ATOM_UDEF_STEREO_COUNT>
0

> <PUBCHEM_BOND_DEF_STEREO_COUNT>
0

> <PUBCHEM_BOND_UDEF_STEREO_COUNT>
0

> <PUBCHEM_ISOTOPIC_ATOM_COUNT>
0

> <PUBCHEM_COMPONENT_COUNT>
1

> <PUBCHEM_CACTVS_TAUTO_COUNT>
15

> <PUBCHEM_CONFORMER_ID>
017C066200000001

> <PUBCHEM_MMFF94_ENERGY>
59.5612

> <PUBCHEM_FEATURE_SELFOVERLAP>
61.177

> <PUBCHEM_SHAPE_FINGERPRINT>
10319926 262 18199444706884415528
10411042 1 17834671978398699259
10498660 4 18412546500501426744
105312 117 18336825299423139373
11582403 64 16482417588350697858
11725454 13 16914212310095550992
11796584 16 18343025455047551062
12107183 9 18191012410265973154
12173636 292 18411133628186043021
12236239 1 17822567317612174298
12500047 106 18341608218195951352
12553582 1 18122345954347964387
12788726 201 18116718615034471979
13140716 1 18051415368682126827
13583140 156 17846490465934446658
14508225 48 17982717873620214375
15042514 8 18193843862876751859
15842332 3 17895184541541069418
16752209 62 18339071700399655603
167882 2 18121779422228001955
16945 1 18340484590300817771
16988056 13 16605463646700275285
1741750 31 18411700946163369753
17818456 19 18265039237934391232
18186145 218 17917720088624285912
20510252 161 18200314449734023273
20739085 24 14745518704971129001
21065201 7 18343022233389237490
21285901 2 17915199011699740879
21524375 3 18188206499040687129
22149856 69 18049743836900874505
22182313 1 18268166296254025455
2255824 54 17763462812489696515
22907989 373 18264765635505997301
23366157 5 17900260801995964291
23526113 38 17418372480686443400
23557571 272 18201158875192136896
23559900 14 18131077009381269044
23598291 2 17894912979396285644
2748010 2 18267880393234565371
3091708 16 9414204933377814979
312425 83 17903115332134958108
458136 41 18053113830647427081
469060 322 18338534009998072913
474 4 18120652423315881817
559249 180 18408882911337339866
57527295 17 16844178843939429620
6049 1 17702671097715003024
6327066 14 18261948549124577645
7364860 26 17765989502857753579
7615 1 17822561819917060616
77492 1 17822285842593246146
7808743 9 18409732880643197296
81228 2 18126005107733526747
84936 182 17769085753303296849
9862522 239 17823405020628812389
9981440 41 18337388219738869369

> <PUBCHEM_SHAPE_MULTIPOLES>
409.72
8.57
3.42
1.14
6.1
1.91
0.15
-5.88
0.98
-4.94
0.4
1.3
-0.38
-0.17

> <PUBCHEM_SHAPE_SELFOVERLAP>
917.299

> <PUBCHEM_SHAPE_VOLUME>
218.4

> <PUBCHEM_COORDINATE_TYPE>
2
5
10

$$$$
