49830721
  -OEChem-10052120433D

 29 30  0     0  0  0  0  0  0999 V2000
    3.8820   -0.1154    0.3001 O   0  0  0  0  0  0  0  0  0  0  0  0
    2.2247    0.5237   -1.1716 O   0  0  0  0  0  0  0  0  0  0  0  0
   -0.5069   -1.4207    0.3223 N   0  0  0  0  0  0  0  0  0  0  0  0
   -0.5215    0.7857    0.5897 N   0  0  0  0  0  0  0  0  0  0  0  0
   -2.9986    2.4850    0.1566 N   0  0  0  0  0  0  0  0  0  0  0  0
   -1.7893   -1.0261    0.0386 C   0  0  0  0  0  0  0  0  0  0  0  0
   -1.7728    0.3550    0.2127 C   0  0  0  0  0  0  0  0  0  0  0  0
    0.2116   -0.3036    0.6457 C   0  0  0  0  0  0  0  0  0  0  0  0
    1.6389   -0.3883    1.0064 C   0  0  0  0  0  0  0  0  0  0  0  0
   -2.9529    1.0865   -0.0031 C   0  0  0  0  0  0  0  0  0  0  0  0
   -2.9274   -1.7370   -0.3435 C   0  0  0  0  0  0  0  0  0  0  0  0
   -4.1078    0.3938   -0.3874 C   0  0  0  0  0  0  0  0  0  0  0  0
   -4.0930   -0.9930   -0.5541 C   0  0  0  0  0  0  0  0  0  0  0  0
    2.5866    0.0658   -0.0961 C   0  0  0  0  0  0  0  0  0  0  0  0
    4.8776    0.2752   -0.6510 C   0  0  0  0  0  0  0  0  0  0  0  0
    6.2488    0.0131   -0.0653 C   0  0  0  0  0  0  0  0  0  0  0  0
   -0.1588   -2.3700    0.2952 H   0  0  0  0  0  0  0  0  0  0  0  0
    1.9039   -1.4183    1.2729 H   0  0  0  0  0  0  0  0  0  0  0  0
    1.8218    0.2467    1.8811 H   0  0  0  0  0  0  0  0  0  0  0  0
   -2.9135   -2.8133   -0.4722 H   0  0  0  0  0  0  0  0  0  0  0  0
   -5.0364    0.9336   -0.5612 H   0  0  0  0  0  0  0  0  0  0  0  0
   -5.0045   -1.5049   -0.8530 H   0  0  0  0  0  0  0  0  0  0  0  0
   -2.1507    2.9650    0.4321 H   0  0  0  0  0  0  0  0  0  0  0  0
   -3.6967    3.0071   -0.3583 H   0  0  0  0  0  0  0  0  0  0  0  0
    4.7690    1.3421   -0.8760 H   0  0  0  0  0  0  0  0  0  0  0  0
    4.7511   -0.3056   -1.5715 H   0  0  0  0  0  0  0  0  0  0  0  0
    6.3836    0.5733    0.8659 H   0  0  0  0  0  0  0  0  0  0  0  0
    6.3660   -1.0471    0.1819 H   0  0  0  0  0  0  0  0  0  0  0  0
    7.0357    0.3011   -0.7679 H   0  0  0  0  0  0  0  0  0  0  0  0
  1 14  1  0  0  0  0
  1 15  1  0  0  0  0
  2 14  2  0  0  0  0
  3  6  1  0  0  0  0
  3  8  1  0  0  0  0
  3 17  1  0  0  0  0
  4  7  1  0  0  0  0
  4  8  2  0  0  0  0
  5 10  1  0  0  0  0
  5 23  1  0  0  0  0
  5 24  1  0  0  0  0
  6  7  1  0  0  0  0
  6 11  2  0  0  0  0
  7 10  2  0  0  0  0
  8  9  1  0  0  0  0
  9 14  1  0  0  0  0
  9 18  1  0  0  0  0
  9 19  1  0  0  0  0
 10 12  1  0  0  0  0
 11 13  1  0  0  0  0
 11 20  1  0  0  0  0
 12 13  2  0  0  0  0
 12 21  1  0  0  0  0
 13 22  1  0  0  0  0
 15 16  1  0  0  0  0
 15 25  1  0  0  0  0
 15 26  1  0  0  0  0
 16 27  1  0  0  0  0
 16 28  1  0  0  0  0
 16 29  1  0  0  0  0
M  END
> <PUBCHEM_COMPOUND_CID>
49830721

> <PUBCHEM_CONFORMER_RMSD>
0.6

> <PUBCHEM_CONFORMER_DIVERSEORDER>
1
27
63
11
56
28
14
38
19
61
13
29
10
3
54
6
37
62
26
7
12
34
18
5
15
44
33
39
22
21
40
52
16
8
51
43
9
17
59
23
45
48
58
20
31
60
50
57
55
4
36
46
49
2
53
24
47
25
30
35
41
32
42

> <PUBCHEM_MMFF94_PARTIAL_CHARGES>
21
1 -0.43
10 0.1
11 -0.15
12 -0.15
13 -0.15
14 0.66
15 0.28
17 0.27
2 -0.57
20 0.15
21 0.15
22 0.15
23 0.4
24 0.4
3 0.03
4 -0.57
5 -0.9
6 -0.15
7 0.23
8 0.01
9 0.24

> <PUBCHEM_EFFECTIVE_ROTOR_COUNT>
4

> <PUBCHEM_PHARMACOPHORE_FEATURES>
7
1 2 acceptor
1 3 donor
1 5 cation
1 5 donor
3 3 4 8 cation
5 3 4 6 7 8 rings
6 6 7 10 11 12 13 rings

> <PUBCHEM_HEAVY_ATOM_COUNT>
16

> <PUBCHEM_ATOM_DEF_STEREO_COUNT>
0

> <PUBCHEM_ATOM_UDEF_STEREO_COUNT>
0

> <PUBCHEM_BOND_DEF_STEREO_COUNT>
0

> <PUBCHEM_BOND_UDEF_STEREO_COUNT>
0

> <PUBCHEM_ISOTOPIC_ATOM_COUNT>
0

> <PUBCHEM_COMPONENT_COUNT>
1

> <PUBCHEM_CACTVS_TAUTO_COUNT>
5

> <PUBCHEM_CONFORMER_ID>
02F85B4100000001

> <PUBCHEM_MMFF94_ENERGY>
27.4914

> <PUBCHEM_FEATURE_SELFOVERLAP>
35.627

> <PUBCHEM_SHAPE_FINGERPRINT>
10680689 15 18412268354097581194
11315181 36 18186804712415721584
11401426 45 18187363246915870324
12119455 92 14707203331502816810
12186901 62 18272368659590877127
12236239 1 17967529069316716194
12251169 10 9439406839055170603
12390115 104 17986403196173803265
12507557 5 16298392387054715709
13288520 33 18272652367565687206
16945 1 18341598327313673003
17834072 33 18409168848700239820
17870717 6 18130519577669773006
1813 80 13829864551348957416
19433438 38 17846501430579856206
19489759 90 18413951685410016760
200 152 14836405817812306818
20279233 1 17346605183335168518
20300324 65 18411138056239146741
20325693 3 18342459240248629895
20645476 183 18113613521325736443
20645477 56 18341896251656587105
20645477 70 16916515753165845502
20871999 31 18343580733292335905
21267235 1 18339081601095825259
21426921 1 18413107269022392053
22094290 60 18342737433807016371
2297311 6 18272656770186571471
23175994 123 16630528452941950264
23402539 116 18411978061927519204
23402655 69 18187077317493779364
23557571 272 18131356297397121808
23559900 14 18272362118392998672
26918003 58 14620797123607489167
2748010 2 17980742047088265411
34797466 226 17845668065961015060
4214541 1 18412545397000468368
474 4 17240769501360055588
559249 180 18338513033140694474
573450 72 18335972095906707058

> <PUBCHEM_SHAPE_MULTIPOLES>
302.59
10.86
1.52
0.85
15.89
0.41
-0.02
0.58
-2.36
-2.23
0.01
0.28
-0.02
-0.43

> <PUBCHEM_SHAPE_SELFOVERLAP>
644.105

> <PUBCHEM_SHAPE_VOLUME>
171.4

> <PUBCHEM_COORDINATE_TYPE>
2
5
10

$$$$
