11785878
  -OEChem-10062122003D

 70 76  0     0  0  0  0  0  0999 V2000
   -2.6354   -2.9312   -0.0075 O   0  0  0  0  0  0  0  0  0  0  0  0
    7.3846   -0.2383   -0.0133 N   0  0  0  0  0  0  0  0  0  0  0  0
   10.0653   -1.2142    0.1321 N   0  0  0  0  0  0  0  0  0  0  0  0
   -2.7383    1.1003   -0.0599 N   0  0  0  0  0  0  0  0  0  0  0  0
   -3.9566   -0.9938    0.0095 N   0  0  0  0  0  0  0  0  0  0  0  0
   -4.9508    1.2445    0.0401 N   0  0  0  0  0  0  0  0  0  0  0  0
   -0.3595    1.2011   -0.0732 N   0  0  0  0  0  0  0  0  0  0  0  0
    1.9860    1.2467   -0.0717 N   0  0  0  0  0  0  0  0  0  0  0  0
    0.9170   -0.8396    0.0008 N   0  0  0  0  0  0  0  0  0  0  0  0
    7.9176   -1.0835   -1.0861 C   0  0  0  0  0  0  0  0  0  0  0  0
    8.0509   -0.3687    1.2887 C   0  0  0  0  0  0  0  0  0  0  0  0
    9.4401   -0.9496   -1.1695 C   0  0  0  0  0  0  0  0  0  0  0  0
    9.5688   -0.2567    1.1283 C   0  0  0  0  0  0  0  0  0  0  0  0
    6.0353    0.1324   -0.0272 C   0  0  0  0  0  0  0  0  0  0  0  0
   11.5218   -1.1363    0.0272 C   0  0  0  0  0  0  0  0  0  0  0  0
   -3.9342    0.4059   -0.0205 C   0  0  0  0  0  0  0  0  0  0  0  0
   -1.4877    0.4632   -0.0486 C   0  0  0  0  0  0  0  0  0  0  0  0
   -3.0269    2.4519   -0.0879 C   0  0  0  0  0  0  0  0  0  0  0  0
    5.0858   -0.7124   -0.6019 C   0  0  0  0  0  0  0  0  0  0  0  0
    5.6401    1.3472    0.5329 C   0  0  0  0  0  0  0  0  0  0  0  0
   -5.2301   -1.6558    0.0539 C   0  0  0  0  0  0  0  0  0  0  0  0
   -1.4910   -0.9175    0.0015 C   0  0  0  0  0  0  0  0  0  0  0  0
   -2.7440   -1.7061    0.0177 C   0  0  0  0  0  0  0  0  0  0  0  0
   -4.4172    2.5039   -0.0181 C   0  0  0  0  0  0  0  0  0  0  0  0
    3.3428    0.8732   -0.0564 C   0  0  0  0  0  0  0  0  0  0  0  0
    3.7409   -0.3423   -0.6165 C   0  0  0  0  0  0  0  0  0  0  0  0
    4.2952    1.7171    0.5184 C   0  0  0  0  0  0  0  0  0  0  0  0
   -5.8810   -2.0046   -1.1318 C   0  0  0  0  0  0  0  0  0  0  0  0
   -5.8234   -1.9533    1.2828 C   0  0  0  0  0  0  0  0  0  0  0  0
   -2.2481    3.6163   -0.1563 C   0  0  0  0  0  0  0  0  0  0  0  0
    0.7888    0.4988   -0.0474 C   0  0  0  0  0  0  0  0  0  0  0  0
   -0.2458   -1.5239    0.0239 C   0  0  0  0  0  0  0  0  0  0  0  0
   -5.0732    3.7473   -0.0130 C   0  0  0  0  0  0  0  0  0  0  0  0
   -7.1183   -2.6471   -1.0888 C   0  0  0  0  0  0  0  0  0  0  0  0
   -7.0607   -2.5959    1.3260 C   0  0  0  0  0  0  0  0  0  0  0  0
   -2.9158    4.8463   -0.1531 C   0  0  0  0  0  0  0  0  0  0  0  0
   -4.3056    4.9132   -0.0820 C   0  0  0  0  0  0  0  0  0  0  0  0
   -5.2747   -1.7012   -2.4637 C   0  0  0  0  0  0  0  0  0  0  0  0
   -5.1545   -1.5947    2.5703 C   0  0  0  0  0  0  0  0  0  0  0  0
   -7.7081   -2.9427    0.1401 C   0  0  0  0  0  0  0  0  0  0  0  0
    7.4979   -0.7902   -2.0566 H   0  0  0  0  0  0  0  0  0  0  0  0
    7.6510   -2.1323   -0.9030 H   0  0  0  0  0  0  0  0  0  0  0  0
    7.7886   -1.3381    1.7318 H   0  0  0  0  0  0  0  0  0  0  0  0
    7.7251    0.4059    1.9922 H   0  0  0  0  0  0  0  0  0  0  0  0
    9.7007    0.0558   -1.5271 H   0  0  0  0  0  0  0  0  0  0  0  0
    9.8069   -1.6658   -1.9148 H   0  0  0  0  0  0  0  0  0  0  0  0
   10.0317   -0.4559    2.1025 H   0  0  0  0  0  0  0  0  0  0  0  0
    9.8331    0.7710    0.8446 H   0  0  0  0  0  0  0  0  0  0  0  0
   11.8953   -1.8758   -0.6898 H   0  0  0  0  0  0  0  0  0  0  0  0
   11.8632   -0.1444   -0.2908 H   0  0  0  0  0  0  0  0  0  0  0  0
   11.9893   -1.3695    0.9903 H   0  0  0  0  0  0  0  0  0  0  0  0
    5.3570   -1.6674   -1.0429 H   0  0  0  0  0  0  0  0  0  0  0  0
    6.3664    2.0258    0.9726 H   0  0  0  0  0  0  0  0  0  0  0  0
    3.0439   -1.0112   -1.1105 H   0  0  0  0  0  0  0  0  0  0  0  0
    4.0007    2.6676    0.9562 H   0  0  0  0  0  0  0  0  0  0  0  0
   -1.1663    3.5894   -0.2117 H   0  0  0  0  0  0  0  0  0  0  0  0
   -0.1285   -2.6020    0.0613 H   0  0  0  0  0  0  0  0  0  0  0  0
    1.8228    2.2440    0.0298 H   0  0  0  0  0  0  0  0  0  0  0  0
   -6.1558    3.8057    0.0421 H   0  0  0  0  0  0  0  0  0  0  0  0
   -7.6371   -2.9241   -2.0027 H   0  0  0  0  0  0  0  0  0  0  0  0
   -7.5350   -2.8336    2.2744 H   0  0  0  0  0  0  0  0  0  0  0  0
   -2.3379    5.7657   -0.2059 H   0  0  0  0  0  0  0  0  0  0  0  0
   -4.7992    5.8814   -0.0801 H   0  0  0  0  0  0  0  0  0  0  0  0
   -5.8865   -2.0886   -3.2859 H   0  0  0  0  0  0  0  0  0  0  0  0
   -4.2869   -2.1644   -2.5547 H   0  0  0  0  0  0  0  0  0  0  0  0
   -5.1844   -0.6199   -2.6084 H   0  0  0  0  0  0  0  0  0  0  0  0
   -5.0495   -0.5089    2.6613 H   0  0  0  0  0  0  0  0  0  0  0  0
   -4.1673   -2.0630    2.6379 H   0  0  0  0  0  0  0  0  0  0  0  0
   -5.7313   -1.9378    3.4364 H   0  0  0  0  0  0  0  0  0  0  0  0
   -8.6716   -3.4428    0.1737 H   0  0  0  0  0  0  0  0  0  0  0  0
  1 23  2  0  0  0  0
  2 10  1  0  0  0  0
  2 11  1  0  0  0  0
  2 14  1  0  0  0  0
  3 12  1  0  0  0  0
  3 13  1  0  0  0  0
  3 15  1  0  0  0  0
  4 16  1  0  0  0  0
  4 17  1  0  0  0  0
  4 18  1  0  0  0  0
  5 16  1  0  0  0  0
  5 21  1  0  0  0  0
  5 23  1  0  0  0  0
  6 16  2  0  0  0  0
  6 24  1  0  0  0  0
  7 17  2  0  0  0  0
  7 31  1  0  0  0  0
  8 25  1  0  0  0  0
  8 31  1  0  0  0  0
  8 58  1  0  0  0  0
  9 31  2  0  0  0  0
  9 32  1  0  0  0  0
 10 12  1  0  0  0  0
 10 41  1  0  0  0  0
 10 42  1  0  0  0  0
 11 13  1  0  0  0  0
 11 43  1  0  0  0  0
 11 44  1  0  0  0  0
 12 45  1  0  0  0  0
 12 46  1  0  0  0  0
 13 47  1  0  0  0  0
 13 48  1  0  0  0  0
 14 19  2  0  0  0  0
 14 20  1  0  0  0  0
 15 49  1  0  0  0  0
 15 50  1  0  0  0  0
 15 51  1  0  0  0  0
 17 22  1  0  0  0  0
 18 24  1  0  0  0  0
 18 30  2  0  0  0  0
 19 26  1  0  0  0  0
 19 52  1  0  0  0  0
 20 27  2  0  0  0  0
 20 53  1  0  0  0  0
 21 28  2  0  0  0  0
 21 29  1  0  0  0  0
 22 23  1  0  0  0  0
 22 32  2  0  0  0  0
 24 33  2  0  0  0  0
 25 26  2  0  0  0  0
 25 27  1  0  0  0  0
 26 54  1  0  0  0  0
 27 55  1  0  0  0  0
 28 34  1  0  0  0  0
 28 38  1  0  0  0  0
 29 35  2  0  0  0  0
 29 39  1  0  0  0  0
 30 36  1  0  0  0  0
 30 56  1  0  0  0  0
 32 57  1  0  0  0  0
 33 37  1  0  0  0  0
 33 59  1  0  0  0  0
 34 40  2  0  0  0  0
 34 60  1  0  0  0  0
 35 40  1  0  0  0  0
 35 61  1  0  0  0  0
 36 37  2  0  0  0  0
 36 62  1  0  0  0  0
 37 63  1  0  0  0  0
 38 64  1  0  0  0  0
 38 65  1  0  0  0  0
 38 66  1  0  0  0  0
 39 67  1  0  0  0  0
 39 68  1  0  0  0  0
 39 69  1  0  0  0  0
 40 70  1  0  0  0  0
M  END
> <PUBCHEM_COMPOUND_CID>
11785878

> <PUBCHEM_CONFORMER_RMSD>
1

> <PUBCHEM_CONFORMER_DIVERSEORDER>
1
11
7
4
3
6
2
9
8
10
5

> <PUBCHEM_MMFF94_PARTIAL_CHARGES>
53
1 -0.57
10 0.37
11 0.37
12 0.27
13 0.27
14 0.1
15 0.27
16 0.25
17 0.29
18 -0.15
19 -0.15
2 -0.84
20 -0.15
21 0.12
22 0.09
23 0.54
24 0.23
25 0.1
26 -0.15
27 -0.15
28 -0.14
29 -0.14
3 -0.81
30 -0.15
31 0.72
32 0.16
33 -0.15
34 -0.15
35 -0.15
36 -0.15
37 -0.15
38 0.14
39 0.14
4 0.33
40 -0.15
5 -0.24
52 0.15
53 0.15
54 0.15
55 0.15
56 0.15
57 0.15
58 0.4
59 0.15
6 -0.57
60 0.15
61 0.15
62 0.15
63 0.15
7 -0.62
70 0.15
8 -0.6
9 -0.62

> <PUBCHEM_EFFECTIVE_ROTOR_COUNT>
5.2

> <PUBCHEM_PHARMACOPHORE_FEATURES>
12
1 1 acceptor
1 2 cation
1 3 cation
1 8 donor
4 7 8 9 31 cation
5 4 6 16 18 24 rings
6 14 19 20 25 26 27 rings
6 18 24 30 33 36 37 rings
6 2 3 10 11 12 13 rings
6 21 28 29 34 35 40 rings
6 4 5 16 17 22 23 rings
6 7 9 17 22 31 32 rings

> <PUBCHEM_HEAVY_ATOM_COUNT>
40

> <PUBCHEM_ATOM_DEF_STEREO_COUNT>
0

> <PUBCHEM_ATOM_UDEF_STEREO_COUNT>
0

> <PUBCHEM_BOND_DEF_STEREO_COUNT>
0

> <PUBCHEM_BOND_UDEF_STEREO_COUNT>
0

> <PUBCHEM_ISOTOPIC_ATOM_COUNT>
0

> <PUBCHEM_COMPONENT_COUNT>
1

> <PUBCHEM_CACTVS_TAUTO_COUNT>
4

> <PUBCHEM_CONFORMER_ID>
00B3D69600000001

> <PUBCHEM_MMFF94_ENERGY>
157.3286

> <PUBCHEM_FEATURE_SELFOVERLAP>
61.15

> <PUBCHEM_SHAPE_FINGERPRINT>
10050765 1 18266458702660856383
100830 39 18410855417669820336
10411042 1 18266179612424359189
10533779 47 16917078737938467086
10670039 82 18334852814080133089
11411753 29 18272363200925691888
12013929 94 18335986446125977626
12082328 90 18410011010214365950
12106331 60 18335693966725389547
12522641 68 18055064364618519749
12539745 222 18273218594595116761
12645989 146 18271525419934893975
12741549 16 17418097650483290697
12788726 201 18260820528099223507
12841400 136 18334574697873706673
13782708 43 18059852895778989332
13811026 1 18344144787732587556
14118638 360 18260543399355739522
15064986 266 18336552693675233224
15183329 4 17676483939772940910
15198563 99 18409441497752039469
15276724 80 18199466752166152613
15289351 153 18335973196141495658
15328684 2 17822840976118120536
15439362 3 17835238948689143861
1577012 14 18114740431066280426
16090146 7 16950573202412629154
1754911 235 12901542460555111442
17686467 74 18187927326657473212
19611394 137 17971201558935501075
21792965 169 18041573520174758964
21927370 108 17895202129807069445
249057 25 17676499345287921476
335507 130 18272089422856903542
3383291 50 18335139842466324218
4353968 344 18343013389698089191
5028188 123 18334583409312101620
5080951 261 16558455474642346415
54728670 133 18335431119945423745
5969126 39 18412822513028401085
6698420 124 17697891271799205097
9831232 110 18200884968675588318
9896288 288 18337113371986386441

> <PUBCHEM_SHAPE_MULTIPOLES>
777.46
31.47
4.7
1.27
93.88
6.62
0.11
-21.27
1.3
-13.87
-0.17
-1.33
-0.99
0.96

> <PUBCHEM_SHAPE_SELFOVERLAP>
1738.69

> <PUBCHEM_SHAPE_VOLUME>
409.8

> <PUBCHEM_COORDINATE_TYPE>
2
5
10

$$$$
