11560568
  -OEChem-10052115143D

 50 53  0     1  0  0  0  0  0999 V2000
    0.2822    3.7497    2.2841 F   0  0  0  0  0  0  0  0  0  0  0  0
    3.9289   -1.3712    1.9046 O   0  0  0  0  0  0  0  0  0  0  0  0
    0.3416   -4.1729    1.4112 O   0  0  0  0  0  0  0  0  0  0  0  0
   -6.1281   -0.2083    0.8241 O   0  0  0  0  0  0  0  0  0  0  0  0
   -4.4058    2.9171    0.1174 O   0  0  0  0  0  0  0  0  0  0  0  0
    3.1125    1.3383   -1.7135 N   0  0  0  0  0  0  0  0  0  0  0  0
    2.2839   -3.0108    1.9363 N   0  0  0  0  0  0  0  0  0  0  0  0
   -3.6156   -0.4556   -0.5499 N   0  0  0  0  0  0  0  0  0  0  0  0
    2.2879   -0.0537   -0.1937 C   0  0  0  0  0  0  0  0  0  0  0  0
    1.9808   -1.2705    0.4912 C   0  0  0  0  0  0  0  0  0  0  0  0
    1.9124    1.2708    0.1660 C   0  0  0  0  0  0  0  0  0  0  0  0
    2.4424    2.1247   -0.8037 C   0  0  0  0  0  0  0  0  0  0  0  0
    0.9285   -2.0973    0.3462 C   0  0  0  0  0  0  0  0  0  0  0  0
    3.0245    0.0202   -1.3535 C   0  0  0  0  0  0  0  0  0  0  0  0
   -0.2193   -1.9536   -0.5521 C   0  0  0  0  0  0  0  0  0  0  0  0
    2.8739   -1.8519    1.5261 C   0  0  0  0  0  0  0  0  0  0  0  0
    1.1702    1.8269    1.2267 C   0  0  0  0  0  0  0  0  0  0  0  0
    1.1124   -3.2376    1.2775 C   0  0  0  0  0  0  0  0  0  0  0  0
    2.2666    3.5125   -0.7654 C   0  0  0  0  0  0  0  0  0  0  0  0
    3.8129    1.8183   -2.8853 C   0  0  0  0  0  0  0  0  0  0  0  0
   -1.3680   -1.2765   -0.1277 C   0  0  0  0  0  0  0  0  0  0  0  0
   -2.4610   -1.1393   -0.9836 C   0  0  0  0  0  0  0  0  0  0  0  0
   -0.1773   -2.4918   -1.8431 C   0  0  0  0  0  0  0  0  0  0  0  0
    0.9862    3.2134    1.2780 C   0  0  0  0  0  0  0  0  0  0  0  0
   -3.7335    0.1209    0.7537 C   0  0  0  0  0  0  0  0  0  0  0  0
    1.5268    4.0414    0.2962 C   0  0  0  0  0  0  0  0  0  0  0  0
   -5.1009    0.7757    0.9494 C   0  0  1  0  0  0  0  0  0  0  0  0
   -2.4117   -1.6783   -2.2693 C   0  0  0  0  0  0  0  0  0  0  0  0
   -1.2700   -2.3546   -2.6989 C   0  0  0  0  0  0  0  0  0  0  0  0
   -5.3832    1.8944   -0.0489 C   0  0  0  0  0  0  0  0  0  0  0  0
    3.4909   -0.7539   -1.9495 H   0  0  0  0  0  0  0  0  0  0  0  0
    0.7411    1.1959    1.9998 H   0  0  0  0  0  0  0  0  0  0  0  0
    2.6847    4.1626   -1.5266 H   0  0  0  0  0  0  0  0  0  0  0  0
    2.6700   -3.6282    2.6414 H   0  0  0  0  0  0  0  0  0  0  0  0
    4.6032    2.4994   -2.5597 H   0  0  0  0  0  0  0  0  0  0  0  0
    4.2508    0.9739   -3.4236 H   0  0  0  0  0  0  0  0  0  0  0  0
    3.0956    2.3349   -3.5281 H   0  0  0  0  0  0  0  0  0  0  0  0
   -1.3791   -0.8661    0.8790 H   0  0  0  0  0  0  0  0  0  0  0  0
    0.7054   -3.0217   -2.1937 H   0  0  0  0  0  0  0  0  0  0  0  0
   -2.9477    0.8666    0.9226 H   0  0  0  0  0  0  0  0  0  0  0  0
   -3.6289   -0.6672    1.5099 H   0  0  0  0  0  0  0  0  0  0  0  0
    1.3715    5.1155    0.3560 H   0  0  0  0  0  0  0  0  0  0  0  0
   -4.3874   -0.4059   -1.2047 H   0  0  0  0  0  0  0  0  0  0  0  0
   -5.1490    1.1738    1.9694 H   0  0  0  0  0  0  0  0  0  0  0  0
   -3.2564   -1.5782   -2.9462 H   0  0  0  0  0  0  0  0  0  0  0  0
   -1.2318   -2.7742   -3.6999 H   0  0  0  0  0  0  0  0  0  0  0  0
   -6.3763    2.3248    0.1214 H   0  0  0  0  0  0  0  0  0  0  0  0
   -5.3645    1.5510   -1.0875 H   0  0  0  0  0  0  0  0  0  0  0  0
   -6.1060   -0.5553   -0.0835 H   0  0  0  0  0  0  0  0  0  0  0  0
   -4.4754    3.2435    1.0308 H   0  0  0  0  0  0  0  0  0  0  0  0
  1 24  1  0  0  0  0
  2 16  2  0  0  0  0
  3 18  2  0  0  0  0
  4 27  1  0  0  0  0
  4 49  1  0  0  0  0
  5 30  1  0  0  0  0
  5 50  1  0  0  0  0
  6 12  1  0  0  0  0
  6 14  1  0  0  0  0
  6 20  1  0  0  0  0
  7 16  1  0  0  0  0
  7 18  1  0  0  0  0
  7 34  1  0  0  0  0
  8 22  1  0  0  0  0
  8 25  1  0  0  0  0
  8 43  1  0  0  0  0
  9 10  1  0  0  0  0
  9 11  1  0  0  0  0
  9 14  2  0  0  0  0
 10 13  2  0  0  0  0
 10 16  1  0  0  0  0
 11 12  2  0  0  0  0
 11 17  1  0  0  0  0
 12 19  1  0  0  0  0
 13 15  1  0  0  0  0
 13 18  1  0  0  0  0
 14 31  1  0  0  0  0
 15 21  2  0  0  0  0
 15 23  1  0  0  0  0
 17 24  2  0  0  0  0
 17 32  1  0  0  0  0
 19 26  2  0  0  0  0
 19 33  1  0  0  0  0
 20 35  1  0  0  0  0
 20 36  1  0  0  0  0
 20 37  1  0  0  0  0
 21 22  1  0  0  0  0
 21 38  1  0  0  0  0
 22 28  2  0  0  0  0
 23 29  2  0  0  0  0
 23 39  1  0  0  0  0
 24 26  1  0  0  0  0
 25 27  1  0  0  0  0
 25 40  1  0  0  0  0
 25 41  1  0  0  0  0
 26 42  1  0  0  0  0
 27 30  1  0  0  0  0
 27 44  1  0  0  0  0
 28 29  1  0  0  0  0
 28 45  1  0  0  0  0
 29 46  1  0  0  0  0
 30 47  1  0  0  0  0
 30 48  1  0  0  0  0
M  END
> <PUBCHEM_COMPOUND_CID>
11560568

> <PUBCHEM_CONFORMER_RMSD>
0.8

> <PUBCHEM_CONFORMER_DIVERSEORDER>
6
159
81
184
210
54
7
122
232
15
155
219
25
193
29
34
217
154
45
185
27
225
89
23
223
205
13
175
61
233
22
192
46
119
124
220
167
161
87
209
1
236
187
213
84
228
32
201
190
12
189
216
109
20
214
73
116
194
128
235
37
9
227
56
234
149
36
195
165
28
218
47
64
191
126
211
26
55
221
75
224
145
43
35
163
51
226
172
78
156
204
41
2
62
102
198
83
183
99
212
142
21
139
65
3
108
38
53
8
44
147
100
68
40
179
177
200
105
77
52
135
203
24
86
125
10
58
74
160
50
206
215
80
113
31
180
157
19
199
169
181
118
144
5
123
59
222
79
33
151
98
106
134
137
101
173
138
42
57
171
88
174
71
103
164
90
69
150
111
141
131
176
4
110
121
158
188
49
70
107
168
95
94
114
30
76
91
48
148
63
60
85
67
104
72
66
96
132
97
39
112
162
136
143
197
82
16
182
92
17
202
115
230
127
14
238
178
237
186
18
231
93
117
133
166
130
207
170
208
153
140
152
196
11
229
120
129
146

> <PUBCHEM_MMFF94_PARTIAL_CHARGES>
41
1 -0.19
10 0.06
12 -0.15
13 -0.01
14 -0.3
15 0.03
16 0.62
17 -0.15
18 0.62
19 -0.15
2 -0.57
20 0.26
21 -0.15
22 0.1
23 -0.15
24 0.19
25 0.37
26 -0.15
27 0.28
28 -0.15
29 -0.15
3 -0.57
30 0.28
31 0.15
32 0.15
33 0.15
34 0.37
38 0.15
39 0.15
4 -0.68
42 0.15
43 0.4
45 0.15
46 0.15
49 0.4
5 -0.68
50 0.4
6 0.05
7 -0.49
8 -0.87
9 -0.05

> <PUBCHEM_EFFECTIVE_ROTOR_COUNT>
6.2

> <PUBCHEM_PHARMACOPHORE_FEATURES>
14
1 2 acceptor
1 3 acceptor
1 4 acceptor
1 4 donor
1 5 acceptor
1 5 donor
1 6 cation
1 7 donor
1 8 cation
1 8 donor
5 6 9 11 12 14 rings
5 7 10 13 16 18 rings
6 11 12 17 19 24 26 rings
6 15 21 22 23 28 29 rings

> <PUBCHEM_HEAVY_ATOM_COUNT>
30

> <PUBCHEM_ATOM_DEF_STEREO_COUNT>
0

> <PUBCHEM_ATOM_UDEF_STEREO_COUNT>
1

> <PUBCHEM_BOND_DEF_STEREO_COUNT>
0

> <PUBCHEM_BOND_UDEF_STEREO_COUNT>
0

> <PUBCHEM_ISOTOPIC_ATOM_COUNT>
0

> <PUBCHEM_COMPONENT_COUNT>
1

> <PUBCHEM_CACTVS_TAUTO_COUNT>
3

> <PUBCHEM_CONFORMER_ID>
00B0667800000006

> <PUBCHEM_MMFF94_ENERGY>
79.0247

> <PUBCHEM_FEATURE_SELFOVERLAP>
71.142

> <PUBCHEM_SHAPE_FINGERPRINT>
10165383 225 17677907905461141902
10190108 129 17830743049875079058
11828532 37 13973969767138083771
12156800 1 17264145960480878238
12633257 1 17822285743714689795
13583140 156 18115858625960413239
13965767 371 17628331810754353475
14955137 171 18410572851729225266
151778 21 18113620114026182733
15238133 3 18335985255275045099
161222 10 16056012698829258573
161222 619 15817901760268958143
17921350 177 18272375252297605517
17980427 23 17630015352271837898
19319366 153 18335427893015871500
20465049 17 18198645361187164525
20600515 1 17489007315252262922
20739085 24 18193550060948418762
21756936 100 18191880134887426366
21860390 5 18266180522330016351
21864079 5 18129097999556179431
21927370 108 17389655290649890386
23558518 356 17764583618048517333
25223398 141 15984811688731180029
3493558 16 16038059124924371811
350125 39 17462549934842558890
46939830 39 17173503364079203044
474144 1 18337678511972507185
484985 159 15296314729747102131
5252454 2 17969503895005234286
57527295 17 18051987106470776614
57527573 199 18127684057826562264
57527585 21 16899906877733857237
5895379 119 17560511932023899214
60111433 81 17273387561992689889

> <PUBCHEM_SHAPE_MULTIPOLES>
571.69
8.52
5.43
2.41
14.3
1.68
1
5.43
-0.03
-2.23
-1.97
-1.52
-0.95
-2.93

> <PUBCHEM_SHAPE_SELFOVERLAP>
1262.921

> <PUBCHEM_SHAPE_VOLUME>
309.8

> <PUBCHEM_COORDINATE_TYPE>
2
5
10

$$$$
