49830880
  -OEChem-10062121543D

 41 44  0     0  0  0  0  0  0999 V2000
   -4.7212   -3.0280    0.6796 O   0  0  0  0  0  0  0  0  0  0  0  0
   -3.3760    1.1830   -0.4939 N   0  0  0  0  0  0  0  0  0  0  0  0
   -6.3810   -1.5346    0.0816 N   0  0  0  0  0  0  0  0  0  0  0  0
    1.5578    2.2713    0.1933 N   0  0  0  0  0  0  0  0  0  0  0  0
   -4.4725    0.3730   -0.4241 C   0  0  0  0  0  0  0  0  0  0  0  0
   -5.8362    0.7047   -0.8992 C   0  0  0  0  0  0  0  0  0  0  0  0
   -4.1006   -0.8266    0.1447 C   0  0  0  0  0  0  0  0  0  0  0  0
   -6.8306   -0.1507   -0.1048 C   0  0  0  0  0  0  0  0  0  0  0  0
   -2.2940    0.5107    0.0200 C   0  0  0  0  0  0  0  0  0  0  0  0
   -2.7144   -0.7421    0.4196 C   0  0  0  0  0  0  0  0  0  0  0  0
   -5.0589   -1.8983    0.3387 C   0  0  0  0  0  0  0  0  0  0  0  0
   -0.9822    1.1097    0.0792 C   0  0  0  0  0  0  0  0  0  0  0  0
    0.1542    0.3135   -0.0111 C   0  0  0  0  0  0  0  0  0  0  0  0
   -0.8501    2.4861    0.2266 C   0  0  0  0  0  0  0  0  0  0  0  0
    1.3898    0.9374    0.0508 C   0  0  0  0  0  0  0  0  0  0  0  0
    0.4305    3.0128    0.2778 C   0  0  0  0  0  0  0  0  0  0  0  0
    2.6079    0.1484   -0.0389 C   0  0  0  0  0  0  0  0  0  0  0  0
    3.8661    0.6421    0.0454 C   0  0  0  0  0  0  0  0  0  0  0  0
    5.1003   -0.1597   -0.0280 C   0  0  0  0  0  0  0  0  0  0  0  0
    5.0725   -1.4319   -0.5993 C   0  0  0  0  0  0  0  0  0  0  0  0
    6.2963    0.3535    0.4736 C   0  0  0  0  0  0  0  0  0  0  0  0
    6.2408   -2.1911   -0.6688 C   0  0  0  0  0  0  0  0  0  0  0  0
    7.4645   -0.4055    0.4042 C   0  0  0  0  0  0  0  0  0  0  0  0
    7.4368   -1.6778   -0.1670 C   0  0  0  0  0  0  0  0  0  0  0  0
   -5.9090    0.4620   -1.9659 H   0  0  0  0  0  0  0  0  0  0  0  0
   -6.0660    1.7681   -0.7771 H   0  0  0  0  0  0  0  0  0  0  0  0
   -6.9675    0.2653    0.9005 H   0  0  0  0  0  0  0  0  0  0  0  0
   -7.8070   -0.1739   -0.5985 H   0  0  0  0  0  0  0  0  0  0  0  0
   -3.3670    2.1164   -0.8827 H   0  0  0  0  0  0  0  0  0  0  0  0
   -2.0986   -1.5116    0.8659 H   0  0  0  0  0  0  0  0  0  0  0  0
   -7.0940   -2.2493    0.1902 H   0  0  0  0  0  0  0  0  0  0  0  0
    0.0817   -0.7634   -0.1341 H   0  0  0  0  0  0  0  0  0  0  0  0
   -1.7016    3.1527    0.3144 H   0  0  0  0  0  0  0  0  0  0  0  0
    0.5882    4.0799    0.3950 H   0  0  0  0  0  0  0  0  0  0  0  0
    2.4474   -0.9197   -0.1563 H   0  0  0  0  0  0  0  0  0  0  0  0
    4.0242    1.7082    0.1929 H   0  0  0  0  0  0  0  0  0  0  0  0
    4.1704   -1.8639   -1.0221 H   0  0  0  0  0  0  0  0  0  0  0  0
    6.3368    1.3426    0.9234 H   0  0  0  0  0  0  0  0  0  0  0  0
    6.2209   -3.1798   -1.1180 H   0  0  0  0  0  0  0  0  0  0  0  0
    8.3959   -0.0061    0.7948 H   0  0  0  0  0  0  0  0  0  0  0  0
    8.3466   -2.2683   -0.2221 H   0  0  0  0  0  0  0  0  0  0  0  0
  1 11  2  0  0  0  0
  2  5  1  0  0  0  0
  2  9  1  0  0  0  0
  2 29  1  0  0  0  0
  3  8  1  0  0  0  0
  3 11  1  0  0  0  0
  3 31  1  0  0  0  0
  4 15  2  0  0  0  0
  4 16  1  0  0  0  0
  5  6  1  0  0  0  0
  5  7  2  0  0  0  0
  6  8  1  0  0  0  0
  6 25  1  0  0  0  0
  6 26  1  0  0  0  0
  7 10  1  0  0  0  0
  7 11  1  0  0  0  0
  8 27  1  0  0  0  0
  8 28  1  0  0  0  0
  9 10  2  0  0  0  0
  9 12  1  0  0  0  0
 10 30  1  0  0  0  0
 12 13  2  0  0  0  0
 12 14  1  0  0  0  0
 13 15  1  0  0  0  0
 13 32  1  0  0  0  0
 14 16  2  0  0  0  0
 14 33  1  0  0  0  0
 15 17  1  0  0  0  0
 16 34  1  0  0  0  0
 17 18  2  3  0  0  0
 17 35  1  0  0  0  0
 18 19  1  0  0  0  0
 18 36  1  0  0  0  0
 19 20  2  0  0  0  0
 19 21  1  0  0  0  0
 20 22  1  0  0  0  0
 20 37  1  0  0  0  0
 21 23  2  0  0  0  0
 21 38  1  0  0  0  0
 22 24  2  0  0  0  0
 22 39  1  0  0  0  0
 23 24  1  0  0  0  0
 23 40  1  0  0  0  0
 24 41  1  0  0  0  0
M  END
> <PUBCHEM_COMPOUND_CID>
49830880

> <PUBCHEM_CONFORMER_RMSD>
0.6

> <PUBCHEM_CONFORMER_DIVERSEORDER>
1
10
11
7
5
4
8
3
12
2
6
9
14
13

> <PUBCHEM_MMFF94_PARTIAL_CHARGES>
37
1 -0.57
10 -0.15
11 0.72
12 0.05
13 -0.15
14 -0.15
15 0.34
16 0.16
17 -0.18
18 -0.18
19 0.03
2 0.03
20 -0.15
21 -0.15
22 -0.15
23 -0.15
24 -0.15
29 0.27
3 -0.73
30 0.15
31 0.37
32 0.15
33 0.15
34 0.15
35 0.15
36 0.15
37 0.15
38 0.15
39 0.15
4 -0.62
40 0.15
41 0.15
5 -0.33
6 0.18
7 -0.09
8 0.3
9 -0.2

> <PUBCHEM_EFFECTIVE_ROTOR_COUNT>
3.6

> <PUBCHEM_PHARMACOPHORE_FEATURES>
9
1 1 acceptor
1 2 cation
1 2 donor
1 3 donor
1 4 acceptor
5 2 5 7 9 10 rings
6 19 20 21 22 23 24 rings
6 3 5 6 7 8 11 rings
6 4 12 13 14 15 16 rings

> <PUBCHEM_HEAVY_ATOM_COUNT>
24

> <PUBCHEM_ATOM_DEF_STEREO_COUNT>
0

> <PUBCHEM_ATOM_UDEF_STEREO_COUNT>
0

> <PUBCHEM_BOND_DEF_STEREO_COUNT>
0

> <PUBCHEM_BOND_UDEF_STEREO_COUNT>
1

> <PUBCHEM_ISOTOPIC_ATOM_COUNT>
0

> <PUBCHEM_COMPONENT_COUNT>
1

> <PUBCHEM_CACTVS_TAUTO_COUNT>
7

> <PUBCHEM_CONFORMER_ID>
02F85BE000000001

> <PUBCHEM_MMFF94_ENERGY>
57.4413

> <PUBCHEM_FEATURE_SELFOVERLAP>
45.768

> <PUBCHEM_SHAPE_FINGERPRINT>
10 15 10807933773570514317
10391435 84 18338789104842331554
10622 236 17199083859019852639
10670039 82 12757138070281113838
11315181 36 18411421717470541633
11524674 6 17346878966258022535
11578080 2 16589689177532121143
11963148 33 18411131433933508830
12166972 35 17894916239366569740
12516196 113 18342455946019445296
12592606 108 18341891927141588607
12633257 1 15554443032998215752
12643181 29 18334852814433911707
12760667 363 18343301448901978893
13288520 33 18409448081335022981
13402501 40 18412265030078198190
13668630 136 18335702724195419374
13685833 64 18413671309802580544
13862211 1 18412546509317629972
13885169 127 18412262796858591573
14123256 34 18408327700134017306
14178184 131 18058166301263087431
14211702 104 18342748377626734678
14216079 64 18342175548646924790
14420673 8 18408606981099981283
14556957 393 15285646439131812302
14931854 50 17822002103905520371
15183329 4 15574713590918708766
15188451 53 18261107436388761546
15352257 5 18411419509920869150
15419008 145 11239732821144493766
15419008 91 18262777641190410764
15510800 12 18130801018608973190
15716309 27 17918272052130303278
17492 89 18049723220445325619
17627616 140 17895469220205739850
18006028 8 18272367564074042880
18335252 98 18413671319099260472
19784866 240 18410298016502603777
2026 5 18413106156626986591
20281389 69 10015866479252045854
21033650 10 17095799915440805733
21130935 74 18200313359266173027
21150785 3 17530971285244879878
21236236 1 18200031733385871256
21267235 1 18408044022398220433
21623969 137 17846219934587518054
21682296 61 18342460352645269951
21756936 100 9007049145639895432
21792934 111 18201429281447561640
22224240 67 16056874737087442340
22288116 15 13623824868280433641
23035841 295 18334575733050093145
23198884 109 15791732992511629821
23522609 53 18122941769175369921
23559900 14 18338229479294252721
249999 5 18056191612913270432
25025965 108 17843663492623079150
293599 30 8718825388480815716
3004659 81 18040996250336330240
335352 9 18408599259001854525
3383291 50 18335702775551028427
3627633 1 18339925900918927312
4073 2 18113621239349832026
4107672 100 17603862257288425813
4340502 62 14261633920054791156
437815 12 18411697694978751485
465052 167 18273217508595884572
5104073 3 17987513711765631080
559249 180 18411699881554604271
5718773 13 18268708480141083375
59682541 35 18201990046459322586
59755656 215 18333730191371059058
6138700 20 18409167701575063771
636775 8 18341060636421986358
77188 2 18412826919122606056
7970288 3 18411420622380760782
999808 66 18114473335561274035

> <PUBCHEM_SHAPE_MULTIPOLES>
473.1
21.46
2.64
0.74
14.51
0.21
-0.04
-14.59
-1.01
-0.75
0.27
-0.08
-0.08
1.47

> <PUBCHEM_SHAPE_SELFOVERLAP>
1049.426

> <PUBCHEM_SHAPE_VOLUME>
249.2

> <PUBCHEM_COORDINATE_TYPE>
2
5
10

$$$$
