24905206
  -OEChem-10052115163D

 41 45  0     0  0  0  0  0  0999 V2000
   -2.1920   -0.1849    0.0400 N   0  0  0  0  0  0  0  0  0  0  0  0
   -1.0174   -0.8251   -0.1102 N   0  0  0  0  0  0  0  0  0  0  0  0
   -3.0603    2.0659    0.2457 N   0  0  0  0  0  0  0  0  0  0  0  0
   -1.2797    3.7310    0.1581 N   0  0  0  0  0  0  0  0  0  0  0  0
    1.0202    3.1477   -0.1015 N   0  0  0  0  0  0  0  0  0  0  0  0
    4.4304   -0.8826    1.5085 N   0  0  0  0  0  0  0  0  0  0  0  0
    5.6138   -1.1234    0.9199 N   0  0  0  0  0  0  0  0  0  0  0  0
   -3.4722   -0.9856    0.1238 C   0  0  0  0  0  0  0  0  0  0  0  0
   -3.5279   -1.9821    1.3005 C   0  0  0  0  0  0  0  0  0  0  0  0
   -3.7287   -1.8223   -1.1422 C   0  0  0  0  0  0  0  0  0  0  0  0
   -3.6548   -3.3636    0.6682 C   0  0  0  0  0  0  0  0  0  0  0  0
   -4.3854   -3.0975   -0.6361 C   0  0  0  0  0  0  0  0  0  0  0  0
   -2.0697    1.1715    0.1001 C   0  0  0  0  0  0  0  0  0  0  0  0
   -0.7172    1.4387   -0.0194 C   0  0  0  0  0  0  0  0  0  0  0  0
   -0.1233    0.1691   -0.1457 C   0  0  0  0  0  0  0  0  0  0  0  0
    1.2736   -0.1318   -0.2995 C   0  0  0  0  0  0  0  0  0  0  0  0
   -0.3312    2.7746    0.0135 C   0  0  0  0  0  0  0  0  0  0  0  0
    2.0586   -0.3405    0.8392 C   0  0  0  0  0  0  0  0  0  0  0  0
    1.8228   -0.2115   -1.5805 C   0  0  0  0  0  0  0  0  0  0  0  0
   -2.5669    3.3230    0.2638 C   0  0  0  0  0  0  0  0  0  0  0  0
    3.4090   -0.6304    0.6327 C   0  0  0  0  0  0  0  0  0  0  0  0
    3.9815   -0.7156   -0.6314 C   0  0  0  0  0  0  0  0  0  0  0  0
    3.1800   -0.5035   -1.7657 C   0  0  0  0  0  0  0  0  0  0  0  0
    5.3368   -1.0211   -0.3820 C   0  0  0  0  0  0  0  0  0  0  0  0
   -4.2689   -0.2420    0.2466 H   0  0  0  0  0  0  0  0  0  0  0  0
   -4.4216   -1.7757    1.9022 H   0  0  0  0  0  0  0  0  0  0  0  0
   -2.6628   -1.9210    1.9683 H   0  0  0  0  0  0  0  0  0  0  0  0
   -2.7967   -2.0688   -1.6642 H   0  0  0  0  0  0  0  0  0  0  0  0
   -4.3695   -1.2914   -1.8537 H   0  0  0  0  0  0  0  0  0  0  0  0
   -4.1910   -4.0666    1.3120 H   0  0  0  0  0  0  0  0  0  0  0  0
   -2.6590   -3.7759    0.4662 H   0  0  0  0  0  0  0  0  0  0  0  0
   -4.2879   -3.9244   -1.3452 H   0  0  0  0  0  0  0  0  0  0  0  0
   -5.4521   -2.9277   -0.4485 H   0  0  0  0  0  0  0  0  0  0  0  0
    1.6469   -0.2818    1.8419 H   0  0  0  0  0  0  0  0  0  0  0  0
    1.2027   -0.0468   -2.4597 H   0  0  0  0  0  0  0  0  0  0  0  0
   -3.3003    4.1140    0.3783 H   0  0  0  0  0  0  0  0  0  0  0  0
    3.5960   -0.5627   -2.7668 H   0  0  0  0  0  0  0  0  0  0  0  0
    1.7488    2.4577   -0.2099 H   0  0  0  0  0  0  0  0  0  0  0  0
    1.2573    4.1302   -0.0726 H   0  0  0  0  0  0  0  0  0  0  0  0
    4.3862   -0.9052    2.5197 H   0  0  0  0  0  0  0  0  0  0  0  0
    6.1334   -1.1730   -1.0965 H   0  0  0  0  0  0  0  0  0  0  0  0
  1  2  1  0  0  0  0
  1  8  1  0  0  0  0
  1 13  1  0  0  0  0
  2 15  2  0  0  0  0
  3 13  2  0  0  0  0
  3 20  1  0  0  0  0
  4 17  1  0  0  0  0
  4 20  2  0  0  0  0
  5 17  1  0  0  0  0
  5 38  1  0  0  0  0
  5 39  1  0  0  0  0
  6  7  1  0  0  0  0
  6 21  1  0  0  0  0
  6 40  1  0  0  0  0
  7 24  2  0  0  0  0
  8  9  1  0  0  0  0
  8 10  1  0  0  0  0
  8 25  1  0  0  0  0
  9 11  1  0  0  0  0
  9 26  1  0  0  0  0
  9 27  1  0  0  0  0
 10 12  1  0  0  0  0
 10 28  1  0  0  0  0
 10 29  1  0  0  0  0
 11 12  1  0  0  0  0
 11 30  1  0  0  0  0
 11 31  1  0  0  0  0
 12 32  1  0  0  0  0
 12 33  1  0  0  0  0
 13 14  1  0  0  0  0
 14 15  1  0  0  0  0
 14 17  2  0  0  0  0
 15 16  1  0  0  0  0
 16 18  2  0  0  0  0
 16 19  1  0  0  0  0
 18 21  1  0  0  0  0
 18 34  1  0  0  0  0
 19 23  2  0  0  0  0
 19 35  1  0  0  0  0
 20 36  1  0  0  0  0
 21 22  2  0  0  0  0
 22 23  1  0  0  0  0
 22 24  1  0  0  0  0
 23 37  1  0  0  0  0
 24 41  1  0  0  0  0
M  END
> <PUBCHEM_COMPOUND_CID>
24905206

> <PUBCHEM_CONFORMER_RMSD>
0.6

> <PUBCHEM_CONFORMER_DIVERSEORDER>
1
4
12
15
8
9
16
13
7
5
6
3
11
10
14
2

> <PUBCHEM_MMFF94_PARTIAL_CHARGES>
26
1 0.31
13 0.11
15 0.23
16 0.05
17 0.41
18 -0.15
19 -0.15
2 -0.71
20 0.47
21 -0.15
23 -0.15
24 0.14
3 -0.57
34 0.15
35 0.15
36 0.15
37 0.15
38 0.4
39 0.4
4 -0.62
40 0.27
41 0.15
5 -0.9
6 0.3
7 -0.71
8 0.26

> <PUBCHEM_EFFECTIVE_ROTOR_COUNT>
3

> <PUBCHEM_PHARMACOPHORE_FEATURES>
12
1 2 acceptor
1 5 cation
1 5 donor
1 6 donor
1 7 acceptor
3 1 3 13 cation
3 3 4 20 cation
5 1 2 13 14 15 rings
5 6 7 21 22 24 rings
5 8 9 10 11 12 rings
6 16 18 19 21 22 23 rings
6 3 4 13 14 17 20 rings

> <PUBCHEM_HEAVY_ATOM_COUNT>
24

> <PUBCHEM_ATOM_DEF_STEREO_COUNT>
0

> <PUBCHEM_ATOM_UDEF_STEREO_COUNT>
0

> <PUBCHEM_BOND_DEF_STEREO_COUNT>
0

> <PUBCHEM_BOND_UDEF_STEREO_COUNT>
0

> <PUBCHEM_ISOTOPIC_ATOM_COUNT>
0

> <PUBCHEM_COMPONENT_COUNT>
1

> <PUBCHEM_CACTVS_TAUTO_COUNT>
14

> <PUBCHEM_CONFORMER_ID>
017C05F600000001

> <PUBCHEM_MMFF94_ENERGY>
53.1563

> <PUBCHEM_FEATURE_SELFOVERLAP>
61.268

> <PUBCHEM_SHAPE_FINGERPRINT>
10319926 262 18198042709305496530
10411042 1 18339360889559603415
1100329 8 18410295796563876041
11056379 131 18339370669057529974
11265709 11 18410293653179529163
11370993 144 16844746221872549835
11545043 162 18129944477881923538
11578080 2 17677594492875984340
12035758 1 18270981050716831553
12236239 1 17604722049437358292
12363563 72 18338803432711234599
12553582 1 18338531836275440183
12788726 201 18262816158398630966
13052359 8 18263925441271976357
13140716 1 18341056293598120073
13583140 156 17845078594278514046
13782708 43 17775011150963442382
14178342 30 18264774268295731966
14787075 74 18043251447574693688
14844126 61 18408602531060260475
15042514 8 18338524045246456633
15099037 37 18343301452948883670
15131766 46 15867211227363726781
15250474 111 18116422649360773002
15842332 3 17822876198701322148
16992727 255 18044356263867233821
17349148 13 17822014211634598882
17539 30 18412536596897367813
1813 80 18200323245996175071
18222031 100 18200594829452329991
18927931 339 18341335526190497670
200 152 17676206879215748850
20101258 96 18410303522581988873
20832881 197 18188773985091788867
21065201 7 18270684143653685094
21304303 282 17902485126940624925
21452121 199 18266459991314283205
21728266 224 18334848390633453738
23184049 29 18410296955809166525
23366157 5 17900831749152110525
23402539 116 18411414007919829798
23419403 2 18046315755804936693
23557571 272 18201443510916286412
23559900 14 18337096977579239633
314173 85 18343026618202927303
3178227 256 18264223426783910041
463206 1 18189051074221718267
5104073 3 18342452622031042744
58779409 54 18410286978837378653
6669772 16 17402903717979155324
6673363 416 18268446788496115964
7471813 234 18335701701745010604
7970288 3 18338516468624680823
9709674 26 18127977395228163342
9981440 41 17687188586890967665

> <PUBCHEM_SHAPE_MULTIPOLES>
459.04
10.02
4.04
1.21
8.03
3.22
-0.16
-9.57
0.98
-5.79
0.39
0.75
-0.62
-0.39

> <PUBCHEM_SHAPE_SELFOVERLAP>
1035.979

> <PUBCHEM_SHAPE_VOLUME>
240.3

> <PUBCHEM_COORDINATE_TYPE>
2
5
10

$$$$
