44352846
  -OEChem-10062121583D

 74 82  0     1  0  0  0  0  0999 V2000
   -0.1218   -0.2746    2.4044 O   0  0  0  0  0  0  0  0  0  0  0  0
   -1.4451    0.7569   -0.5797 O   0  0  0  0  0  0  0  0  0  0  0  0
    5.9975    2.3003   -0.2736 O   0  0  0  0  0  0  0  0  0  0  0  0
    5.9226   -1.9561   -1.4299 O   0  0  0  0  0  0  0  0  0  0  0  0
   -4.7270    1.2929    1.0678 O   0  0  0  0  0  0  0  0  0  0  0  0
    0.6872    1.3494    0.9363 N   0  0  0  0  0  0  0  0  0  0  0  0
    0.9562   -1.6339    0.8593 N   0  0  0  0  0  0  0  0  0  0  0  0
   -3.6980   -0.6920    0.3822 N   0  0  0  0  0  0  0  0  0  0  0  0
    6.0965    0.3716   -1.5885 N   0  0  0  0  0  0  0  0  0  0  0  0
   -0.4770    0.9142    1.6943 C   0  0  1  0  0  0  0  0  0  0  0  0
   -1.7568    0.7598    0.8198 C   0  0  2  0  0  0  0  0  0  0  0  0
   -0.2139   -1.4830    1.6908 C   0  0  2  0  0  0  0  0  0  0  0  0
   -2.4987   -0.5302    1.1677 C   0  0  2  0  0  0  0  0  0  0  0  0
   -1.5572   -1.7158    0.9889 C   0  0  0  0  0  0  0  0  0  0  0  0
    1.7802    0.6627    0.4630 C   0  0  0  0  0  0  0  0  0  0  0  0
    1.9077   -0.7558    0.4227 C   0  0  0  0  0  0  0  0  0  0  0  0
    2.8911    1.3822   -0.1197 C   0  0  0  0  0  0  0  0  0  0  0  0
    3.1354   -1.2500   -0.1779 C   0  0  0  0  0  0  0  0  0  0  0  0
    0.9707    2.6503    0.4934 C   0  0  0  0  0  0  0  0  0  0  0  0
   -0.7825    1.8443    2.8933 C   0  0  0  0  0  0  0  0  0  0  0  0
    1.5145   -2.8646    0.5024 C   0  0  0  0  0  0  0  0  0  0  0  0
    4.0927    0.8928   -0.6241 C   0  0  0  0  0  0  0  0  0  0  0  0
    2.2929    2.7109   -0.0409 C   0  0  0  0  0  0  0  0  0  0  0  0
    4.2025   -0.4898   -0.6516 C   0  0  0  0  0  0  0  0  0  0  0  0
    2.7957   -2.6761   -0.0962 C   0  0  0  0  0  0  0  0  0  0  0  0
    5.3025    1.5265   -1.2299 C   0  0  1  0  0  0  0  0  0  0  0  0
    0.1652    3.8085    0.5002 C   0  0  0  0  0  0  0  0  0  0  0  0
    5.4869   -0.8347   -1.2581 C   0  0  0  0  0  0  0  0  0  0  0  0
    2.7862    3.9689   -0.4719 C   0  0  0  0  0  0  0  0  0  0  0  0
    0.9793   -4.1573    0.6836 C   0  0  0  0  0  0  0  0  0  0  0  0
   -3.7741   -1.9060   -0.4384 C   0  0  0  0  0  0  0  0  0  0  0  0
    3.4951   -3.8403   -0.5055 C   0  0  0  0  0  0  0  0  0  0  0  0
   -4.7333    0.2581    0.4018 C   0  0  0  0  0  0  0  0  0  0  0  0
   -2.5671    1.1352   -1.3670 C   0  0  0  0  0  0  0  0  0  0  0  0
    0.6876    5.0260    0.0575 C   0  0  0  0  0  0  0  0  0  0  0  0
    1.9882    5.1110   -0.4086 C   0  0  0  0  0  0  0  0  0  0  0  0
    1.7078   -5.2698    0.2654 C   0  0  0  0  0  0  0  0  0  0  0  0
    2.9512   -5.1151   -0.3230 C   0  0  0  0  0  0  0  0  0  0  0  0
   -5.9345    0.0155   -0.4130 C   0  0  0  0  0  0  0  0  0  0  0  0
   -7.0169   -0.6776    0.1289 C   0  0  0  0  0  0  0  0  0  0  0  0
   -5.9910    0.4802   -1.7268 C   0  0  0  0  0  0  0  0  0  0  0  0
   -8.1561   -0.9061   -0.6433 C   0  0  0  0  0  0  0  0  0  0  0  0
   -7.1299    0.2518   -2.4990 C   0  0  0  0  0  0  0  0  0  0  0  0
   -8.2125   -0.4414   -1.9573 C   0  0  0  0  0  0  0  0  0  0  0  0
   -2.3739    1.6434    1.0138 H   0  0  0  0  0  0  0  0  0  0  0  0
   -0.1135   -2.2574    2.4621 H   0  0  0  0  0  0  0  0  0  0  0  0
   -2.8192   -0.4762    2.2166 H   0  0  0  0  0  0  0  0  0  0  0  0
   -2.0018   -2.6251    1.4131 H   0  0  0  0  0  0  0  0  0  0  0  0
   -1.3377   -1.9341   -0.0615 H   0  0  0  0  0  0  0  0  0  0  0  0
    0.1258    2.0409    3.4770 H   0  0  0  0  0  0  0  0  0  0  0  0
   -1.4918    1.3652    3.5805 H   0  0  0  0  0  0  0  0  0  0  0  0
   -1.2167    2.8051    2.6152 H   0  0  0  0  0  0  0  0  0  0  0  0
    5.0756    2.1102   -2.1265 H   0  0  0  0  0  0  0  0  0  0  0  0
   -0.8687    3.7777    0.8252 H   0  0  0  0  0  0  0  0  0  0  0  0
    3.7889    4.0527   -0.8829 H   0  0  0  0  0  0  0  0  0  0  0  0
    0.0053   -4.3002    1.1425 H   0  0  0  0  0  0  0  0  0  0  0  0
    7.0066    0.4333   -2.0338 H   0  0  0  0  0  0  0  0  0  0  0  0
   -2.9882   -1.9161   -1.1974 H   0  0  0  0  0  0  0  0  0  0  0  0
   -4.7137   -1.9822   -0.9876 H   0  0  0  0  0  0  0  0  0  0  0  0
   -3.7329   -2.7935    0.1989 H   0  0  0  0  0  0  0  0  0  0  0  0
    4.4698   -3.7686   -0.9744 H   0  0  0  0  0  0  0  0  0  0  0  0
   -2.1523    1.6369   -2.2497 H   0  0  0  0  0  0  0  0  0  0  0  0
   -3.2129    1.8802   -0.8985 H   0  0  0  0  0  0  0  0  0  0  0  0
   -3.0805    0.2682   -1.7742 H   0  0  0  0  0  0  0  0  0  0  0  0
    0.0617    5.9143    0.0751 H   0  0  0  0  0  0  0  0  0  0  0  0
    2.3817    6.0636   -0.7514 H   0  0  0  0  0  0  0  0  0  0  0  0
    1.2944   -6.2651    0.4032 H   0  0  0  0  0  0  0  0  0  0  0  0
    3.5101   -5.9888   -0.6467 H   0  0  0  0  0  0  0  0  0  0  0  0
    6.8811    2.4728   -0.6402 H   0  0  0  0  0  0  0  0  0  0  0  0
   -6.9830   -1.0441    1.1516 H   0  0  0  0  0  0  0  0  0  0  0  0
   -5.1735    1.0399   -2.1667 H   0  0  0  0  0  0  0  0  0  0  0  0
   -8.9989   -1.4456   -0.2214 H   0  0  0  0  0  0  0  0  0  0  0  0
   -7.1761    0.6177   -3.5205 H   0  0  0  0  0  0  0  0  0  0  0  0
   -9.0997   -0.6183   -2.5582 H   0  0  0  0  0  0  0  0  0  0  0  0
  1 10  1  0  0  0  0
  1 12  1  0  0  0  0
  2 11  1  0  0  0  0
  2 34  1  0  0  0  0
  3 26  1  0  0  0  0
  3 69  1  0  0  0  0
  4 28  2  0  0  0  0
  5 33  2  0  0  0  0
  6 10  1  0  0  0  0
  6 15  1  0  0  0  0
  6 19  1  0  0  0  0
  7 12  1  0  0  0  0
  7 16  1  0  0  0  0
  7 21  1  0  0  0  0
  8 13  1  0  0  0  0
  8 31  1  0  0  0  0
  8 33  1  0  0  0  0
  9 26  1  0  0  0  0
  9 28  1  0  0  0  0
  9 57  1  0  0  0  0
 10 11  1  0  0  0  0
 10 20  1  0  0  0  0
 11 13  1  0  0  0  0
 11 45  1  0  0  0  0
 12 14  1  0  0  0  0
 12 46  1  0  0  0  0
 13 14  1  0  0  0  0
 13 47  1  0  0  0  0
 14 48  1  0  0  0  0
 14 49  1  0  0  0  0
 15 16  2  0  0  0  0
 15 17  1  0  0  0  0
 16 18  1  0  0  0  0
 17 22  2  0  0  0  0
 17 23  1  0  0  0  0
 18 24  2  0  0  0  0
 18 25  1  0  0  0  0
 19 23  1  0  0  0  0
 19 27  2  0  0  0  0
 20 50  1  0  0  0  0
 20 51  1  0  0  0  0
 20 52  1  0  0  0  0
 21 25  1  0  0  0  0
 21 30  2  0  0  0  0
 22 24  1  0  0  0  0
 22 26  1  0  0  0  0
 23 29  2  0  0  0  0
 24 28  1  0  0  0  0
 25 32  2  0  0  0  0
 26 53  1  0  0  0  0
 27 35  1  0  0  0  0
 27 54  1  0  0  0  0
 29 36  1  0  0  0  0
 29 55  1  0  0  0  0
 30 37  1  0  0  0  0
 30 56  1  0  0  0  0
 31 58  1  0  0  0  0
 31 59  1  0  0  0  0
 31 60  1  0  0  0  0
 32 38  1  0  0  0  0
 32 61  1  0  0  0  0
 33 39  1  0  0  0  0
 34 62  1  0  0  0  0
 34 63  1  0  0  0  0
 34 64  1  0  0  0  0
 35 36  2  0  0  0  0
 35 65  1  0  0  0  0
 36 66  1  0  0  0  0
 37 38  2  0  0  0  0
 37 67  1  0  0  0  0
 38 68  1  0  0  0  0
 39 40  2  0  0  0  0
 39 41  1  0  0  0  0
 40 42  1  0  0  0  0
 40 70  1  0  0  0  0
 41 43  2  0  0  0  0
 41 71  1  0  0  0  0
 42 44  2  0  0  0  0
 42 72  1  0  0  0  0
 43 44  1  0  0  0  0
 43 73  1  0  0  0  0
 44 74  1  0  0  0  0
M  END
> <PUBCHEM_COMPOUND_CID>
44352846

> <PUBCHEM_CONFORMER_RMSD>
1

> <PUBCHEM_CONFORMER_DIVERSEORDER>
1
5
3
6
4
2

> <PUBCHEM_MMFF94_PARTIAL_CHARGES>
55
1 -0.56
10 0.54
11 0.28
12 0.54
13 0.3
15 -0.05
16 -0.05
17 -0.01
18 -0.01
19 -0.15
2 -0.56
21 -0.15
22 -0.14
24 0.09
26 0.72
27 -0.15
28 0.54
29 -0.15
3 -0.68
30 -0.15
31 0.3
32 -0.15
33 0.54
34 0.28
35 -0.15
36 -0.15
37 -0.15
38 -0.15
39 0.09
4 -0.57
40 -0.15
41 -0.15
42 -0.15
43 -0.15
44 -0.15
5 -0.57
54 0.15
55 0.15
56 0.15
57 0.37
6 -0.04
61 0.15
65 0.15
66 0.15
67 0.15
68 0.15
69 0.4
7 -0.04
70 0.15
71 0.15
72 0.15
73 0.15
74 0.15
8 -0.66
9 -0.73

> <PUBCHEM_EFFECTIVE_ROTOR_COUNT>
5.2

> <PUBCHEM_PHARMACOPHORE_FEATURES>
18
1 1 acceptor
1 2 acceptor
1 3 acceptor
1 3 donor
1 4 acceptor
1 5 acceptor
1 6 cation
1 7 cation
1 9 donor
5 6 15 17 19 23 rings
5 7 16 18 21 25 rings
5 9 22 24 26 28 rings
6 1 10 11 12 13 14 rings
6 15 16 17 18 22 24 rings
6 19 23 27 29 35 36 rings
6 21 25 30 32 37 38 rings
6 39 40 41 42 43 44 rings
7 1 6 7 10 12 15 16 rings

> <PUBCHEM_HEAVY_ATOM_COUNT>
44

> <PUBCHEM_ATOM_DEF_STEREO_COUNT>
5

> <PUBCHEM_ATOM_UDEF_STEREO_COUNT>
0

> <PUBCHEM_BOND_DEF_STEREO_COUNT>
0

> <PUBCHEM_BOND_UDEF_STEREO_COUNT>
0

> <PUBCHEM_ISOTOPIC_ATOM_COUNT>
0

> <PUBCHEM_COMPONENT_COUNT>
1

> <PUBCHEM_CACTVS_TAUTO_COUNT>
2

> <PUBCHEM_CONFORMER_ID>
02A4C54E00000001

> <PUBCHEM_MMFF94_ENERGY>
208.865

> <PUBCHEM_FEATURE_SELFOVERLAP>
92.34

> <PUBCHEM_SHAPE_FINGERPRINT>
10556698 54 17753581613529673077
10622 236 18056756529876751675
10675989 125 18410858763116450288
10693767 8 18202003192426476278
11115154 58 17917996062455155953
11135926 11 18338247002286001882
11204353 107 18266462190580963311
11445158 3 17322163129891586521
11513181 2 17764604122723854214
12608794 3 17905010958779711752
1361 2 18411140263804786266
13636023 20 18271240534690853112
13911987 19 18190484773481035276
14068700 675 18060140908018107152
14117953 113 18410579509545140868
14415360 78 18192987351644788308
15082195 135 18411130373028425211
15183329 4 18411981360852655977
15324884 4 17608669523313551817
15328829 1 17703249342637640923
15439362 3 18123189279719385476
15444296 8 17550114662298714278
15484559 13 18411417328204284942
15927050 60 17617114508082595412
15950262 2 15359129137830908358
19319366 153 18200583830409875549
20775438 99 17553748956572134006
21133410 171 17320107872350997595
22121540 332 17459446945192389725
22899556 105 18196384615300448558
23522609 53 17845111601328583329
23559900 14 18341047544765452057
23569914 152 17472383606495918135
24771750 20 17971768915082028829
3388396 114 18265631887797738910
3504750 166 16460221450537419522
3882209 13 17828184516397767922
4015057 19 18335425613253810603
4066623 53 18115019698160886164
4353968 344 18124042231103657878
45266715 3 18201152260916068984
46194498 28 18188759557911363735
57527452 28 15985115110526757220
6004065 56 18340486763517437288
6058803 2 17769391430346406546

> <PUBCHEM_SHAPE_MULTIPOLES>
856.23
15.97
6.24
1.78
31.37
0.68
0.3
2.68
-12.41
-9.76
0.17
1.55
-0.32
-0.11

> <PUBCHEM_SHAPE_SELFOVERLAP>
1969.038

> <PUBCHEM_SHAPE_VOLUME>
437.6

> <PUBCHEM_COORDINATE_TYPE>
2
5
10

$$$$
