11565683
  -OEChem-10062121553D

 38 41  0     0  0  0  0  0  0999 V2000
   -3.3122   -2.1921    0.7253 N   0  0  0  0  0  0  0  0  0  0  0  0
    2.3788    0.9451    0.0433 N   0  0  0  0  0  0  0  0  0  0  0  0
   -5.5244   -1.7117   -0.0984 N   0  0  0  0  0  0  0  0  0  0  0  0
   -1.6124    2.0050    0.4099 N   0  0  0  0  0  0  0  0  0  0  0  0
    0.7107    2.6296    0.2659 N   0  0  0  0  0  0  0  0  0  0  0  0
   -2.2935   -0.2521    0.3384 C   0  0  0  0  0  0  0  0  0  0  0  0
   -3.6403   -0.1423   -0.0981 C   0  0  0  0  0  0  0  0  0  0  0  0
   -4.2478   -1.3683    0.1570 C   0  0  0  0  0  0  0  0  0  0  0  0
   -1.2334    0.7139    0.3092 C   0  0  0  0  0  0  0  0  0  0  0  0
   -2.1207   -1.5240    0.8402 C   0  0  0  0  0  0  0  0  0  0  0  0
    0.0798    0.3081    0.1859 C   0  0  0  0  0  0  0  0  0  0  0  0
    2.7968   -0.4148   -0.0650 C   0  0  0  0  0  0  0  0  0  0  0  0
   -4.4290    0.8598   -0.6861 C   0  0  0  0  0  0  0  0  0  0  0  0
    1.0185    1.3196    0.1696 C   0  0  0  0  0  0  0  0  0  0  0  0
    4.2913   -0.5391   -0.1388 C   0  0  0  0  0  0  0  0  0  0  0  0
   -5.7590    0.5572   -0.9721 C   0  0  0  0  0  0  0  0  0  0  0  0
   -6.2367   -0.7097   -0.6642 C   0  0  0  0  0  0  0  0  0  0  0  0
    4.9228   -0.5158   -1.3768 C   0  0  0  0  0  0  0  0  0  0  0  0
    5.0285   -0.6756    1.0316 C   0  0  0  0  0  0  0  0  0  0  0  0
   -0.6041    2.8972    0.3820 C   0  0  0  0  0  0  0  0  0  0  0  0
    6.3112   -0.6309   -1.4456 C   0  0  0  0  0  0  0  0  0  0  0  0
    6.4169   -0.7907    0.9628 C   0  0  0  0  0  0  0  0  0  0  0  0
    7.0582   -0.7684   -0.2758 C   0  0  0  0  0  0  0  0  0  0  0  0
   -1.2699   -2.0266    1.2805 H   0  0  0  0  0  0  0  0  0  0  0  0
   -3.4769   -3.1455    1.0170 H   0  0  0  0  0  0  0  0  0  0  0  0
    2.3662   -0.8853   -0.9590 H   0  0  0  0  0  0  0  0  0  0  0  0
    2.4513   -1.0016    0.7966 H   0  0  0  0  0  0  0  0  0  0  0  0
    0.3325   -0.7392    0.0887 H   0  0  0  0  0  0  0  0  0  0  0  0
   -4.0304    1.8413   -0.9207 H   0  0  0  0  0  0  0  0  0  0  0  0
    3.0543    1.7009    0.0303 H   0  0  0  0  0  0  0  0  0  0  0  0
   -6.4076    1.2978   -1.4275 H   0  0  0  0  0  0  0  0  0  0  0  0
   -7.2713   -0.9628   -0.8807 H   0  0  0  0  0  0  0  0  0  0  0  0
    4.3512   -0.4069   -2.2944 H   0  0  0  0  0  0  0  0  0  0  0  0
    4.5401   -0.6919    2.0020 H   0  0  0  0  0  0  0  0  0  0  0  0
   -0.8802    3.9415    0.4610 H   0  0  0  0  0  0  0  0  0  0  0  0
    6.8106   -0.6129   -2.4099 H   0  0  0  0  0  0  0  0  0  0  0  0
    6.9990   -0.8971    1.8736 H   0  0  0  0  0  0  0  0  0  0  0  0
    8.1393   -0.8577   -0.3292 H   0  0  0  0  0  0  0  0  0  0  0  0
  1  8  1  0  0  0  0
  1 10  1  0  0  0  0
  1 25  1  0  0  0  0
  2 12  1  0  0  0  0
  2 14  1  0  0  0  0
  2 30  1  0  0  0  0
  3  8  1  0  0  0  0
  3 17  2  0  0  0  0
  4  9  1  0  0  0  0
  4 20  2  0  0  0  0
  5 14  2  0  0  0  0
  5 20  1  0  0  0  0
  6  7  1  0  0  0  0
  6  9  1  0  0  0  0
  6 10  2  0  0  0  0
  7  8  2  0  0  0  0
  7 13  1  0  0  0  0
  9 11  2  0  0  0  0
 10 24  1  0  0  0  0
 11 14  1  0  0  0  0
 11 28  1  0  0  0  0
 12 15  1  0  0  0  0
 12 26  1  0  0  0  0
 12 27  1  0  0  0  0
 13 16  2  0  0  0  0
 13 29  1  0  0  0  0
 15 18  2  0  0  0  0
 15 19  1  0  0  0  0
 16 17  1  0  0  0  0
 16 31  1  0  0  0  0
 17 32  1  0  0  0  0
 18 21  1  0  0  0  0
 18 33  1  0  0  0  0
 19 22  2  0  0  0  0
 19 34  1  0  0  0  0
 20 35  1  0  0  0  0
 21 23  2  0  0  0  0
 21 36  1  0  0  0  0
 22 23  1  0  0  0  0
 22 37  1  0  0  0  0
 23 38  1  0  0  0  0
M  END
> <PUBCHEM_COMPOUND_CID>
11565683

> <PUBCHEM_CONFORMER_RMSD>
0.8

> <PUBCHEM_CONFORMER_DIVERSEORDER>
1
37
6
29
32
28
15
47
26
19
42
7
9
36
11
40
24
27
20
8
12
38
25
45
41
43
18
10
13
31
23
17
4
21
22
46
2
30
16
44
3
34
35
5
39
14
33

> <PUBCHEM_MMFF94_PARTIAL_CHARGES>
35
1 0.03
10 -0.3
11 -0.15
12 0.51
13 -0.15
14 0.41
15 -0.14
16 -0.15
17 0.16
18 -0.15
19 -0.15
2 -0.87
20 0.47
21 -0.15
22 -0.15
23 -0.15
24 0.15
25 0.27
28 0.15
29 0.15
3 -0.57
30 0.4
31 0.15
32 0.15
33 0.15
34 0.15
35 0.15
36 0.15
37 0.15
38 0.15
4 -0.62
5 -0.62
6 -0.05
8 0.11
9 0.36

> <PUBCHEM_EFFECTIVE_ROTOR_COUNT>
4

> <PUBCHEM_PHARMACOPHORE_FEATURES>
10
1 1 cation
1 1 donor
1 2 donor
1 3 acceptor
3 2 5 14 cation
3 4 5 20 cation
5 1 6 7 8 10 rings
6 15 18 19 21 22 23 rings
6 3 7 8 13 16 17 rings
6 4 5 9 11 14 20 rings

> <PUBCHEM_HEAVY_ATOM_COUNT>
23

> <PUBCHEM_ATOM_DEF_STEREO_COUNT>
0

> <PUBCHEM_ATOM_UDEF_STEREO_COUNT>
0

> <PUBCHEM_BOND_DEF_STEREO_COUNT>
0

> <PUBCHEM_BOND_UDEF_STEREO_COUNT>
0

> <PUBCHEM_ISOTOPIC_ATOM_COUNT>
0

> <PUBCHEM_COMPONENT_COUNT>
1

> <PUBCHEM_CACTVS_TAUTO_COUNT>
8

> <PUBCHEM_CONFORMER_ID>
00B07A7300000001

> <PUBCHEM_MMFF94_ENERGY>
64.5403

> <PUBCHEM_FEATURE_SELFOVERLAP>
50.995

> <PUBCHEM_SHAPE_FINGERPRINT>
10 15 18059561509215317266
10165383 225 18041553617534400709
10613725 11 17312821571843311046
10670039 82 17240751862504540725
10803635 8 17967529064916364271
11315181 36 18343867722801235593
11963148 33 18341607118864964870
12166972 35 17967536808589509620
12236239 1 17676206858268270802
12403259 118 12391518589582997707
12516196 113 18273213105953796984
12760667 363 18343023285255291833
12788726 201 18263639580547984232
13288520 33 18411700989403011037
13402501 40 18343584036185795494
13540713 4 18045778146965319129
13583140 156 14189015510203004809
13668630 136 17846498149388723375
13685833 64 18341333370100713739
13690498 29 17968380177580646275
13862211 1 18412543219082849162
14251752 14 17676482826374026655
14508225 48 18408884035912429005
14790565 3 17260473566001311769
14840074 17 17561080302263102030
14931854 50 18186796950708775975
15119646 104 16733533932817695458
15183329 4 17749387057329430255
15188451 53 18261104133643606114
16087824 20 18266741269746735609
17138139 8 17749666419784171010
17492 89 17979914144766127847
17857418 61 18334012774928743450
18006028 8 18343862221085422064
18222031 100 18273218608070634164
20374829 77 18409446990043830865
20511986 3 17676477359624606650
21236236 1 18200878370529920961
21267235 1 18408606994116589659
21279426 13 18409439298343485845
21623969 137 16845576383938615174
22224240 67 16702294664384332726
23198884 109 15791731893100092319
23536379 177 16515402954353420230
23559900 14 18337667636983568313
249999 5 18056753463370836272
255183 313 17981344299972032265
293599 30 7925912582167685308
29717793 49 17603871070877834030
3004659 81 18186519921439421892
314173 85 18201725041722310176
335352 9 18409444783459438477
3383291 50 18341049705192608771
4325135 7 18412265060997232436
437815 12 18272367581480628961
44062 13 18336265768654400083
504579 68 17894927204929591014
5283173 99 18260822670412873021
559249 180 18335416859777956419
5718773 13 18129656551854084239
5758199 1 10809338924098715173
59682541 35 17917418853489399306
59682541 52 15285626678161018106
59755656 215 18410855430512439918
6138700 20 18410572877488147923
8863177 126 17898584325968252731

> <PUBCHEM_SHAPE_MULTIPOLES>
448.42
18.05
2.17
1.04
14.41
1.3
-0.19
-9.11
-4.42
-1.87
0.49
0.95
-0.18
0.47

> <PUBCHEM_SHAPE_SELFOVERLAP>
1001.924

> <PUBCHEM_SHAPE_VOLUME>
232.3

> <PUBCHEM_COORDINATE_TYPE>
2
5
10

$$$$
