21362696
  -OEChem-10062122043D

 32 35  0     0  0  0  0  0  0999 V2000
   -1.3219   -2.3199   -0.5630 Cl  0  0  0  0  0  0  0  0  0  0  0  0
   -1.7925    3.0913   -0.2679 Cl  0  0  0  0  0  0  0  0  0  0  0  0
   -2.7580    0.2959   -0.5577 O   0  0  0  0  0  0  0  0  0  0  0  0
    1.7517   -1.5549   -0.1575 N   0  0  0  0  0  0  0  0  0  0  0  0
    5.3145   -0.7221    0.3093 N   0  0  0  0  0  0  0  0  0  0  0  0
   -5.0010    0.0760    0.2449 C   0  0  0  0  0  0  0  0  0  0  0  0
   -5.5526   -1.2297   -0.2474 C   0  0  0  0  0  0  0  0  0  0  0  0
   -5.9372   -0.7166    1.1093 C   0  0  0  0  0  0  0  0  0  0  0  0
   -3.5385    0.1643    0.6259 C   0  0  0  0  0  0  0  0  0  0  0  0
   -1.4043    0.4022   -0.3960 C   0  0  0  0  0  0  0  0  0  0  0  0
    0.7582   -0.6055   -0.2113 C   0  0  0  0  0  0  0  0  0  0  0  0
    1.3685    0.6405   -0.0610 C   0  0  0  0  0  0  0  0  0  0  0  0
   -0.6230   -0.7564   -0.3802 C   0  0  0  0  0  0  0  0  0  0  0  0
    2.7734    0.4128    0.0863 C   0  0  0  0  0  0  0  0  0  0  0  0
    2.9790   -0.9649    0.0223 C   0  0  0  0  0  0  0  0  0  0  0  0
   -0.8247    1.6600   -0.2482 C   0  0  0  0  0  0  0  0  0  0  0  0
    0.5580    1.7951   -0.0800 C   0  0  0  0  0  0  0  0  0  0  0  0
    3.8878    1.2467    0.2682 C   0  0  0  0  0  0  0  0  0  0  0  0
    4.2431   -1.5294    0.1329 C   0  0  0  0  0  0  0  0  0  0  0  0
    5.1195    0.6145    0.3711 C   0  0  0  0  0  0  0  0  0  0  0  0
   -5.3715    0.9873   -0.2072 H   0  0  0  0  0  0  0  0  0  0  0  0
   -4.8938   -2.0882   -0.2931 H   0  0  0  0  0  0  0  0  0  0  0  0
   -6.3010   -1.1976   -1.0296 H   0  0  0  0  0  0  0  0  0  0  0  0
   -6.9444   -0.3395    1.2386 H   0  0  0  0  0  0  0  0  0  0  0  0
   -5.5382   -1.2315    1.9744 H   0  0  0  0  0  0  0  0  0  0  0  0
   -3.2280   -0.7271    1.1839 H   0  0  0  0  0  0  0  0  0  0  0  0
   -3.3978    1.0377    1.2726 H   0  0  0  0  0  0  0  0  0  0  0  0
    1.5987   -2.5506   -0.2389 H   0  0  0  0  0  0  0  0  0  0  0  0
    1.0115    2.7762    0.0355 H   0  0  0  0  0  0  0  0  0  0  0  0
    3.8007    2.3256    0.3268 H   0  0  0  0  0  0  0  0  0  0  0  0
    4.4274   -2.5946    0.0866 H   0  0  0  0  0  0  0  0  0  0  0  0
    6.0232    1.1996    0.5134 H   0  0  0  0  0  0  0  0  0  0  0  0
  1 13  1  0  0  0  0
  2 16  1  0  0  0  0
  3  9  1  0  0  0  0
  3 10  1  0  0  0  0
  4 11  1  0  0  0  0
  4 15  1  0  0  0  0
  4 28  1  0  0  0  0
  5 19  2  0  0  0  0
  5 20  1  0  0  0  0
  6  7  1  0  0  0  0
  6  8  1  0  0  0  0
  6  9  1  0  0  0  0
  6 21  1  0  0  0  0
  7  8  1  0  0  0  0
  7 22  1  0  0  0  0
  7 23  1  0  0  0  0
  8 24  1  0  0  0  0
  8 25  1  0  0  0  0
  9 26  1  0  0  0  0
  9 27  1  0  0  0  0
 10 13  1  0  0  0  0
 10 16  2  0  0  0  0
 11 12  1  0  0  0  0
 11 13  2  0  0  0  0
 12 14  1  0  0  0  0
 12 17  2  0  0  0  0
 14 15  2  0  0  0  0
 14 18  1  0  0  0  0
 15 19  1  0  0  0  0
 16 17  1  0  0  0  0
 17 29  1  0  0  0  0
 18 20  2  0  0  0  0
 18 30  1  0  0  0  0
 19 31  1  0  0  0  0
 20 32  1  0  0  0  0
M  END
> <PUBCHEM_COMPOUND_CID>
21362696

> <PUBCHEM_CONFORMER_RMSD>
0.6

> <PUBCHEM_CONFORMER_DIVERSEORDER>
1
3
2
5
9
10
4
6
7
8

> <PUBCHEM_MMFF94_PARTIAL_CHARGES>
28
1 -0.18
10 0.08
11 -0.15
13 0.18
15 -0.15
16 0.18
17 -0.15
18 -0.15
19 0.16
2 -0.18
20 0.16
21 0.1
22 0.1
23 0.1
24 0.1
25 0.1
28 0.27
29 0.15
3 -0.36
30 0.15
31 0.15
32 0.15
4 0.03
5 -0.62
6 -0.19
7 -0.2
8 -0.2
9 0.38

> <PUBCHEM_EFFECTIVE_ROTOR_COUNT>
3.6

> <PUBCHEM_PHARMACOPHORE_FEATURES>
7
1 3 acceptor
1 4 cation
1 4 donor
1 5 acceptor
5 4 11 12 14 15 rings
6 10 11 12 13 16 17 rings
6 5 14 15 18 19 20 rings

> <PUBCHEM_HEAVY_ATOM_COUNT>
20

> <PUBCHEM_ATOM_DEF_STEREO_COUNT>
0

> <PUBCHEM_ATOM_UDEF_STEREO_COUNT>
0

> <PUBCHEM_BOND_DEF_STEREO_COUNT>
0

> <PUBCHEM_BOND_UDEF_STEREO_COUNT>
0

> <PUBCHEM_ISOTOPIC_ATOM_COUNT>
0

> <PUBCHEM_COMPONENT_COUNT>
1

> <PUBCHEM_CACTVS_TAUTO_COUNT>
2

> <PUBCHEM_CONFORMER_ID>
0145F80800000001

> <PUBCHEM_MMFF94_ENERGY>
54.6318

> <PUBCHEM_FEATURE_SELFOVERLAP>
35.706

> <PUBCHEM_SHAPE_FINGERPRINT>
10 15 18335692893500718984
10688039 33 18186239528779172069
1100329 8 18266741470712184931
11578080 2 16986859388584986474
11796584 16 16732701671071337451
12236239 1 17846781823551797091
12390115 104 18058181539542821832
12553582 1 18339909489562772972
12596602 18 17418096541991409043
13140716 1 18195525024296649720
13533116 47 17131557154847135150
13685833 64 18114187462685459339
13862211 1 18410570699860510247
14787075 74 18187085095827109027
15196674 1 18410855417215697965
16945 1 18340192060078137844
17492 89 18192990414130601674
1813 80 17603305959584984220
19141452 34 18201437025331384527
19489759 90 16515681131185436415
19591789 44 18339642209606255158
200 152 18260547814402089321
20028762 73 18129944602457730959
20261772 1 18343018908615103911
20510252 161 18200311013744803696
21236236 1 18339641140718788389
21267235 1 18411141303930845710
21637258 2 16298378097999117915
22182313 1 18128539249732633949
23402539 116 18343295973082206519
23845131 108 17404311702927614065
26918003 58 17894351094452315915
2748010 2 18195524779525764116
29717793 49 12901540222423008506
350125 39 18411982447084288624
3545911 37 18413106174132746734
465052 167 18335428992939287291
474229 33 18412261731548297327
5104073 3 18268420236274218200
5283173 99 17895746293410196621
59755656 520 14117513233904007100

> <PUBCHEM_SHAPE_MULTIPOLES>
399.5
11.93
2.33
0.77
5.25
0.98
-0.06
-3.61
-3.18
0.46
0.35
0.48
-0.05
0.17

> <PUBCHEM_SHAPE_SELFOVERLAP>
867.929

> <PUBCHEM_SHAPE_VOLUME>
222.2

> <PUBCHEM_COORDINATE_TYPE>
2
5
10

$$$$
