18732328
  -OEChem-10062122013D

 28 30  0     0  0  0  0  0  0999 V2000
    5.7897    1.1904    0.3099 Br  0  0  0  0  0  0  0  0  0  0  0  0
   -5.4245    0.2060   -0.0848 O   0  0  0  0  0  0  0  0  0  0  0  0
    2.3308   -0.8686   -0.1583 N   0  0  0  0  0  0  0  0  0  0  0  0
    2.3065    1.4945    0.2742 N   0  0  0  0  0  0  0  0  0  0  0  0
    3.2089   -1.8931   -0.3221 N   0  0  0  0  0  0  0  0  0  0  0  0
    0.1961    0.1753   -0.0210 C   0  0  0  0  0  0  0  0  0  0  0  0
   -1.2740    0.1834   -0.0376 C   0  0  0  0  0  0  0  0  0  0  0  0
    0.9401   -0.9282   -0.2033 C   0  0  0  0  0  0  0  0  0  0  0  0
    2.9920    0.3344    0.0801 C   0  0  0  0  0  0  0  0  0  0  0  0
    1.0115    1.4067    0.2251 C   0  0  0  0  0  0  0  0  0  0  0  0
   -1.9824   -0.9468    0.3708 C   0  0  0  0  0  0  0  0  0  0  0  0
   -1.9605    1.3212   -0.4618 C   0  0  0  0  0  0  0  0  0  0  0  0
    4.3380    0.0481    0.0627 C   0  0  0  0  0  0  0  0  0  0  0  0
   -3.3770   -0.9392    0.3550 C   0  0  0  0  0  0  0  0  0  0  0  0
   -3.3552    1.3288   -0.4776 C   0  0  0  0  0  0  0  0  0  0  0  0
   -4.0635    0.1986   -0.0692 C   0  0  0  0  0  0  0  0  0  0  0  0
    4.4085   -1.3286   -0.1878 C   0  0  0  0  0  0  0  0  0  0  0  0
   -6.0852   -0.9830    0.3457 C   0  0  0  0  0  0  0  0  0  0  0  0
    0.5236   -1.9091   -0.4020 H   0  0  0  0  0  0  0  0  0  0  0  0
    0.4433    2.3334    0.4045 H   0  0  0  0  0  0  0  0  0  0  0  0
   -1.4808   -1.8438    0.7243 H   0  0  0  0  0  0  0  0  0  0  0  0
   -1.4397    2.2105   -0.8057 H   0  0  0  0  0  0  0  0  0  0  0  0
   -3.8645   -1.8489    0.6888 H   0  0  0  0  0  0  0  0  0  0  0  0
   -3.8848    2.2162   -0.8133 H   0  0  0  0  0  0  0  0  0  0  0  0
    5.2848   -1.9549   -0.2797 H   0  0  0  0  0  0  0  0  0  0  0  0
   -7.1620   -0.8008    0.2676 H   0  0  0  0  0  0  0  0  0  0  0  0
   -5.8737   -1.2025    1.3977 H   0  0  0  0  0  0  0  0  0  0  0  0
   -5.8562   -1.8304   -0.3095 H   0  0  0  0  0  0  0  0  0  0  0  0
  1 13  1  0  0  0  0
  2 16  1  0  0  0  0
  2 18  1  0  0  0  0
  3  5  1  0  0  0  0
  3  8  1  0  0  0  0
  3  9  1  0  0  0  0
  4  9  1  0  0  0  0
  4 10  2  0  0  0  0
  5 17  2  0  0  0  0
  6  7  1  0  0  0  0
  6  8  2  0  0  0  0
  6 10  1  0  0  0  0
  7 11  2  0  0  0  0
  7 12  1  0  0  0  0
  8 19  1  0  0  0  0
  9 13  2  0  0  0  0
 10 20  1  0  0  0  0
 11 14  1  0  0  0  0
 11 21  1  0  0  0  0
 12 15  2  0  0  0  0
 12 22  1  0  0  0  0
 13 17  1  0  0  0  0
 14 16  2  0  0  0  0
 14 23  1  0  0  0  0
 15 16  1  0  0  0  0
 15 24  1  0  0  0  0
 17 25  1  0  0  0  0
 18 26  1  0  0  0  0
 18 27  1  0  0  0  0
 18 28  1  0  0  0  0
M  END
> <PUBCHEM_COMPOUND_CID>
18732328

> <PUBCHEM_CONFORMER_RMSD>
0.6

> <PUBCHEM_CONFORMER_DIVERSEORDER>
1
2

> <PUBCHEM_MMFF94_PARTIAL_CHARGES>
25
1 -0.06
10 0.38
11 -0.15
12 -0.15
13 0.06
14 -0.15
15 -0.15
16 0.08
17 0.14
18 0.28
19 0.15
2 -0.36
20 0.06
21 0.15
22 0.15
23 0.15
24 0.15
25 0.15
3 0.6
4 -0.58
5 -0.71
6 -0.01
7 0.03
8 -0.18
9 -0.03

> <PUBCHEM_EFFECTIVE_ROTOR_COUNT>
2

> <PUBCHEM_PHARMACOPHORE_FEATURES>
7
1 1 hydrophobe
1 2 acceptor
1 4 acceptor
1 5 acceptor
5 3 5 9 13 17 rings
6 3 4 6 8 9 10 rings
6 7 11 12 14 15 16 rings

> <PUBCHEM_HEAVY_ATOM_COUNT>
18

> <PUBCHEM_ATOM_DEF_STEREO_COUNT>
0

> <PUBCHEM_ATOM_UDEF_STEREO_COUNT>
0

> <PUBCHEM_BOND_DEF_STEREO_COUNT>
0

> <PUBCHEM_BOND_UDEF_STEREO_COUNT>
0

> <PUBCHEM_ISOTOPIC_ATOM_COUNT>
0

> <PUBCHEM_COMPONENT_COUNT>
1

> <PUBCHEM_CACTVS_TAUTO_COUNT>
1

> <PUBCHEM_CONFORMER_ID>
011DD52800000001

> <PUBCHEM_MMFF94_ENERGY>
55.5634

> <PUBCHEM_FEATURE_SELFOVERLAP>
35.65

> <PUBCHEM_SHAPE_FINGERPRINT>
10 15 18335975485126767504
11471102 20 18413669106621449252
12107183 9 17622734115383739515
12236239 1 17060622196102515673
12507560 40 18411134718954748780
12916748 109 17894352167872522785
13073987 5 18341333301291611905
13533116 47 16988566762317645502
1420 363 18259710003906333059
14251718 22 18187082866607323909
14341114 176 18412832377871824045
14386348 63 18407761438723757475
15196674 1 18338797818887993020
15375358 24 18408041814716406602
17834072 33 18272649069020092015
1813 80 17167865248813973036
18522853 276 18342176661085743456
19141452 34 18341896329240395951
200 152 18060416911337967753
20279233 1 18334582342878330050
20645477 70 18271808969676376494
21267235 1 18411708668271896775
221490 88 18263932192395874954
23402539 116 18409724059180538189
23402655 69 18271520918613923748
23557571 272 17748820804567725420
23559900 14 18337104674340228969
239999 70 18342742884627391678
26918003 58 18410575102170073971
3004659 81 18187366476932133274
33824 294 18410573959962448306
34797466 226 17988934404936976748
34934 24 18341607148997280662
351380 180 18409165515452241963
3545911 37 18412263956393935160
4214541 1 18410012096519441957
42630746 31 18343302587479606668
4325135 7 18186804707973139652
4340502 62 17603301566487633066
4463277 17 18411983550938077161
465052 167 18272657843638732774
5104073 3 18339641131400438712
542803 24 16271928215994904057
69090 78 18412542120088251071
77779 3 18410012108945213092
9709674 26 18408610270359413563

> <PUBCHEM_SHAPE_MULTIPOLES>
355.56
13.04
1.64
0.68
3.34
0.06
0.01
0.66
0.94
-0.83
-0.07
0.02
-0.02
0.82

> <PUBCHEM_SHAPE_SELFOVERLAP>
767.59

> <PUBCHEM_SHAPE_VOLUME>
201.2

> <PUBCHEM_COORDINATE_TYPE>
2
5
10

$$$$
