44364138
  -OEChem-10052115163D

 47 54  0     1  0  0  0  0  0999 V2000
   -0.0002    3.2229    1.7037 O   0  0  0  0  0  0  0  0  0  0  0  0
    2.3001   -3.9312    0.2187 O   0  0  0  0  0  0  0  0  0  0  0  0
   -2.3000   -3.9315    0.2169 O   0  0  0  0  0  0  0  0  0  0  0  0
    1.4881    1.4808   -0.2864 N   0  0  0  0  0  0  0  0  0  0  0  0
   -1.4881    1.4807   -0.2869 N   0  0  0  0  0  0  0  0  0  0  0  0
    0.0000    3.0899   -1.1683 N   0  0  0  0  0  0  0  0  0  0  0  0
    0.0001   -4.3089    0.2520 N   0  0  0  0  0  0  0  0  0  0  0  0
    1.2031    2.8992   -0.3889 C   0  0  1  0  0  0  0  0  0  0  0  0
   -1.2032    2.8992   -0.3891 C   0  0  2  0  0  0  0  0  0  0  0  0
    0.7124    0.3589   -0.1738 C   0  0  0  0  0  0  0  0  0  0  0  0
   -0.7123    0.3588   -0.1738 C   0  0  0  0  0  0  0  0  0  0  0  0
    1.3331   -0.9495   -0.0552 C   0  0  0  0  0  0  0  0  0  0  0  0
   -1.3330   -0.9495   -0.0548 C   0  0  0  0  0  0  0  0  0  0  0  0
    2.7791    0.9406   -0.2284 C   0  0  0  0  0  0  0  0  0  0  0  0
   -2.7790    0.9403   -0.2292 C   0  0  0  0  0  0  0  0  0  0  0  0
    1.1698    3.5890    0.9766 C   0  0  0  0  0  0  0  0  0  0  0  0
   -1.1703    3.5888    0.9764 C   0  0  0  0  0  0  0  0  0  0  0  0
    2.7213   -0.4794   -0.1008 C   0  0  0  0  0  0  0  0  0  0  0  0
   -2.7213   -0.4794   -0.0997 C   0  0  0  0  0  0  0  0  0  0  0  0
    0.6898   -2.1765    0.0587 C   0  0  0  0  0  0  0  0  0  0  0  0
   -0.6896   -2.1765    0.0590 C   0  0  0  0  0  0  0  0  0  0  0  0
    1.1465   -3.5531    0.1840 C   0  0  0  0  0  0  0  0  0  0  0  0
   -1.1464   -3.5531    0.1833 C   0  0  0  0  0  0  0  0  0  0  0  0
    4.0200    1.6121   -0.2720 C   0  0  0  0  0  0  0  0  0  0  0  0
   -4.0201    1.6118   -0.2745 C   0  0  0  0  0  0  0  0  0  0  0  0
    3.9553   -1.1761   -0.0359 C   0  0  0  0  0  0  0  0  0  0  0  0
   -3.9552   -1.1760   -0.0328 C   0  0  0  0  0  0  0  0  0  0  0  0
    5.2055    0.8813   -0.2019 C   0  0  0  0  0  0  0  0  0  0  0  0
   -5.2055    0.8810   -0.2034 C   0  0  0  0  0  0  0  0  0  0  0  0
    5.1755   -0.4974   -0.0876 C   0  0  0  0  0  0  0  0  0  0  0  0
   -5.1755   -0.4974   -0.0858 C   0  0  0  0  0  0  0  0  0  0  0  0
    2.0237    3.3307   -0.9725 H   0  0  0  0  0  0  0  0  0  0  0  0
   -2.0237    3.3306   -0.9729 H   0  0  0  0  0  0  0  0  0  0  0  0
    0.0001    4.0499   -1.5166 H   0  0  0  0  0  0  0  0  0  0  0  0
    2.0362    3.3075    1.5844 H   0  0  0  0  0  0  0  0  0  0  0  0
    1.1918    4.6801    0.8636 H   0  0  0  0  0  0  0  0  0  0  0  0
   -1.1926    4.6800    0.8636 H   0  0  0  0  0  0  0  0  0  0  0  0
   -2.0367    3.3071    1.5841 H   0  0  0  0  0  0  0  0  0  0  0  0
    4.0709    2.6937   -0.3569 H   0  0  0  0  0  0  0  0  0  0  0  0
   -4.0710    2.6932   -0.3611 H   0  0  0  0  0  0  0  0  0  0  0  0
    3.9798   -2.2559    0.0586 H   0  0  0  0  0  0  0  0  0  0  0  0
   -3.9797   -2.2555    0.0641 H   0  0  0  0  0  0  0  0  0  0  0  0
    0.0001   -5.3187    0.3435 H   0  0  0  0  0  0  0  0  0  0  0  0
    6.1593    1.4008   -0.2370 H   0  0  0  0  0  0  0  0  0  0  0  0
   -6.1593    1.4004   -0.2398 H   0  0  0  0  0  0  0  0  0  0  0  0
    6.1049   -1.0576   -0.0341 H   0  0  0  0  0  0  0  0  0  0  0  0
   -6.1049   -1.0575   -0.0311 H   0  0  0  0  0  0  0  0  0  0  0  0
  1 16  1  0  0  0  0
  1 17  1  0  0  0  0
  2 22  2  0  0  0  0
  3 23  2  0  0  0  0
  4  8  1  0  0  0  0
  4 10  1  0  0  0  0
  4 14  1  0  0  0  0
  5  9  1  0  0  0  0
  5 11  1  0  0  0  0
  5 15  1  0  0  0  0
  6  8  1  0  0  0  0
  6  9  1  0  0  0  0
  6 34  1  0  0  0  0
  7 22  1  0  0  0  0
  7 23  1  0  0  0  0
  7 43  1  0  0  0  0
  8 16  1  0  0  0  0
  8 32  1  0  0  0  0
  9 17  1  0  0  0  0
  9 33  1  0  0  0  0
 10 11  2  0  0  0  0
 10 12  1  0  0  0  0
 11 13  1  0  0  0  0
 12 18  1  0  0  0  0
 12 20  2  0  0  0  0
 13 19  1  0  0  0  0
 13 21  2  0  0  0  0
 14 18  1  0  0  0  0
 14 24  2  0  0  0  0
 15 19  1  0  0  0  0
 15 25  2  0  0  0  0
 16 35  1  0  0  0  0
 16 36  1  0  0  0  0
 17 37  1  0  0  0  0
 17 38  1  0  0  0  0
 18 26  2  0  0  0  0
 19 27  2  0  0  0  0
 20 21  1  0  0  0  0
 20 22  1  0  0  0  0
 21 23  1  0  0  0  0
 24 28  1  0  0  0  0
 24 39  1  0  0  0  0
 25 29  1  0  0  0  0
 25 40  1  0  0  0  0
 26 30  1  0  0  0  0
 26 41  1  0  0  0  0
 27 31  1  0  0  0  0
 27 42  1  0  0  0  0
 28 30  2  0  0  0  0
 28 44  1  0  0  0  0
 29 31  2  0  0  0  0
 29 45  1  0  0  0  0
 30 46  1  0  0  0  0
 31 47  1  0  0  0  0
M  END
> <PUBCHEM_COMPOUND_CID>
44364138

> <PUBCHEM_CONFORMER_RMSD>
0.6

> <PUBCHEM_CONFORMER_DIVERSEORDER>
1

> <PUBCHEM_MMFF94_PARTIAL_CHARGES>
39
1 -0.56
10 -0.05
11 -0.05
12 -0.01
13 -0.01
14 -0.15
15 -0.15
16 0.28
17 0.28
2 -0.57
20 0.09
21 0.09
22 0.54
23 0.54
24 -0.15
25 -0.15
26 -0.15
27 -0.15
28 -0.15
29 -0.15
3 -0.57
30 -0.15
31 -0.15
34 0.36
39 0.15
4 -0.04
40 0.15
41 0.15
42 0.15
43 0.37
44 0.15
45 0.15
46 0.15
47 0.15
5 -0.04
6 -0.9
7 -0.49
8 0.53
9 0.53

> <PUBCHEM_EFFECTIVE_ROTOR_COUNT>
1

> <PUBCHEM_PHARMACOPHORE_FEATURES>
16
1 1 acceptor
1 2 acceptor
1 3 acceptor
1 4 cation
1 5 cation
1 6 cation
1 6 donor
1 7 donor
5 4 10 12 14 18 rings
5 5 11 13 15 19 rings
5 7 20 21 22 23 rings
6 1 6 8 9 16 17 rings
6 10 11 12 13 20 21 rings
6 14 18 24 26 28 30 rings
6 15 19 25 27 29 31 rings
7 4 5 6 8 9 10 11 rings

> <PUBCHEM_HEAVY_ATOM_COUNT>
31

> <PUBCHEM_ATOM_DEF_STEREO_COUNT>
2

> <PUBCHEM_ATOM_UDEF_STEREO_COUNT>
0

> <PUBCHEM_BOND_DEF_STEREO_COUNT>
0

> <PUBCHEM_BOND_UDEF_STEREO_COUNT>
0

> <PUBCHEM_ISOTOPIC_ATOM_COUNT>
0

> <PUBCHEM_COMPONENT_COUNT>
1

> <PUBCHEM_CACTVS_TAUTO_COUNT>
2

> <PUBCHEM_CONFORMER_ID>
02A4F16A00000001

> <PUBCHEM_MMFF94_ENERGY>
125.2709

> <PUBCHEM_FEATURE_SELFOVERLAP>
82.623

> <PUBCHEM_SHAPE_FINGERPRINT>
10006869 2 17983574096788896545
10190108 129 17834434174617039881
10675989 125 17541932093139919197
10693767 8 18129928019156082015
10906281 52 18270421458605058492
10967382 1 18409448072412785559
1100329 8 18339080517903833889
11513181 2 17986387781008540791
11578080 2 16985180481178269914
12788726 201 18342748394822343472
12838862 33 18337370704298097053
13140716 1 18267584795771960592
13402501 40 18409730672617868365
138480 1 17328582817724928614
13911987 19 18335144201873265428
14178342 30 17473814503808133305
14223421 5 17976538316949078044
14790565 3 18409455781832005445
15927050 60 17764872785259174180
16728300 4 17389915921706714866
19591789 44 18337673143410735695
19930381 70 18265050236950081231
20028762 73 18272083924460332383
20510252 161 18341613672889105600
20600515 1 18339934812811848116
20642791 178 18188504557102782517
20775438 99 17048195739098408831
20905425 154 18053101722564738694
21421861 104 17972882449608695011
22113638 7 18336263543438743820
23559900 14 18269835471133038848
283562 15 18340770325700586744
3178227 256 18336841874418969635
335352 9 18409730694103287342
350125 39 18121781617214727014
3882209 13 16746735567074933891
392239 28 18341054012558685008
469060 322 18339088068662705952
484989 97 18119809364396671455
5171179 24 17768807915910346834
5486654 2 18410015442161815796
57527585 103 17390264487850364187
59755656 215 18338803312721176126
6004065 56 18199454623357194167

> <PUBCHEM_SHAPE_MULTIPOLES>
600.43
8.35
5.59
0.8
0
2.46
-0.13
-0.55
0.9
0
-1.18
0
-0.6
0

> <PUBCHEM_SHAPE_SELFOVERLAP>
1418.127

> <PUBCHEM_SHAPE_VOLUME>
298.1

> <PUBCHEM_COORDINATE_TYPE>
2
5
10

$$$$
