10476762
  -OEChem-10062122043D

 48 50  0     0  0  0  0  0  0999 V2000
   -6.8649   -2.6905    0.3619 F   0  0  0  0  0  0  0  0  0  0  0  0
    6.4978   -3.2118   -0.4923 F   0  0  0  0  0  0  0  0  0  0  0  0
   -1.2526    3.8648   -1.4062 O   0  0  0  0  0  0  0  0  0  0  0  0
    2.8011    3.0445    0.2434 O   0  0  0  0  0  0  0  0  0  0  0  0
   -1.9056    3.9587    0.7992 O   0  0  0  0  0  0  0  0  0  0  0  0
    1.0259    4.2858    1.0224 O   0  0  0  0  0  0  0  0  0  0  0  0
   -1.5045   -1.4851   -0.3464 N   0  0  0  0  0  0  0  0  0  0  0  0
    1.2541   -1.6326    0.3432 N   0  0  0  0  0  0  0  0  0  0  0  0
   -0.7502   -0.3129   -0.1150 C   0  0  0  0  0  0  0  0  0  0  0  0
    0.6013   -0.3852    0.2229 C   0  0  0  0  0  0  0  0  0  0  0  0
   -0.6492    2.0983   -0.0041 C   0  0  0  0  0  0  0  0  0  0  0  0
    0.7023    2.0262    0.3338 C   0  0  0  0  0  0  0  0  0  0  0  0
   -1.3754    0.9288   -0.2285 C   0  0  0  0  0  0  0  0  0  0  0  0
    1.3276    0.7844    0.4473 C   0  0  0  0  0  0  0  0  0  0  0  0
   -2.8655   -1.7916   -0.1663 C   0  0  0  0  0  0  0  0  0  0  0  0
    2.5854   -2.0340    0.1309 C   0  0  0  0  0  0  0  0  0  0  0  0
   -1.3304    3.3803   -0.1301 C   0  0  0  0  0  0  0  0  0  0  0  0
    1.4875    3.2297    0.5744 C   0  0  0  0  0  0  0  0  0  0  0  0
   -3.5984   -1.1617    0.8421 C   0  0  0  0  0  0  0  0  0  0  0  0
    3.3725   -1.3779   -0.8184 C   0  0  0  0  0  0  0  0  0  0  0  0
   -3.4895   -2.7263   -0.9955 C   0  0  0  0  0  0  0  0  0  0  0  0
    3.1257   -3.0895    0.8686 C   0  0  0  0  0  0  0  0  0  0  0  0
   -4.9483   -1.4651    1.0205 C   0  0  0  0  0  0  0  0  0  0  0  0
    4.6929   -1.7753   -1.0289 C   0  0  0  0  0  0  0  0  0  0  0  0
   -4.8392   -3.0296   -0.8173 C   0  0  0  0  0  0  0  0  0  0  0  0
    4.4462   -3.4869    0.6584 C   0  0  0  0  0  0  0  0  0  0  0  0
   -5.5687   -2.3991    0.1907 C   0  0  0  0  0  0  0  0  0  0  0  0
    5.2298   -2.8300   -0.2904 C   0  0  0  0  0  0  0  0  0  0  0  0
   -1.8855    5.1241   -1.6570 C   0  0  0  0  0  0  0  0  0  0  0  0
    3.6780    4.1595    0.4370 C   0  0  0  0  0  0  0  0  0  0  0  0
   -2.4216    1.0060   -0.5151 H   0  0  0  0  0  0  0  0  0  0  0  0
    2.3693    0.7235    0.7520 H   0  0  0  0  0  0  0  0  0  0  0  0
   -0.9598   -2.2471   -0.7400 H   0  0  0  0  0  0  0  0  0  0  0  0
    0.6460   -2.3792    0.6674 H   0  0  0  0  0  0  0  0  0  0  0  0
   -3.1369   -0.4474    1.5185 H   0  0  0  0  0  0  0  0  0  0  0  0
    2.9749   -0.5683   -1.4247 H   0  0  0  0  0  0  0  0  0  0  0  0
   -2.9326   -3.2241   -1.7854 H   0  0  0  0  0  0  0  0  0  0  0  0
    2.5261   -3.6092    1.6117 H   0  0  0  0  0  0  0  0  0  0  0  0
   -5.5154   -0.9782    1.8083 H   0  0  0  0  0  0  0  0  0  0  0  0
    5.3019   -1.2673   -1.7708 H   0  0  0  0  0  0  0  0  0  0  0  0
   -5.3227   -3.7566   -1.4633 H   0  0  0  0  0  0  0  0  0  0  0  0
    4.8646   -4.3077    1.2334 H   0  0  0  0  0  0  0  0  0  0  0  0
   -1.7392    5.3750   -2.7109 H   0  0  0  0  0  0  0  0  0  0  0  0
   -1.4281    5.9047   -1.0419 H   0  0  0  0  0  0  0  0  0  0  0  0
   -2.9587    5.0533   -1.4569 H   0  0  0  0  0  0  0  0  0  0  0  0
    3.3569    5.0033   -0.1809 H   0  0  0  0  0  0  0  0  0  0  0  0
    4.6831    3.8595    0.1294 H   0  0  0  0  0  0  0  0  0  0  0  0
    3.7018    4.4411    1.4939 H   0  0  0  0  0  0  0  0  0  0  0  0
  1 27  1  0  0  0  0
  2 28  1  0  0  0  0
  3 17  1  0  0  0  0
  3 29  1  0  0  0  0
  4 18  1  0  0  0  0
  4 30  1  0  0  0  0
  5 17  2  0  0  0  0
  6 18  2  0  0  0  0
  7  9  1  0  0  0  0
  7 15  1  0  0  0  0
  7 33  1  0  0  0  0
  8 10  1  0  0  0  0
  8 16  1  0  0  0  0
  8 34  1  0  0  0  0
  9 10  2  0  0  0  0
  9 13  1  0  0  0  0
 10 14  1  0  0  0  0
 11 12  1  0  0  0  0
 11 13  2  0  0  0  0
 11 17  1  0  0  0  0
 12 14  2  0  0  0  0
 12 18  1  0  0  0  0
 13 31  1  0  0  0  0
 14 32  1  0  0  0  0
 15 19  2  0  0  0  0
 15 21  1  0  0  0  0
 16 20  2  0  0  0  0
 16 22  1  0  0  0  0
 19 23  1  0  0  0  0
 19 35  1  0  0  0  0
 20 24  1  0  0  0  0
 20 36  1  0  0  0  0
 21 25  2  0  0  0  0
 21 37  1  0  0  0  0
 22 26  2  0  0  0  0
 22 38  1  0  0  0  0
 23 27  2  0  0  0  0
 23 39  1  0  0  0  0
 24 28  2  0  0  0  0
 24 40  1  0  0  0  0
 25 27  1  0  0  0  0
 25 41  1  0  0  0  0
 26 28  1  0  0  0  0
 26 42  1  0  0  0  0
 29 43  1  0  0  0  0
 29 44  1  0  0  0  0
 29 45  1  0  0  0  0
 30 46  1  0  0  0  0
 30 47  1  0  0  0  0
 30 48  1  0  0  0  0
M  END
> <PUBCHEM_COMPOUND_CID>
10476762

> <PUBCHEM_CONFORMER_RMSD>
1

> <PUBCHEM_CONFORMER_DIVERSEORDER>
1
17
12
9
3
7
6
2
11
23
8
13
15
10
19
5
20
4
14
16
18
24
21
22

> <PUBCHEM_MMFF94_PARTIAL_CHARGES>
42
1 -0.19
10 0.1
11 0.09
12 0.09
13 -0.15
14 -0.15
15 0.1
16 0.1
17 0.63
18 0.63
19 -0.15
2 -0.19
20 -0.15
21 -0.15
22 -0.15
23 -0.15
24 -0.15
25 -0.15
26 -0.15
27 0.19
28 0.19
29 0.28
3 -0.43
30 0.28
31 0.15
32 0.15
33 0.4
34 0.4
35 0.15
36 0.15
37 0.15
38 0.15
39 0.15
4 -0.43
40 0.15
41 0.15
42 0.15
5 -0.57
6 -0.57
7 -0.6
8 -0.6
9 0.1

> <PUBCHEM_EFFECTIVE_ROTOR_COUNT>
8

> <PUBCHEM_PHARMACOPHORE_FEATURES>
9
1 5 acceptor
1 6 acceptor
1 7 cation
1 7 donor
1 8 cation
1 8 donor
6 15 19 21 23 25 27 rings
6 16 20 22 24 26 28 rings
6 9 10 11 12 13 14 rings

> <PUBCHEM_HEAVY_ATOM_COUNT>
30

> <PUBCHEM_ATOM_DEF_STEREO_COUNT>
0

> <PUBCHEM_ATOM_UDEF_STEREO_COUNT>
0

> <PUBCHEM_BOND_DEF_STEREO_COUNT>
0

> <PUBCHEM_BOND_UDEF_STEREO_COUNT>
0

> <PUBCHEM_ISOTOPIC_ATOM_COUNT>
0

> <PUBCHEM_COMPONENT_COUNT>
1

> <PUBCHEM_CACTVS_TAUTO_COUNT>
5

> <PUBCHEM_CONFORMER_ID>
009FDCDA00000001

> <PUBCHEM_MMFF94_ENERGY>
121.7509

> <PUBCHEM_FEATURE_SELFOVERLAP>
45.677

> <PUBCHEM_SHAPE_FINGERPRINT>
10050765 1 18412263969790488169
10074138 170 17617061764982381130
102385 1 18410288090891783128
10411042 1 18411983550484890219
1100329 8 18195529199126583601
11991303 11 17683812007992672127
12058002 1 17386583486251262888
12107183 9 18271821077568875555
12553582 1 18411691076165857055
12788726 201 18189897517569935258
12988421 55 16624288849636303280
13052359 8 17905041452545781911
14251757 5 18191861224325529799
14790565 3 17689154938814705481
15042514 8 18123473769604226314
15064981 194 18051991221044320324
15081414 286 18191866941111740269
15324884 4 17843090672992027122
15775530 1 18338218402062217976
15927050 60 17837774795927820190
17492 89 18122065308785855542
17980427 26 16698062806599484009
1813 80 18343033185086915727
19427546 20 18191590744502403358
20028762 73 17478886542325039366
20101258 96 18339365158498438138
20587220 46 15829094573611773647
20739085 24 17975967979847658161
21049683 271 18263092157144047710
22311459 1 18195246612227408161
255183 451 18342177821202245607
3103668 31 18190741934769300133
3421961 26 18339642355709152243
4144715 1 18188773993913786619
4409770 3 18047471128420526341
474 4 17761489601608720475
5171179 24 18413103953038874616
5385378 56 18124317365985101859
6058803 2 17841441633674746623
6691757 9 17475777772499196346
6700243 42 17700722591845110542
70251023 43 18408888442427048827
9981440 41 17040074239298308832

> <PUBCHEM_SHAPE_MULTIPOLES>
569.4
11.67
7.83
1.07
3.18
9.62
0.19
-18.74
0.27
-2.2
0.8
0.26
0.42
1.21

> <PUBCHEM_SHAPE_SELFOVERLAP>
1235.962

> <PUBCHEM_SHAPE_VOLUME>
310.9

> <PUBCHEM_COORDINATE_TYPE>
2
5
10

$$$$
