49830607
  -OEChem-10062121533D

 44 48  0     0  0  0  0  0  0999 V2000
    3.0211   -4.3324    0.8215 F   0  0  0  0  0  0  0  0  0  0  0  0
    2.6319    2.3039    0.1071 N   0  0  0  0  0  0  0  0  0  0  0  0
    0.5334    1.2565    0.1744 N   0  0  0  0  0  0  0  0  0  0  0  0
   -2.8113    0.5292   -0.2269 N   0  0  0  0  0  0  0  0  0  0  0  0
    1.2149    2.7752    1.9171 N   0  0  0  0  0  0  0  0  0  0  0  0
   -2.5860   -1.6329   -0.7394 N   0  0  0  0  0  0  0  0  0  0  0  0
   -5.3932    0.6065   -1.2726 N   0  0  0  0  0  0  0  0  0  0  0  0
    4.3233    2.0826   -1.5879 C   0  0  0  0  0  0  0  0  0  0  0  0
    5.5396    1.4393   -0.9894 C   0  0  0  0  0  0  0  0  0  0  0  0
    5.1487    1.1326   -2.4053 C   0  0  0  0  0  0  0  0  0  0  0  0
    2.9690    1.6579   -1.1226 C   0  0  0  0  0  0  0  0  0  0  0  0
    1.3993    2.1019    0.7654 C   0  0  0  0  0  0  0  0  0  0  0  0
   -1.5597    0.1787    0.1924 C   0  0  0  0  0  0  0  0  0  0  0  0
   -0.6335    1.0867    0.8299 C   0  0  0  0  0  0  0  0  0  0  0  0
   -1.4443   -1.1574   -0.1342 C   0  0  0  0  0  0  0  0  0  0  0  0
   -3.3807   -0.5916   -0.7762 C   0  0  0  0  0  0  0  0  0  0  0  0
   -0.9448    1.7173    2.0173 C   0  0  0  0  0  0  0  0  0  0  0  0
    0.0271    2.5587    2.5192 C   0  0  0  0  0  0  0  0  0  0  0  0
   -0.2940   -1.9753    0.1120 C   0  0  0  0  0  0  0  0  0  0  0  0
   -3.5253    1.7125   -0.1907 C   0  0  0  0  0  0  0  0  0  0  0  0
   -4.7137   -0.5086   -1.3040 C   0  0  0  0  0  0  0  0  0  0  0  0
    0.1616   -2.1633    1.4169 C   0  0  0  0  0  0  0  0  0  0  0  0
    0.3700   -2.5837   -0.9531 C   0  0  0  0  0  0  0  0  0  0  0  0
   -4.7705    1.7125   -0.7053 C   0  0  0  0  0  0  0  0  0  0  0  0
    1.2815   -2.9595    1.6567 C   0  0  0  0  0  0  0  0  0  0  0  0
    1.4899   -3.3798   -0.7135 C   0  0  0  0  0  0  0  0  0  0  0  0
    1.9456   -3.5677    0.5914 C   0  0  0  0  0  0  0  0  0  0  0  0
    4.3744    3.1356   -1.8372 H   0  0  0  0  0  0  0  0  0  0  0  0
    5.4065    0.6587   -0.2503 H   0  0  0  0  0  0  0  0  0  0  0  0
    6.4117    2.0616   -0.8303 H   0  0  0  0  0  0  0  0  0  0  0  0
    5.7588    1.5487   -3.1978 H   0  0  0  0  0  0  0  0  0  0  0  0
    4.7543    0.1463   -2.6168 H   0  0  0  0  0  0  0  0  0  0  0  0
    2.9305    0.5686   -0.9951 H   0  0  0  0  0  0  0  0  0  0  0  0
    2.2417    1.9214   -1.8999 H   0  0  0  0  0  0  0  0  0  0  0  0
    3.2846    2.9378    0.5541 H   0  0  0  0  0  0  0  0  0  0  0  0
   -1.8817    1.5684    2.5395 H   0  0  0  0  0  0  0  0  0  0  0  0
   -0.1264    3.0969    3.4484 H   0  0  0  0  0  0  0  0  0  0  0  0
   -3.0698    2.5958    0.2371 H   0  0  0  0  0  0  0  0  0  0  0  0
   -5.1717   -1.4079   -1.7454 H   0  0  0  0  0  0  0  0  0  0  0  0
   -0.3458   -1.7060    2.2631 H   0  0  0  0  0  0  0  0  0  0  0  0
    0.0293   -2.4461   -1.9767 H   0  0  0  0  0  0  0  0  0  0  0  0
   -5.3598    2.6233   -0.6971 H   0  0  0  0  0  0  0  0  0  0  0  0
    1.6357   -3.1075    2.6725 H   0  0  0  0  0  0  0  0  0  0  0  0
    2.0078   -3.8530   -1.5425 H   0  0  0  0  0  0  0  0  0  0  0  0
  1 27  1  0  0  0  0
  2 11  1  0  0  0  0
  2 12  1  0  0  0  0
  2 35  1  0  0  0  0
  3 12  1  0  0  0  0
  3 14  2  0  0  0  0
  4 13  1  0  0  0  0
  4 16  1  0  0  0  0
  4 20  1  0  0  0  0
  5 12  2  0  0  0  0
  5 18  1  0  0  0  0
  6 15  1  0  0  0  0
  6 16  2  0  0  0  0
  7 21  2  0  0  0  0
  7 24  1  0  0  0  0
  8  9  1  0  0  0  0
  8 10  1  0  0  0  0
  8 11  1  0  0  0  0
  8 28  1  0  0  0  0
  9 10  1  0  0  0  0
  9 29  1  0  0  0  0
  9 30  1  0  0  0  0
 10 31  1  0  0  0  0
 10 32  1  0  0  0  0
 11 33  1  0  0  0  0
 11 34  1  0  0  0  0
 13 14  1  0  0  0  0
 13 15  2  0  0  0  0
 14 17  1  0  0  0  0
 15 19  1  0  0  0  0
 16 21  1  0  0  0  0
 17 18  2  0  0  0  0
 17 36  1  0  0  0  0
 18 37  1  0  0  0  0
 19 22  2  0  0  0  0
 19 23  1  0  0  0  0
 20 24  2  0  0  0  0
 20 38  1  0  0  0  0
 21 39  1  0  0  0  0
 22 25  1  0  0  0  0
 22 40  1  0  0  0  0
 23 26  2  0  0  0  0
 23 41  1  0  0  0  0
 24 42  1  0  0  0  0
 25 27  2  0  0  0  0
 25 43  1  0  0  0  0
 26 27  1  0  0  0  0
 26 44  1  0  0  0  0
M  END
> <PUBCHEM_COMPOUND_CID>
49830607

> <PUBCHEM_CONFORMER_RMSD>
0.8

> <PUBCHEM_CONFORMER_DIVERSEORDER>
1
17
26
2
3
39
24
30
34
18
32
42
19
25
23
8
36
11
40
16
38
28
4
9
5
22
41
37
21
35
10
13
20
33
14
12
6
29
27
31
15
7

> <PUBCHEM_MMFF94_PARTIAL_CHARGES>
42
1 -0.19
10 -0.2
11 0.46
12 0.72
13 -0.2
14 0.36
15 0.17
16 0.1
17 -0.15
18 0.16
19 0.05
2 -0.87
20 -0.18
21 0.47
22 -0.15
23 -0.15
24 0.02
25 -0.15
26 -0.15
27 0.19
28 0.1
29 0.1
3 -0.62
30 0.1
31 0.1
32 0.1
35 0.4
36 0.15
37 0.15
38 0.15
39 0.06
4 0.33
40 0.15
41 0.15
42 0.15
43 0.15
44 0.15
5 -0.62
6 -0.57
7 -0.62
8 -0.19
9 -0.2

> <PUBCHEM_EFFECTIVE_ROTOR_COUNT>
5.6

> <PUBCHEM_PHARMACOPHORE_FEATURES>
9
1 2 donor
1 3 acceptor
1 7 acceptor
3 4 6 16 cation
4 2 3 5 12 cation
5 4 6 13 15 16 rings
6 19 22 23 25 26 27 rings
6 3 5 12 14 17 18 rings
6 4 7 16 20 21 24 rings

> <PUBCHEM_HEAVY_ATOM_COUNT>
27

> <PUBCHEM_ATOM_DEF_STEREO_COUNT>
0

> <PUBCHEM_ATOM_UDEF_STEREO_COUNT>
0

> <PUBCHEM_BOND_DEF_STEREO_COUNT>
0

> <PUBCHEM_BOND_UDEF_STEREO_COUNT>
0

> <PUBCHEM_ISOTOPIC_ATOM_COUNT>
0

> <PUBCHEM_COMPONENT_COUNT>
1

> <PUBCHEM_CACTVS_TAUTO_COUNT>
3

> <PUBCHEM_CONFORMER_ID>
02F85ACF00000001

> <PUBCHEM_MMFF94_ENERGY>
79.2451

> <PUBCHEM_FEATURE_SELFOVERLAP>
45.791

> <PUBCHEM_SHAPE_FINGERPRINT>
10190108 129 18049450541825933595
10764073 3 17689482485694299435
107951 10 17459191948731275866
11578080 2 17533246131547263417
11582403 64 15691191630765117393
12035759 4 18200603475163097424
12156800 1 14185585227545875852
12363563 72 17058676133773991788
133893 2 18118136774680768464
140371 6 17767965338301669503
14114207 22 18114455670566461838
14251740 79 18270699652453731732
14713325 29 17896332483220003593
14931854 50 18343312469956924892
15210252 30 17112117552891958045
167882 2 18188493467253890310
1813 80 17979340972595025619
20465049 17 18201156680363167111
20642791 178 18123467185978446385
20642791 239 17611745604955597125
21133410 230 17535786140594016562
21781051 124 18117839030721790667
21927370 108 17686633337571308434
22393880 68 18130213978236365621
23366157 5 18115571661566949395
23419403 2 17608125050694098795
23559900 14 18198044899137631375
3298306 158 18411417358083842014
44802255 64 17750815422514757764
474144 1 18338510838090445030
513532 50 16916202477544327873
5265222 85 18119539988100111004
5282940 2 18267318529627924920
59755656 215 18265610069448647807
70634741 139 17904505226881917852
7364860 26 18128511861311645411
9925002 15 17695635052115154912

> <PUBCHEM_SHAPE_MULTIPOLES>
518.49
9.12
4.85
2.04
0.82
4.94
-0.6
-6.02
8.28
4.37
-1.9
1.08
-1.02
-1.57

> <PUBCHEM_SHAPE_SELFOVERLAP>
1153.825

> <PUBCHEM_SHAPE_VOLUME>
278.4

> <PUBCHEM_COORDINATE_TYPE>
2
5
10

$$$$
