44370226
  -OEChem-10062121593D

 65 71  0     1  0  0  0  0  0999 V2000
    0.9490   -0.0506    5.6943 Br  0  0  0  0  0  0  0  0  0  0  0  0
    2.2391    3.8460   -0.8279 Cl  0  0  0  0  0  0  0  0  0  0  0  0
    2.1089   -3.9325   -0.3908 Cl  0  0  0  0  0  0  0  0  0  0  0  0
    1.7387   -0.3769   -1.2723 O   0  0  0  0  0  0  0  0  0  0  0  0
    1.5264    0.0648    1.6789 O   0  0  0  0  0  0  0  0  0  0  0  0
    5.3442   -0.8665   -0.8296 O   0  0  0  0  0  0  0  0  0  0  0  0
    4.6476    0.8609    1.4037 O   0  0  0  0  0  0  0  0  0  0  0  0
    2.2614   -1.1777   -3.8236 O   0  0  0  0  0  0  0  0  0  0  0  0
   -5.1892    2.3738   -0.1351 O   0  0  0  0  0  0  0  0  0  0  0  0
   -5.2647   -2.2336    0.1182 O   0  0  0  0  0  0  0  0  0  0  0  0
    2.4044    1.2796    3.4279 O   0  0  0  0  0  0  0  0  0  0  0  0
    0.2034    1.3469   -0.5211 N   0  0  0  0  0  0  0  0  0  0  0  0
    0.1580   -1.4321   -0.3662 N   0  0  0  0  0  0  0  0  0  0  0  0
   -5.6158    0.0783    0.0240 N   0  0  0  0  0  0  0  0  0  0  0  0
    1.6456    0.8886   -0.6158 C   0  0  1  0  0  0  0  0  0  0  0  0
    2.3390    0.8002    0.7572 C   0  0  2  0  0  0  0  0  0  0  0  0
    3.6964    0.0826    0.6756 C   0  0  1  0  0  0  0  0  0  0  0  0
    4.1605   -0.0734   -0.7717 C   0  0  2  0  0  0  0  0  0  0  0  0
    3.0748   -0.7606   -1.6171 C   0  0  2  0  0  0  0  0  0  0  0  0
   -0.9656    0.6803   -0.3888 C   0  0  0  0  0  0  0  0  0  0  0  0
   -2.2349    1.3468   -0.3210 C   0  0  0  0  0  0  0  0  0  0  0  0
   -0.2464    2.6583   -0.5562 C   0  0  0  0  0  0  0  0  0  0  0  0
   -0.9885   -0.7172   -0.3111 C   0  0  0  0  0  0  0  0  0  0  0  0
   -1.6768    2.7013   -0.4407 C   0  0  0  0  0  0  0  0  0  0  0  0
   -2.2787   -1.3303   -0.1727 C   0  0  0  0  0  0  0  0  0  0  0  0
   -3.4739    0.7271   -0.1857 C   0  0  0  0  0  0  0  0  0  0  0  0
   -3.4967   -0.6595   -0.1092 C   0  0  0  0  0  0  0  0  0  0  0  0
    3.2846   -0.5107   -3.1083 C   0  0  0  0  0  0  0  0  0  0  0  0
   -1.7652   -2.7073   -0.1405 C   0  0  0  0  0  0  0  0  0  0  0  0
    0.5196    3.8270   -0.6838 C   0  0  0  0  0  0  0  0  0  0  0  0
   -0.3344   -2.7239   -0.2565 C   0  0  0  0  0  0  0  0  0  0  0  0
   -2.2883    3.9781   -0.4604 C   0  0  0  0  0  0  0  0  0  0  0  0
   -4.8412    1.2103   -0.1003 C   0  0  0  0  0  0  0  0  0  0  0  0
   -4.8788   -1.0854    0.0261 C   0  0  0  0  0  0  0  0  0  0  0  0
   -0.1327    5.0605   -0.6980 C   0  0  0  0  0  0  0  0  0  0  0  0
   -1.5150    5.1370   -0.5880 C   0  0  0  0  0  0  0  0  0  0  0  0
   -2.4182   -3.9578   -0.0202 C   0  0  0  0  0  0  0  0  0  0  0  0
    1.6590    0.4101    2.9998 C   0  0  0  0  0  0  0  0  0  0  0  0
    6.4956   -0.1020   -0.5053 C   0  0  0  0  0  0  0  0  0  0  0  0
    0.3930   -3.9240   -0.2513 C   0  0  0  0  0  0  0  0  0  0  0  0
   -1.6833   -5.1482   -0.0164 C   0  0  0  0  0  0  0  0  0  0  0  0
   -0.2993   -5.1294   -0.1301 C   0  0  0  0  0  0  0  0  0  0  0  0
    0.7383   -0.4589    3.8101 C   0  0  0  0  0  0  0  0  0  0  0  0
    2.1220    1.5608   -1.3185 H   0  0  0  0  0  0  0  0  0  0  0  0
    2.4520    1.8226    1.1350 H   0  0  0  0  0  0  0  0  0  0  0  0
    3.6665   -0.8982    1.1650 H   0  0  0  0  0  0  0  0  0  0  0  0
    4.3667    0.9182   -1.1988 H   0  0  0  0  0  0  0  0  0  0  0  0
    3.1416   -1.8378   -1.4796 H   0  0  0  0  0  0  0  0  0  0  0  0
    3.2100    0.5566   -3.3409 H   0  0  0  0  0  0  0  0  0  0  0  0
    4.2575   -0.8844   -3.4423 H   0  0  0  0  0  0  0  0  0  0  0  0
    1.1073   -1.1911   -0.1738 H   0  0  0  0  0  0  0  0  0  0  0  0
    4.7194    1.7293    0.9716 H   0  0  0  0  0  0  0  0  0  0  0  0
   -3.3658    4.0780   -0.3771 H   0  0  0  0  0  0  0  0  0  0  0  0
   -6.6263    0.0993    0.1050 H   0  0  0  0  0  0  0  0  0  0  0  0
    0.4332    5.9847   -0.7957 H   0  0  0  0  0  0  0  0  0  0  0  0
   -2.0041    6.1075   -0.6011 H   0  0  0  0  0  0  0  0  0  0  0  0
   -3.4983   -4.0126    0.0709 H   0  0  0  0  0  0  0  0  0  0  0  0
    7.3614   -0.6184   -0.9317 H   0  0  0  0  0  0  0  0  0  0  0  0
    6.6521   -0.0710    0.5753 H   0  0  0  0  0  0  0  0  0  0  0  0
    6.4719    0.9067   -0.9294 H   0  0  0  0  0  0  0  0  0  0  0  0
    2.4111   -1.0033   -4.7684 H   0  0  0  0  0  0  0  0  0  0  0  0
   -2.2038   -6.0977    0.0770 H   0  0  0  0  0  0  0  0  0  0  0  0
    0.2401   -6.0741   -0.1233 H   0  0  0  0  0  0  0  0  0  0  0  0
    0.9925   -1.5130    3.6824 H   0  0  0  0  0  0  0  0  0  0  0  0
   -0.3037   -0.2601    3.5514 H   0  0  0  0  0  0  0  0  0  0  0  0
  1 43  1  0  0  0  0
  2 30  1  0  0  0  0
  3 40  1  0  0  0  0
  4 15  1  0  0  0  0
  4 19  1  0  0  0  0
  5 16  1  0  0  0  0
  5 38  1  0  0  0  0
  6 18  1  0  0  0  0
  6 39  1  0  0  0  0
  7 17  1  0  0  0  0
  7 52  1  0  0  0  0
  8 28  1  0  0  0  0
  8 61  1  0  0  0  0
  9 33  2  0  0  0  0
 10 34  2  0  0  0  0
 11 38  2  0  0  0  0
 12 15  1  0  0  0  0
 12 20  1  0  0  0  0
 12 22  1  0  0  0  0
 13 23  1  0  0  0  0
 13 31  1  0  0  0  0
 13 51  1  0  0  0  0
 14 33  1  0  0  0  0
 14 34  1  0  0  0  0
 14 54  1  0  0  0  0
 15 16  1  0  0  0  0
 15 44  1  0  0  0  0
 16 17  1  0  0  0  0
 16 45  1  0  0  0  0
 17 18  1  0  0  0  0
 17 46  1  0  0  0  0
 18 19  1  0  0  0  0
 18 47  1  0  0  0  0
 19 28  1  0  0  0  0
 19 48  1  0  0  0  0
 20 21  1  0  0  0  0
 20 23  2  0  0  0  0
 21 24  1  0  0  0  0
 21 26  2  0  0  0  0
 22 24  2  0  0  0  0
 22 30  1  0  0  0  0
 23 25  1  0  0  0  0
 24 32  1  0  0  0  0
 25 27  2  0  0  0  0
 25 29  1  0  0  0  0
 26 27  1  0  0  0  0
 26 33  1  0  0  0  0
 27 34  1  0  0  0  0
 28 49  1  0  0  0  0
 28 50  1  0  0  0  0
 29 31  2  0  0  0  0
 29 37  1  0  0  0  0
 30 35  2  0  0  0  0
 31 40  1  0  0  0  0
 32 36  2  0  0  0  0
 32 53  1  0  0  0  0
 35 36  1  0  0  0  0
 35 55  1  0  0  0  0
 36 56  1  0  0  0  0
 37 41  2  0  0  0  0
 37 57  1  0  0  0  0
 38 43  1  0  0  0  0
 39 58  1  0  0  0  0
 39 59  1  0  0  0  0
 39 60  1  0  0  0  0
 40 42  2  0  0  0  0
 41 42  1  0  0  0  0
 41 62  1  0  0  0  0
 42 63  1  0  0  0  0
 43 64  1  0  0  0  0
 43 65  1  0  0  0  0
M  END
> <PUBCHEM_COMPOUND_CID>
44370226

> <PUBCHEM_CONFORMER_RMSD>
1

> <PUBCHEM_CONFORMER_DIVERSEORDER>
1
16
2
3
15
10

> <PUBCHEM_MMFF94_PARTIAL_CHARGES>
51
1 -0.23
10 -0.57
11 -0.57
12 -0.04
13 -0.05
14 -0.49
15 0.54
16 0.28
17 0.28
18 0.28
19 0.28
2 -0.18
20 -0.05
21 -0.01
22 -0.15
23 -0.05
25 -0.01
26 0.09
27 0.09
28 0.28
3 -0.18
30 0.18
31 -0.15
32 -0.15
33 0.54
34 0.54
35 -0.15
36 -0.15
37 -0.15
38 0.66
39 0.28
4 -0.56
40 0.18
41 -0.15
42 -0.15
43 0.29
5 -0.43
51 0.27
52 0.4
53 0.15
54 0.37
55 0.15
56 0.15
57 0.15
6 -0.56
61 0.4
62 0.15
63 0.15
7 -0.68
8 -0.68
9 -0.57

> <PUBCHEM_EFFECTIVE_ROTOR_COUNT>
7.4

> <PUBCHEM_PHARMACOPHORE_FEATURES>
21
1 1 hydrophobe
1 10 acceptor
1 11 acceptor
1 12 cation
1 13 cation
1 13 donor
1 14 donor
1 4 acceptor
1 6 acceptor
1 7 acceptor
1 7 donor
1 8 acceptor
1 8 donor
1 9 acceptor
5 12 20 21 22 24 rings
5 13 23 25 29 31 rings
5 14 26 27 33 34 rings
6 20 21 23 25 26 27 rings
6 22 24 30 32 35 36 rings
6 29 31 37 40 41 42 rings
6 4 15 16 17 18 19 rings

> <PUBCHEM_HEAVY_ATOM_COUNT>
43

> <PUBCHEM_ATOM_DEF_STEREO_COUNT>
0

> <PUBCHEM_ATOM_UDEF_STEREO_COUNT>
5

> <PUBCHEM_BOND_DEF_STEREO_COUNT>
0

> <PUBCHEM_BOND_UDEF_STEREO_COUNT>
0

> <PUBCHEM_ISOTOPIC_ATOM_COUNT>
0

> <PUBCHEM_COMPONENT_COUNT>
1

> <PUBCHEM_CACTVS_TAUTO_COUNT>
21

> <PUBCHEM_CONFORMER_ID>
02A5093200000001

> <PUBCHEM_MMFF94_ENERGY>
194.8427

> <PUBCHEM_FEATURE_SELFOVERLAP>
107.055

> <PUBCHEM_SHAPE_FINGERPRINT>
10190108 129 17907898057334126137
1100329 8 18265619956004076471
11421498 54 17604143731679781544
11578080 2 16984907811216818795
12058002 1 17342140058183039324
12758862 11 18272373088430250602
12758862 65 17390833112326054659
12788726 201 18187081732910187400
13140716 1 18265618860491802565
13617811 41 18334864879160733109
13636023 51 17987510584686703720
14790565 3 18409459089415714069
15297060 5 18268994181001616497
15320467 1 18409733953988746174
15439362 3 17110999349566659412
16112460 7 18052562125118879491
16114785 44 16900384847591213720
18681886 176 18337667620156542289
20600515 1 18195789972218171472
21033648 29 18058997480549891161
23559900 14 18053383481067299997
3882209 13 17406239592922863830
469060 322 18267043698691750129
50150288 127 16519956096481486178
5171179 24 17046224968190735873
5265222 85 18340492283114583910

> <PUBCHEM_SHAPE_MULTIPOLES>
832.7
8.84
6.86
3.26
0.15
0.08
6.51
0.28
-2.01
4.02
-2.48
-4.31
0.34
0.84

> <PUBCHEM_SHAPE_SELFOVERLAP>
1849.212

> <PUBCHEM_SHAPE_VOLUME>
455.1

> <PUBCHEM_COORDINATE_TYPE>
2
5
10

$$$$
