49831029
  -OEChem-10052115183D

 27 29  0     0  0  0  0  0  0999 V2000
   -4.8085    1.8508    0.2265 O   0  0  0  0  0  0  0  0  0  0  0  0
   -3.1955   -1.3937   -0.1458 N   0  0  0  0  0  0  0  0  0  0  0  0
    4.9581    0.6559    0.0563 N   0  0  0  0  0  0  0  0  0  0  0  0
    0.8408   -0.3587   -0.0438 C   0  0  0  0  0  0  0  0  0  0  0  0
   -1.4932    0.3020    0.0395 C   0  0  0  0  0  0  0  0  0  0  0  0
   -0.1280    0.6338    0.0720 C   0  0  0  0  0  0  0  0  0  0  0  0
   -1.8964   -1.0415   -0.1107 C   0  0  0  0  0  0  0  0  0  0  0  0
    2.2448   -0.0131   -0.0094 C   0  0  0  0  0  0  0  0  0  0  0  0
    0.4509   -1.6839   -0.1922 C   0  0  0  0  0  0  0  0  0  0  0  0
   -0.9063   -2.0137   -0.2242 C   0  0  0  0  0  0  0  0  0  0  0  0
   -2.4894    1.2810    0.1535 C   0  0  0  0  0  0  0  0  0  0  0  0
   -3.8288    0.9210    0.1177 C   0  0  0  0  0  0  0  0  0  0  0  0
    3.1750   -0.9179    0.4904 C   0  0  0  0  0  0  0  0  0  0  0  0
    2.6698    1.2257   -0.4765 C   0  0  0  0  0  0  0  0  0  0  0  0
   -4.1259   -0.4184   -0.0323 C   0  0  0  0  0  0  0  0  0  0  0  0
    4.5076   -0.5385    0.5013 C   0  0  0  0  0  0  0  0  0  0  0  0
    4.0251    1.5092   -0.4224 C   0  0  0  0  0  0  0  0  0  0  0  0
    0.1420    1.6775    0.2195 H   0  0  0  0  0  0  0  0  0  0  0  0
    1.1644   -2.4942   -0.3156 H   0  0  0  0  0  0  0  0  0  0  0  0
   -1.1865   -3.0583   -0.3474 H   0  0  0  0  0  0  0  0  0  0  0  0
   -2.2150    2.3275    0.2705 H   0  0  0  0  0  0  0  0  0  0  0  0
    2.9089   -1.8881    0.8955 H   0  0  0  0  0  0  0  0  0  0  0  0
    2.0030    1.9656   -0.9056 H   0  0  0  0  0  0  0  0  0  0  0  0
   -5.1542   -0.7643   -0.0675 H   0  0  0  0  0  0  0  0  0  0  0  0
    5.2720   -1.2049    0.8872 H   0  0  0  0  0  0  0  0  0  0  0  0
    4.4091    2.4586   -0.7809 H   0  0  0  0  0  0  0  0  0  0  0  0
   -4.4002    2.7283    0.3241 H   0  0  0  0  0  0  0  0  0  0  0  0
  1 12  1  0  0  0  0
  1 27  1  0  0  0  0
  2  7  2  0  0  0  0
  2 15  1  0  0  0  0
  3 16  2  0  0  0  0
  3 17  1  0  0  0  0
  4  6  2  0  0  0  0
  4  8  1  0  0  0  0
  4  9  1  0  0  0  0
  5  6  1  0  0  0  0
  5  7  1  0  0  0  0
  5 11  2  0  0  0  0
  6 18  1  0  0  0  0
  7 10  1  0  0  0  0
  8 13  2  0  0  0  0
  8 14  1  0  0  0  0
  9 10  2  0  0  0  0
  9 19  1  0  0  0  0
 10 20  1  0  0  0  0
 11 12  1  0  0  0  0
 11 21  1  0  0  0  0
 12 15  2  0  0  0  0
 13 16  1  0  0  0  0
 13 22  1  0  0  0  0
 14 17  2  0  0  0  0
 14 23  1  0  0  0  0
 15 24  1  0  0  0  0
 16 25  1  0  0  0  0
 17 26  1  0  0  0  0
M  END
> <PUBCHEM_COMPOUND_CID>
49831029

> <PUBCHEM_CONFORMER_RMSD>
0.6

> <PUBCHEM_CONFORMER_DIVERSEORDER>
1

> <PUBCHEM_MMFF94_PARTIAL_CHARGES>
24
1 -0.53
10 -0.15
11 -0.15
12 0.08
13 -0.15
14 -0.15
15 0.16
16 0.16
17 0.16
18 0.15
19 0.15
2 -0.62
20 0.15
21 0.15
22 0.15
23 0.15
24 0.15
25 0.15
26 0.15
27 0.45
3 -0.62
6 -0.15
7 0.31
9 -0.15

> <PUBCHEM_EFFECTIVE_ROTOR_COUNT>
1

> <PUBCHEM_PHARMACOPHORE_FEATURES>
6
1 1 donor
1 2 acceptor
1 3 acceptor
6 2 5 7 11 12 15 rings
6 3 8 13 14 16 17 rings
6 4 5 6 7 9 10 rings

> <PUBCHEM_HEAVY_ATOM_COUNT>
17

> <PUBCHEM_ATOM_DEF_STEREO_COUNT>
0

> <PUBCHEM_ATOM_UDEF_STEREO_COUNT>
0

> <PUBCHEM_BOND_DEF_STEREO_COUNT>
0

> <PUBCHEM_BOND_UDEF_STEREO_COUNT>
0

> <PUBCHEM_ISOTOPIC_ATOM_COUNT>
0

> <PUBCHEM_COMPONENT_COUNT>
1

> <PUBCHEM_CACTVS_TAUTO_COUNT>
3

> <PUBCHEM_CONFORMER_ID>
02F85C7500000001

> <PUBCHEM_MMFF94_ENERGY>
57.8442

> <PUBCHEM_FEATURE_SELFOVERLAP>
30.477

> <PUBCHEM_SHAPE_FINGERPRINT>
10014705 185 18334290959855283133
10062212 137 18411972572664155887
10411042 1 17619346953951582591
10616163 171 18339361984491830150
11132069 177 18413670192815651977
12107183 9 17831010226466901848
12236239 1 18259701207275097698
12251169 10 18334011683743306006
12390115 104 18129681724424862017
12403814 3 17967810544451819029
13167823 11 18335136509803141506
13214271 11 18410012143943287511
13380535 76 18412546491985267215
13583140 156 17095238116706716553
13675066 3 17530969059602591549
14897335 6 18412826867312946695
15196674 1 18410575088963327470
15442244 35 18336542708282224642
15536298 74 18271528589652588574
18186145 218 18113050532833179766
19050596 39 18333730221582958040
19784866 9 18337952290119565931
200 152 18202557393668022175
20279233 1 16343705443516366990
20510252 161 18273501173394005993
20645477 70 16630260125503782598
21267235 1 18408893957486712354
21524375 3 18411981347234790919
23366157 5 18117283553558088734
23402539 116 18273206499945955820
23402655 69 18410575115355682100
23463225 33 18335699425401956150
23559900 14 18201443519817762838
335352 9 18338516327195689222
3545911 37 18411984654665310588
4214541 1 18410011043883039872
4340502 62 17313676949673180529
474 4 17387415855709023980
5104073 3 18335136518529967088
573450 72 18409438202704449162
633830 44 18408885122628331974
6430166 295 18411135827140518604
69090 78 18410570699654632438
7364860 26 18126849291808289030
77779 3 18408886256583652066
9709674 26 18411987983223455726

> <PUBCHEM_SHAPE_MULTIPOLES>
334.02
9.66
1.86
0.67
1.94
0.17
0
-3.48
-0.67
-0.71
0.11
0.18
0
-0.63

> <PUBCHEM_SHAPE_SELFOVERLAP>
751.733

> <PUBCHEM_SHAPE_VOLUME>
175

> <PUBCHEM_COORDINATE_TYPE>
2
5
10

$$$$
