44440493
  -OEChem-10062122003D

 57 59  0     0  0  0  0  0  0999 V2000
   -4.7879    0.5482   -2.1662 S   0  0  0  0  0  0  0  0  0  0  0  0
    1.8944   -4.3769   -0.9492 O   0  5  0  0  0  0  0  0  0  0  0  0
    2.1886   -4.1391    1.2132 O   0  0  0  0  0  0  0  0  0  0  0  0
    1.7675   -1.0873   -0.1800 N   0  0  0  0  0  0  0  0  0  0  0  0
    8.0952    2.5081    0.9619 N   0  0  0  0  0  0  0  0  0  0  0  0
   -0.5349   -0.8170    0.1044 N   0  0  0  0  0  0  0  0  0  0  0  0
    1.5604   -3.8842    0.1563 N   0  3  0  0  0  0  0  0  0  0  0  0
   -1.9318   -2.7393    0.5062 N   0  0  0  0  0  0  0  0  0  0  0  0
   -2.8513   -0.5833    0.3965 N   0  0  0  0  0  0  0  0  0  0  0  0
    3.4593    0.6486   -0.5776 C   0  0  0  0  0  0  0  0  0  0  0  0
    5.8795    2.2995   -0.0773 C   0  0  0  0  0  0  0  0  0  0  0  0
    3.6381    2.0267   -1.2269 C   0  0  0  0  0  0  0  0  0  0  0  0
    4.2246    0.5684    0.7494 C   0  0  0  0  0  0  0  0  0  0  0  0
    5.1137    2.3801   -1.4041 C   0  0  0  0  0  0  0  0  0  0  0  0
    5.7001    0.9215    0.5722 C   0  0  0  0  0  0  0  0  0  0  0  0
    1.9784    0.3399   -0.3658 C   0  0  0  0  0  0  0  0  0  0  0  0
    7.3605    2.6068   -0.2896 C   0  0  0  0  0  0  0  0  0  0  0  0
    0.5276   -1.6469    0.0507 C   0  0  0  0  0  0  0  0  0  0  0  0
    0.4415   -3.0146    0.2129 C   0  0  0  0  0  0  0  0  0  0  0  0
   -1.7168   -1.4213    0.3320 C   0  0  0  0  0  0  0  0  0  0  0  0
   -0.8263   -3.5100    0.4401 C   0  0  0  0  0  0  0  0  0  0  0  0
   -2.7781    0.8346    0.2309 C   0  0  0  0  0  0  0  0  0  0  0  0
   -4.1389    1.4546    0.3877 C   0  0  0  0  0  0  0  0  0  0  0  0
   -5.1036    1.3838   -0.6171 C   0  0  0  0  0  0  0  0  0  0  0  0
   -4.4234    2.1157    1.5825 C   0  0  0  0  0  0  0  0  0  0  0  0
   -6.3531    1.9740   -0.4272 C   0  0  0  0  0  0  0  0  0  0  0  0
   -5.6728    2.7061    1.7726 C   0  0  0  0  0  0  0  0  0  0  0  0
   -6.6377    2.6353    0.7677 C   0  0  0  0  0  0  0  0  0  0  0  0
   -6.0729   -0.7319   -2.1563 C   0  0  0  0  0  0  0  0  0  0  0  0
    3.8855   -0.0962   -1.2648 H   0  0  0  0  0  0  0  0  0  0  0  0
    5.4600    3.0550    0.6024 H   0  0  0  0  0  0  0  0  0  0  0  0
    3.1532    2.7951   -0.6113 H   0  0  0  0  0  0  0  0  0  0  0  0
    3.1454    2.0469   -2.2064 H   0  0  0  0  0  0  0  0  0  0  0  0
    4.1483   -0.4411    1.1705 H   0  0  0  0  0  0  0  0  0  0  0  0
    3.7781    1.2525    1.4825 H   0  0  0  0  0  0  0  0  0  0  0  0
    5.5621    1.6975   -2.1374 H   0  0  0  0  0  0  0  0  0  0  0  0
    5.1947    3.3910   -1.8212 H   0  0  0  0  0  0  0  0  0  0  0  0
    6.1763    0.8860    1.5587 H   0  0  0  0  0  0  0  0  0  0  0  0
    6.1830    0.1511   -0.0430 H   0  0  0  0  0  0  0  0  0  0  0  0
    1.4088    0.6592   -1.2475 H   0  0  0  0  0  0  0  0  0  0  0  0
    1.5905    0.8980    0.4953 H   0  0  0  0  0  0  0  0  0  0  0  0
    7.4794    3.6158   -0.7004 H   0  0  0  0  0  0  0  0  0  0  0  0
    7.7971    1.9073   -1.0116 H   0  0  0  0  0  0  0  0  0  0  0  0
    2.5036   -1.7021   -0.5106 H   0  0  0  0  0  0  0  0  0  0  0  0
    7.7222    3.1771    1.6342 H   0  0  0  0  0  0  0  0  0  0  0  0
    9.0675    2.7710    0.8064 H   0  0  0  0  0  0  0  0  0  0  0  0
   -1.0062   -4.5716    0.5814 H   0  0  0  0  0  0  0  0  0  0  0  0
   -3.7392   -1.0425    0.5662 H   0  0  0  0  0  0  0  0  0  0  0  0
   -2.3509    1.1051   -0.7428 H   0  0  0  0  0  0  0  0  0  0  0  0
   -2.0939    1.2602    0.9771 H   0  0  0  0  0  0  0  0  0  0  0  0
   -3.6853    2.1788    2.3777 H   0  0  0  0  0  0  0  0  0  0  0  0
   -7.1199    1.9416   -1.1972 H   0  0  0  0  0  0  0  0  0  0  0  0
   -5.8946    3.2208    2.7029 H   0  0  0  0  0  0  0  0  0  0  0  0
   -7.6098    3.0967    0.9152 H   0  0  0  0  0  0  0  0  0  0  0  0
   -5.9242   -1.3935   -3.0139 H   0  0  0  0  0  0  0  0  0  0  0  0
   -7.0679   -0.2863   -2.2326 H   0  0  0  0  0  0  0  0  0  0  0  0
   -6.0093   -1.3277   -1.2416 H   0  0  0  0  0  0  0  0  0  0  0  0
  1 24  1  0  0  0  0
  1 29  1  0  0  0  0
  2  7  1  0  0  0  0
  3  7  2  0  0  0  0
  4 16  1  0  0  0  0
  4 18  1  0  0  0  0
  4 44  1  0  0  0  0
  5 17  1  0  0  0  0
  5 45  1  0  0  0  0
  5 46  1  0  0  0  0
  6 18  2  0  0  0  0
  6 20  1  0  0  0  0
  7 19  1  0  0  0  0
  8 20  2  0  0  0  0
  8 21  1  0  0  0  0
  9 20  1  0  0  0  0
  9 22  1  0  0  0  0
  9 48  1  0  0  0  0
 10 12  1  0  0  0  0
 10 13  1  0  0  0  0
 10 16  1  0  0  0  0
 10 30  1  0  0  0  0
 11 14  1  0  0  0  0
 11 15  1  0  0  0  0
 11 17  1  0  0  0  0
 11 31  1  0  0  0  0
 12 14  1  0  0  0  0
 12 32  1  0  0  0  0
 12 33  1  0  0  0  0
 13 15  1  0  0  0  0
 13 34  1  0  0  0  0
 13 35  1  0  0  0  0
 14 36  1  0  0  0  0
 14 37  1  0  0  0  0
 15 38  1  0  0  0  0
 15 39  1  0  0  0  0
 16 40  1  0  0  0  0
 16 41  1  0  0  0  0
 17 42  1  0  0  0  0
 17 43  1  0  0  0  0
 18 19  1  0  0  0  0
 19 21  2  0  0  0  0
 21 47  1  0  0  0  0
 22 23  1  0  0  0  0
 22 49  1  0  0  0  0
 22 50  1  0  0  0  0
 23 24  1  0  0  0  0
 23 25  2  0  0  0  0
 24 26  2  0  0  0  0
 25 27  1  0  0  0  0
 25 51  1  0  0  0  0
 26 28  1  0  0  0  0
 26 52  1  0  0  0  0
 27 28  2  0  0  0  0
 27 53  1  0  0  0  0
 28 54  1  0  0  0  0
 29 55  1  0  0  0  0
 29 56  1  0  0  0  0
 29 57  1  0  0  0  0
M  CHG  2   2  -1   7   1
M  END
> <PUBCHEM_COMPOUND_CID>
44440493

> <PUBCHEM_CONFORMER_RMSD>
1

> <PUBCHEM_CONFORMER_DIVERSEORDER>
1
79
95
90
88
70
19
93
91
101
14
18
77
50
44
85
89
56
81
54
28
16
21
22
74
100
86
12
102
36
61
17
80
96
51
53
25
2
62
48
34
66
42
40
71
55
72
63
31
41
29
10
24
84
23
92
35
45
69
57
43
78
59
67
32
99
58
33
75
15
49
6
98
30
76
73
7
87
94
38
64
13
83
26
82
68
9
27
60
97
20
39
65
8
52
11
3
5
46
37
47
4

> <PUBCHEM_MMFF94_PARTIAL_CHARGES>
32
1 -0.33
16 0.37
17 0.27
18 0.41
19 0.13
2 -0.52
20 0.72
21 0.16
22 0.51
23 -0.14
24 0.1
25 -0.15
26 -0.15
27 -0.15
28 -0.15
29 0.23
3 -0.52
4 -0.87
44 0.4
45 0.36
46 0.36
47 0.15
48 0.4
5 -0.99
51 0.15
52 0.15
53 0.15
54 0.15
6 -0.62
7 0.91
8 -0.62
9 -0.87

> <PUBCHEM_EFFECTIVE_ROTOR_COUNT>
10.2

> <PUBCHEM_PHARMACOPHORE_FEATURES>
12
1 2 acceptor
1 2 anion
1 29 hydrophobe
1 3 acceptor
1 4 donor
1 5 cation
1 5 donor
1 9 donor
4 6 8 9 20 cation
6 10 11 12 13 14 15 rings
6 23 24 25 26 27 28 rings
6 6 8 18 19 20 21 rings

> <PUBCHEM_HEAVY_ATOM_COUNT>
29

> <PUBCHEM_ATOM_DEF_STEREO_COUNT>
0

> <PUBCHEM_ATOM_UDEF_STEREO_COUNT>
0

> <PUBCHEM_BOND_DEF_STEREO_COUNT>
0

> <PUBCHEM_BOND_UDEF_STEREO_COUNT>
0

> <PUBCHEM_ISOTOPIC_ATOM_COUNT>
0

> <PUBCHEM_COMPONENT_COUNT>
1

> <PUBCHEM_CACTVS_TAUTO_COUNT>
6

> <PUBCHEM_CONFORMER_ID>
02A61BAD00000001

> <PUBCHEM_MMFF94_ENERGY>
85.6088

> <PUBCHEM_FEATURE_SELFOVERLAP>
60.976

> <PUBCHEM_SHAPE_FINGERPRINT>
10319926 262 14996286869070574709
10675989 125 18339931416272775602
11135609 187 18335975403575129573
11135609 201 18341338842580048507
11273773 42 18273497862781900597
12107183 9 18261664910222224090
12128747 34 15287019694504767629
12422481 6 17167861963142782300
13540713 4 18265637453443228419
13540713 5 18340472396994705095
13631057 29 18270110345024259663
14251764 75 18408610274844064216
14294032 229 18199474427536448107
14849402 71 18121225285679509954
15064981 113 18057617662556200510
15131766 46 18339916031700889461
15439362 3 18339365158714956206
19309040 13 18129949979607935989
1979834 28 17896336752323089773
20554085 129 18059281120279653256
21033648 144 18261109617974016791
24771293 8 18126269854045358194
2748736 6 18410290328532489784
283562 15 18192152822541170299
3411729 13 18334578992751254354
38570 142 18270133322286617621
393628 194 18411142475693105165
4516262 110 18340200796537899581
5385378 56 18336270037545378616
6058803 2 17681832140576947100
6327066 14 18408038524307461573
7970288 3 9295286110382585689
9896288 288 18043819908087961250
9981440 41 18334866064054761547

> <PUBCHEM_SHAPE_MULTIPOLES>
559.03
19.67
5.26
1.52
10.63
6.54
0.5
-26.92
0.65
2.94
-1.11
-2.19
-0.57
-2.39

> <PUBCHEM_SHAPE_SELFOVERLAP>
1153.255

> <PUBCHEM_SHAPE_VOLUME>
321.9

> <PUBCHEM_COORDINATE_TYPE>
2
5
10

$$$$
