49830413
  -OEChem-10062121553D

 79 85  0     0  0  0  0  0  0999 V2000
    4.5398    2.7100    3.4241 S   0  0  0  0  0  0  0  0  0  0  0  0
   -2.0769    4.3261    0.7643 O   0  0  0  0  0  0  0  0  0  0  0  0
   -0.6183   -4.5805    1.0100 O   0  0  0  0  0  0  0  0  0  0  0  0
   -1.8861    0.1656    2.3724 O   0  0  0  0  0  0  0  0  0  0  0  0
   -1.6277    2.2777   -1.1070 N   0  0  0  0  0  0  0  0  0  0  0  0
    4.2107    1.3847    1.2533 N   0  0  0  0  0  0  0  0  0  0  0  0
    1.6680   -0.2557   -3.6040 N   0  0  0  0  0  0  0  0  0  0  0  0
    2.9108    0.4920    2.8356 N   0  0  0  0  0  0  0  0  0  0  0  0
    2.6415    0.0401   -1.4931 N   0  0  0  0  0  0  0  0  0  0  0  0
   -1.6908   -2.1022    1.7785 N   0  0  0  0  0  0  0  0  0  0  0  0
    3.9623   -0.6758   -3.3774 N   0  0  0  0  0  0  0  0  0  0  0  0
   -2.3480    3.4970   -1.4989 C   0  0  0  0  0  0  0  0  0  0  0  0
   -0.7533    2.4176    0.0626 C   0  0  0  0  0  0  0  0  0  0  0  0
   -3.0270    4.1085   -0.2787 C   0  0  0  0  0  0  0  0  0  0  0  0
   -1.5170    3.0876    1.1996 C   0  0  0  0  0  0  0  0  0  0  0  0
   -1.3171    1.3455   -2.1024 C   0  0  0  0  0  0  0  0  0  0  0  0
    0.0135    1.0118   -2.3553 C   0  0  0  0  0  0  0  0  0  0  0  0
   -2.3384    0.7495   -2.8424 C   0  0  0  0  0  0  0  0  0  0  0  0
    3.5706    0.3507    0.6418 C   0  0  0  0  0  0  0  0  0  0  0  0
    0.3228    0.0821   -3.3480 C   0  0  0  0  0  0  0  0  0  0  0  0
    2.7723   -0.1865    1.6387 C   0  0  0  0  0  0  0  0  0  0  0  0
    1.8977   -1.3103    1.4793 C   0  0  0  0  0  0  0  0  0  0  0  0
   -2.0291   -0.1801   -3.8351 C   0  0  0  0  0  0  0  0  0  0  0  0
    3.7813    1.4183    2.5449 C   0  0  0  0  0  0  0  0  0  0  0  0
    3.7581   -0.0126   -0.7376 C   0  0  0  0  0  0  0  0  0  0  0  0
   -0.6985   -0.5137   -4.0881 C   0  0  0  0  0  0  0  0  0  0  0  0
    0.5287   -1.1669    1.7050 C   0  0  0  0  0  0  0  0  0  0  0  0
    5.1300    2.3462    0.9073 C   0  0  0  0  0  0  0  0  0  0  0  0
   -0.3222   -2.2611    1.5492 C   0  0  0  0  0  0  0  0  0  0  0  0
    2.4158   -2.5479    1.0980 C   0  0  0  0  0  0  0  0  0  0  0  0
    2.8129   -0.2992   -2.7849 C   0  0  0  0  0  0  0  0  0  0  0  0
    0.1960   -3.4987    1.1678 C   0  0  0  0  0  0  0  0  0  0  0  0
    4.9957   -0.3826   -1.2234 C   0  0  0  0  0  0  0  0  0  0  0  0
    1.5651   -3.6421    0.9423 C   0  0  0  0  0  0  0  0  0  0  0  0
    5.4220    3.1439    1.9487 C   0  0  0  0  0  0  0  0  0  0  0  0
    5.0383   -0.7068   -2.5642 C   0  0  0  0  0  0  0  0  0  0  0  0
   -2.3767   -0.9393    2.1634 C   0  0  0  0  0  0  0  0  0  0  0  0
   -3.8672   -1.2060    2.3034 C   0  0  0  0  0  0  0  0  0  0  0  0
   -4.7153   -0.3628    1.3875 C   0  0  0  0  0  0  0  0  0  0  0  0
   -0.6489   -5.1843   -0.2814 C   0  0  0  0  0  0  0  0  0  0  0  0
   -5.1803    0.8809    1.8150 C   0  0  0  0  0  0  0  0  0  0  0  0
   -5.0351   -0.8258    0.1112 C   0  0  0  0  0  0  0  0  0  0  0  0
   -2.0097   -5.8101   -0.5010 C   0  0  0  0  0  0  0  0  0  0  0  0
   -5.9653    1.6615    0.9663 C   0  0  0  0  0  0  0  0  0  0  0  0
   -5.8198   -0.0450   -0.7376 C   0  0  0  0  0  0  0  0  0  0  0  0
   -6.2850    1.1985   -0.3099 C   0  0  0  0  0  0  0  0  0  0  0  0
   -1.6254    4.2084   -1.9174 H   0  0  0  0  0  0  0  0  0  0  0  0
   -3.1081    3.3022   -2.2632 H   0  0  0  0  0  0  0  0  0  0  0  0
   -0.3876    1.4444    0.4022 H   0  0  0  0  0  0  0  0  0  0  0  0
    0.1093    3.0403   -0.2048 H   0  0  0  0  0  0  0  0  0  0  0  0
   -3.8345    3.4693    0.0919 H   0  0  0  0  0  0  0  0  0  0  0  0
   -3.4649    5.0766   -0.5415 H   0  0  0  0  0  0  0  0  0  0  0  0
   -2.3269    2.4541    1.5734 H   0  0  0  0  0  0  0  0  0  0  0  0
   -0.8409    3.2953    2.0349 H   0  0  0  0  0  0  0  0  0  0  0  0
    0.8033    1.5263   -1.8190 H   0  0  0  0  0  0  0  0  0  0  0  0
   -3.3816    0.9875   -2.6524 H   0  0  0  0  0  0  0  0  0  0  0  0
   -2.8245   -0.6466   -4.4089 H   0  0  0  0  0  0  0  0  0  0  0  0
   -0.4709   -1.2409   -4.8633 H   0  0  0  0  0  0  0  0  0  0  0  0
    1.8325   -0.6495   -4.5255 H   0  0  0  0  0  0  0  0  0  0  0  0
    0.1927   -0.1860    2.0086 H   0  0  0  0  0  0  0  0  0  0  0  0
    5.5355    2.4147   -0.0906 H   0  0  0  0  0  0  0  0  0  0  0  0
    3.4810   -2.6849    0.9270 H   0  0  0  0  0  0  0  0  0  0  0  0
    5.8849   -0.4272   -0.6069 H   0  0  0  0  0  0  0  0  0  0  0  0
    1.9852   -4.6021    0.6548 H   0  0  0  0  0  0  0  0  0  0  0  0
    6.1152    3.9728    1.9245 H   0  0  0  0  0  0  0  0  0  0  0  0
   -2.2414   -2.9467    1.6403 H   0  0  0  0  0  0  0  0  0  0  0  0
    5.9668   -1.0109   -3.0354 H   0  0  0  0  0  0  0  0  0  0  0  0
   -4.1346   -1.0071    3.3494 H   0  0  0  0  0  0  0  0  0  0  0  0
   -4.1060   -2.2644    2.1439 H   0  0  0  0  0  0  0  0  0  0  0  0
   -0.4631   -4.4415   -1.0674 H   0  0  0  0  0  0  0  0  0  0  0  0
    0.1275   -5.9552   -0.3327 H   0  0  0  0  0  0  0  0  0  0  0  0
   -4.9351    1.2543    2.8057 H   0  0  0  0  0  0  0  0  0  0  0  0
   -4.6755   -1.7914   -0.2342 H   0  0  0  0  0  0  0  0  0  0  0  0
   -2.0649   -6.2930   -1.4806 H   0  0  0  0  0  0  0  0  0  0  0  0
   -2.7969   -5.0515   -0.4357 H   0  0  0  0  0  0  0  0  0  0  0  0
   -2.2212   -6.5552    0.2730 H   0  0  0  0  0  0  0  0  0  0  0  0
   -6.3256    2.6308    1.2985 H   0  0  0  0  0  0  0  0  0  0  0  0
   -6.0666   -0.4043   -1.7324 H   0  0  0  0  0  0  0  0  0  0  0  0
   -6.8943    1.8072   -0.9714 H   0  0  0  0  0  0  0  0  0  0  0  0
  1 24  1  0  0  0  0
  1 35  1  0  0  0  0
  2 14  1  0  0  0  0
  2 15  1  0  0  0  0
  3 32  1  0  0  0  0
  3 40  1  0  0  0  0
  4 37  2  0  0  0  0
  5 12  1  0  0  0  0
  5 13  1  0  0  0  0
  5 16  1  0  0  0  0
  6 19  1  0  0  0  0
  6 24  1  0  0  0  0
  6 28  1  0  0  0  0
  7 20  1  0  0  0  0
  7 31  1  0  0  0  0
  7 59  1  0  0  0  0
  8 21  1  0  0  0  0
  8 24  2  0  0  0  0
  9 25  2  0  0  0  0
  9 31  1  0  0  0  0
 10 29  1  0  0  0  0
 10 37  1  0  0  0  0
 10 66  1  0  0  0  0
 11 31  2  0  0  0  0
 11 36  1  0  0  0  0
 12 14  1  0  0  0  0
 12 47  1  0  0  0  0
 12 48  1  0  0  0  0
 13 15  1  0  0  0  0
 13 49  1  0  0  0  0
 13 50  1  0  0  0  0
 14 51  1  0  0  0  0
 14 52  1  0  0  0  0
 15 53  1  0  0  0  0
 15 54  1  0  0  0  0
 16 17  1  0  0  0  0
 16 18  2  0  0  0  0
 17 20  2  0  0  0  0
 17 55  1  0  0  0  0
 18 23  1  0  0  0  0
 18 56  1  0  0  0  0
 19 21  2  0  0  0  0
 19 25  1  0  0  0  0
 20 26  1  0  0  0  0
 21 22  1  0  0  0  0
 22 27  2  0  0  0  0
 22 30  1  0  0  0  0
 23 26  2  0  0  0  0
 23 57  1  0  0  0  0
 25 33  1  0  0  0  0
 26 58  1  0  0  0  0
 27 29  1  0  0  0  0
 27 60  1  0  0  0  0
 28 35  2  0  0  0  0
 28 61  1  0  0  0  0
 29 32  2  0  0  0  0
 30 34  2  0  0  0  0
 30 62  1  0  0  0  0
 32 34  1  0  0  0  0
 33 36  2  0  0  0  0
 33 63  1  0  0  0  0
 34 64  1  0  0  0  0
 35 65  1  0  0  0  0
 36 67  1  0  0  0  0
 37 38  1  0  0  0  0
 38 39  1  0  0  0  0
 38 68  1  0  0  0  0
 38 69  1  0  0  0  0
 39 41  2  0  0  0  0
 39 42  1  0  0  0  0
 40 43  1  0  0  0  0
 40 70  1  0  0  0  0
 40 71  1  0  0  0  0
 41 44  1  0  0  0  0
 41 72  1  0  0  0  0
 42 45  2  0  0  0  0
 42 73  1  0  0  0  0
 43 74  1  0  0  0  0
 43 75  1  0  0  0  0
 43 76  1  0  0  0  0
 44 46  2  0  0  0  0
 44 77  1  0  0  0  0
 45 46  1  0  0  0  0
 45 78  1  0  0  0  0
 46 79  1  0  0  0  0
M  END
> <PUBCHEM_COMPOUND_CID>
49830413

> <PUBCHEM_CONFORMER_RMSD>
1.2

> <PUBCHEM_CONFORMER_DIVERSEORDER>
1
264
57
201
160
144
28
147
47
56
207
267
197
68
101
194
29
170
11
158
18
270
162
163
157
84
58
226
211
206
227
261
193
83
224
256
225
258
65
172
150
108
219
230
148
24
257
266
3
159
124
70
190
187
156
253
145
45
102
247
274
36
99
82
142
249
262
221
77
14
35
204
243
61
175
4
167
220
152
195
198
239
66
203
275
118
86
182
164
5
114
232
237
189
121
37
183
109
87
33
165
80
235
141
272
41
138
9
130
192
254
202
222
96
89
149
51
205
63
245
127
173
123
231
79
174
265
30
100
210
125
97
177
151
75
133
181
13
132
60
59
88
186
126
23
43
31
273
2
236
116
184
196
21
238
244
166
214
85
95
27
103
215
271
69
153
92
54
269
260
217
106
137
67
34
263
216
49
12
48
140
136
259
74
93
218
200
209
155
6
39
268
91
223
234
113
119
169
71
16
15
255
135
120
179
10
212
25
134
26
8
40
146
53
44
171
228
90
62
38
176
19
98
129
73
131
128
81
143
191
42
233
76
52
213
107
64
199
20
17
185
251
7
105
72
180
229
139
32
111
22
78
94
168
110
112
208
248
161
50
115
46
55
154
250
117
240
122
188
178
252
242
241
104
246

> <PUBCHEM_MMFF94_PARTIAL_CHARGES>
63
1 -0.16
10 -0.55
11 -0.62
12 0.37
13 0.37
14 0.28
15 0.28
16 0.1
17 -0.15
18 -0.15
19 -0.2
2 -0.56
20 0.1
21 0.17
22 0.05
23 -0.15
24 0.24
25 0.36
26 -0.15
27 -0.15
28 -0.18
29 0.12
3 -0.36
30 -0.15
31 0.72
32 0.08
33 -0.15
34 -0.15
35 -0.05
36 0.16
37 0.57
38 0.2
39 -0.14
4 -0.57
40 0.28
41 -0.15
42 -0.15
44 -0.15
45 -0.15
46 -0.15
5 -0.84
55 0.15
56 0.15
57 0.15
58 0.15
59 0.4
6 0.33
60 0.15
61 0.15
62 0.15
63 0.15
64 0.15
65 0.15
66 0.37
67 0.15
7 -0.6
72 0.15
73 0.15
77 0.15
78 0.15
79 0.15
8 -0.57
9 -0.62

> <PUBCHEM_EFFECTIVE_ROTOR_COUNT>
12.2

> <PUBCHEM_PHARMACOPHORE_FEATURES>
16
1 10 donor
1 2 acceptor
1 3 acceptor
1 4 acceptor
1 5 cation
1 7 donor
1 9 acceptor
3 6 8 24 cation
4 7 9 11 31 cation
5 1 6 24 28 35 rings
5 6 8 19 21 24 rings
6 16 17 18 20 23 26 rings
6 2 5 12 13 14 15 rings
6 22 27 29 30 32 34 rings
6 39 41 42 44 45 46 rings
6 9 11 25 31 33 36 rings

> <PUBCHEM_HEAVY_ATOM_COUNT>
46

> <PUBCHEM_ATOM_DEF_STEREO_COUNT>
0

> <PUBCHEM_ATOM_UDEF_STEREO_COUNT>
0

> <PUBCHEM_BOND_DEF_STEREO_COUNT>
0

> <PUBCHEM_BOND_UDEF_STEREO_COUNT>
0

> <PUBCHEM_ISOTOPIC_ATOM_COUNT>
0

> <PUBCHEM_COMPONENT_COUNT>
1

> <PUBCHEM_CACTVS_TAUTO_COUNT>
6

> <PUBCHEM_CONFORMER_ID>
02F85A0D00000001

> <PUBCHEM_MMFF94_ENERGY>
160.1757

> <PUBCHEM_FEATURE_SELFOVERLAP>
81.454

> <PUBCHEM_SHAPE_FINGERPRINT>
11093857 51 18042711466774367422
11513181 2 17974021557178873511
11578080 2 18266744761364178030
12107698 1 18059580131360380696
12156800 1 17767421431658154471
12422481 6 17385994079288125345
13642711 20 18272081665333642009
15297060 5 18045813158937231987
15406563 42 18409730668560895737
20587220 17 18122886674315436053
20764821 26 17826495953861975244
24941158 1 17982154644072367295
27425 322 17703248251584370939

> <PUBCHEM_SHAPE_MULTIPOLES>
898.03
11.76
5.68
4.56
2.89
5.05
-4
-7.84
3.96
2.07
2.39
-2.31
-0.24
3.15

> <PUBCHEM_SHAPE_SELFOVERLAP>
1967.782

> <PUBCHEM_SHAPE_VOLUME>
487.8

> <PUBCHEM_COORDINATE_TYPE>
2
5
10

$$$$
