9911005
  -OEChem-10062122053D

 54 57  0     0  0  0  0  0  0999 V2000
    2.9238   -1.4150    1.8120 O   0  0  0  0  0  0  0  0  0  0  0  0
   -4.6815    2.9245    0.5565 O   0  0  0  0  0  0  0  0  0  0  0  0
   -7.1987    1.9959   -0.1662 O   0  0  0  0  0  0  0  0  0  0  0  0
    9.2502    1.1379   -1.3938 O   0  5  0  0  0  0  0  0  0  0  0  0
    9.3604    0.7681    0.7673 O   0  0  0  0  0  0  0  0  0  0  0  0
   -1.5843   -1.0874    0.1303 N   0  0  0  0  0  0  0  0  0  0  0  0
    1.0837   -0.4635    0.7920 N   0  0  0  0  0  0  0  0  0  0  0  0
   -3.0680   -2.7995   -0.5920 N   0  0  0  0  0  0  0  0  0  0  0  0
    3.2089   -0.3296   -0.2188 N   0  0  0  0  0  0  0  0  0  0  0  0
   -5.4116   -2.3520   -0.9295 N   0  0  0  0  0  0  0  0  0  0  0  0
    8.7103    0.8276   -0.3044 N   0  3  0  0  0  0  0  0  0  0  0  0
   -0.9399   -1.7658    1.2684 C   0  0  0  0  0  0  0  0  0  0  0  0
   -0.6853   -0.5552   -0.9055 C   0  0  0  0  0  0  0  0  0  0  0  0
    0.1764   -0.8990    1.8517 C   0  0  0  0  0  0  0  0  0  0  0  0
    0.4090    0.2958   -0.2654 C   0  0  0  0  0  0  0  0  0  0  0  0
   -2.8758   -1.4966   -0.2230 C   0  0  0  0  0  0  0  0  0  0  0  0
    2.4557   -0.7757    0.8665 C   0  0  0  0  0  0  0  0  0  0  0  0
   -3.9601   -0.5873   -0.2005 C   0  0  0  0  0  0  0  0  0  0  0  0
   -5.2270   -1.0701   -0.5676 C   0  0  0  0  0  0  0  0  0  0  0  0
   -3.7790    0.7550    0.1763 C   0  0  0  0  0  0  0  0  0  0  0  0
   -6.2947   -0.1761   -0.5456 C   0  0  0  0  0  0  0  0  0  0  0  0
   -4.8637    1.6265    0.1893 C   0  0  0  0  0  0  0  0  0  0  0  0
   -4.3222   -3.1467   -0.9225 C   0  0  0  0  0  0  0  0  0  0  0  0
   -6.1227    1.1602   -0.1720 C   0  0  0  0  0  0  0  0  0  0  0  0
    4.5956   -0.0381   -0.2404 C   0  0  0  0  0  0  0  0  0  0  0  0
    5.2123    0.3079   -1.4403 C   0  0  0  0  0  0  0  0  0  0  0  0
    5.3354   -0.0985    0.9380 C   0  0  0  0  0  0  0  0  0  0  0  0
    6.5771    0.5950   -1.4619 C   0  0  0  0  0  0  0  0  0  0  0  0
    6.7002    0.1885    0.9164 C   0  0  0  0  0  0  0  0  0  0  0  0
    7.3211    0.5352   -0.2836 C   0  0  0  0  0  0  0  0  0  0  0  0
   -4.3621    3.8532   -0.4784 C   0  0  0  0  0  0  0  0  0  0  0  0
   -7.9435    2.0848    1.0467 C   0  0  0  0  0  0  0  0  0  0  0  0
   -1.6734   -1.9751    2.0565 H   0  0  0  0  0  0  0  0  0  0  0  0
   -0.5298   -2.7249    0.9281 H   0  0  0  0  0  0  0  0  0  0  0  0
   -1.2424    0.0601   -1.6218 H   0  0  0  0  0  0  0  0  0  0  0  0
   -0.2406   -1.3915   -1.4590 H   0  0  0  0  0  0  0  0  0  0  0  0
    0.7081   -1.4539    2.6305 H   0  0  0  0  0  0  0  0  0  0  0  0
   -0.2415    0.0025    2.3160 H   0  0  0  0  0  0  0  0  0  0  0  0
   -0.0333    1.1799    0.2113 H   0  0  0  0  0  0  0  0  0  0  0  0
    1.0914    0.6670   -1.0301 H   0  0  0  0  0  0  0  0  0  0  0  0
   -2.8039    1.1377    0.4674 H   0  0  0  0  0  0  0  0  0  0  0  0
    2.7419   -0.2193   -1.1123 H   0  0  0  0  0  0  0  0  0  0  0  0
   -7.2880   -0.5233   -0.8263 H   0  0  0  0  0  0  0  0  0  0  0  0
   -4.4775   -4.1780   -1.2150 H   0  0  0  0  0  0  0  0  0  0  0  0
    4.6432    0.3579   -2.3651 H   0  0  0  0  0  0  0  0  0  0  0  0
    4.9037   -0.3280    1.9042 H   0  0  0  0  0  0  0  0  0  0  0  0
    7.0272    0.8616   -2.4148 H   0  0  0  0  0  0  0  0  0  0  0  0
    7.2472    0.1394    1.8545 H   0  0  0  0  0  0  0  0  0  0  0  0
   -5.1641    3.8922   -1.2222 H   0  0  0  0  0  0  0  0  0  0  0  0
   -4.2540    4.8437   -0.0283 H   0  0  0  0  0  0  0  0  0  0  0  0
   -3.4166    3.5814   -0.9585 H   0  0  0  0  0  0  0  0  0  0  0  0
   -7.3110    2.4512    1.8615 H   0  0  0  0  0  0  0  0  0  0  0  0
   -8.7626    2.7930    0.8947 H   0  0  0  0  0  0  0  0  0  0  0  0
   -8.3673    1.1102    1.3087 H   0  0  0  0  0  0  0  0  0  0  0  0
  1 17  2  0  0  0  0
  2 22  1  0  0  0  0
  2 31  1  0  0  0  0
  3 24  1  0  0  0  0
  3 32  1  0  0  0  0
  4 11  1  0  0  0  0
  5 11  2  0  0  0  0
  6 12  1  0  0  0  0
  6 13  1  0  0  0  0
  6 16  1  0  0  0  0
  7 14  1  0  0  0  0
  7 15  1  0  0  0  0
  7 17  1  0  0  0  0
  8 16  2  0  0  0  0
  8 23  1  0  0  0  0
  9 17  1  0  0  0  0
  9 25  1  0  0  0  0
  9 42  1  0  0  0  0
 10 19  1  0  0  0  0
 10 23  2  0  0  0  0
 11 30  1  0  0  0  0
 12 14  1  0  0  0  0
 12 33  1  0  0  0  0
 12 34  1  0  0  0  0
 13 15  1  0  0  0  0
 13 35  1  0  0  0  0
 13 36  1  0  0  0  0
 14 37  1  0  0  0  0
 14 38  1  0  0  0  0
 15 39  1  0  0  0  0
 15 40  1  0  0  0  0
 16 18  1  0  0  0  0
 18 19  1  0  0  0  0
 18 20  2  0  0  0  0
 19 21  2  0  0  0  0
 20 22  1  0  0  0  0
 20 41  1  0  0  0  0
 21 24  1  0  0  0  0
 21 43  1  0  0  0  0
 22 24  2  0  0  0  0
 23 44  1  0  0  0  0
 25 26  2  0  0  0  0
 25 27  1  0  0  0  0
 26 28  1  0  0  0  0
 26 45  1  0  0  0  0
 27 29  2  0  0  0  0
 27 46  1  0  0  0  0
 28 30  2  0  0  0  0
 28 47  1  0  0  0  0
 29 30  1  0  0  0  0
 29 48  1  0  0  0  0
 31 49  1  0  0  0  0
 31 50  1  0  0  0  0
 31 51  1  0  0  0  0
 32 52  1  0  0  0  0
 32 53  1  0  0  0  0
 32 54  1  0  0  0  0
M  CHG  2   4  -1  11   1
M  END
> <PUBCHEM_COMPOUND_CID>
9911005

> <PUBCHEM_CONFORMER_RMSD>
1

> <PUBCHEM_CONFORMER_DIVERSEORDER>
1
27
29
45
54
50
34
24
14
40
48
44
11
32
4
9
43
31
2
46
39
23
33
16
55
47
8
38
37
51
17
22
20
13
12
5
25
19
52
6
28
21
26
49
10
7
30
3
15
36
42
41
35
53
18

> <PUBCHEM_MMFF94_PARTIAL_CHARGES>
39
1 -0.57
10 -0.62
11 0.91
12 0.37
13 0.37
14 0.3
15 0.3
16 0.41
17 0.69
19 0.31
2 -0.36
20 -0.15
21 -0.15
22 0.08
23 0.47
24 0.08
25 0.12
26 -0.15
27 -0.15
28 -0.15
29 -0.15
3 -0.36
30 0.13
31 0.28
32 0.28
4 -0.52
41 0.15
42 0.37
43 0.15
44 0.15
45 0.15
46 0.15
47 0.15
48 0.15
5 -0.52
6 -0.84
7 -0.66
8 -0.62
9 -0.55

> <PUBCHEM_EFFECTIVE_ROTOR_COUNT>
8.2

> <PUBCHEM_PHARMACOPHORE_FEATURES>
13
1 1 acceptor
1 2 acceptor
1 3 acceptor
1 4 acceptor
1 4 anion
1 5 acceptor
1 9 donor
3 6 8 16 cation
3 8 10 23 cation
6 18 19 20 21 22 24 rings
6 25 26 27 28 29 30 rings
6 6 7 12 13 14 15 rings
6 8 10 16 18 19 23 rings

> <PUBCHEM_HEAVY_ATOM_COUNT>
32

> <PUBCHEM_ATOM_DEF_STEREO_COUNT>
0

> <PUBCHEM_ATOM_UDEF_STEREO_COUNT>
0

> <PUBCHEM_BOND_DEF_STEREO_COUNT>
0

> <PUBCHEM_BOND_UDEF_STEREO_COUNT>
0

> <PUBCHEM_ISOTOPIC_ATOM_COUNT>
0

> <PUBCHEM_COMPONENT_COUNT>
1

> <PUBCHEM_CACTVS_TAUTO_COUNT>
2

> <PUBCHEM_CONFORMER_ID>
00973ADD00000001

> <PUBCHEM_MMFF94_ENERGY>
138.357

> <PUBCHEM_FEATURE_SELFOVERLAP>
66.217

> <PUBCHEM_SHAPE_FINGERPRINT>
10 15 13118005513458630854
10411042 1 17981037833382290711
10454371 7 18342741810226294952
106641 1 17095530591479722945
10670039 82 18410849971777330917
10906281 52 17821738238721971490
11135926 11 16949993738494674922
11181472 205 18260835887350620940
11273773 42 18113618992828832146
11315181 36 18114178670724127127
12082328 90 18413386562077089278
12236239 1 18114177528020194219
13690498 29 18059005224318630751
13726171 33 18123192304215080777
13885169 127 18413670223423924094
14294032 229 18187358784498305924
14856354 85 18339923822391542151
150020 25 17632579362386390896
15183329 4 18201720639370191426
15198563 99 16486987154661096688
15276724 80 17676481757681785012
15328684 2 18115009828299926632
15419008 47 17489866051050751808
15419008 91 17560221627195958480
15604295 49 18200305650217374800
1577012 14 18187359926716591010
16728433 281 18058738996381129032
16989713 51 17559667528922786327
16992828 155 17823689777361899741
17913733 40 14851883629816319824
20505436 4 18261670386253311611
20771845 165 18128826244285801359
21033648 29 17202745082131218763
21095123 145 12901551247704329602
21298829 104 18186522112173319206
21756936 100 18113622292181451859
21792961 116 17275390897952814638
23081809 10 18186793691303215898
23522609 53 18041010522629089620
23559900 14 17846771944900364915
23576562 1 16701155613034668769
255183 313 14418142828493696267
3178227 256 15068342320315233388
335352 9 18342731919870978717
4073 2 18260833695831545770
4098825 35 18339924818976682006
4107672 100 18202001061964240470
44555599 121 18041003977267794292
445580 204 18334014990857620000
445580 37 18413110563130549800
44802255 64 17989204854490097967
44880568 143 18131350855747547608
4516262 110 18041269973139859743
5265222 85 18058445589689493662
54039377 194 11671769499797847781
57527295 17 15984825866698239487
5758199 1 17894348878402276074
5911458 16 18113623378354613716
59567204 34 18412825772703311377
6201320 215 18269548356774780112
636775 72 18335983147206465896
9962374 69 12895348890338851834

> <PUBCHEM_SHAPE_MULTIPOLES>
599.31
27.12
2.87
1.33
45.3
0.81
0.21
15.43
-3.79
-8.06
-0.36
1.34
-0.27
-2.32

> <PUBCHEM_SHAPE_SELFOVERLAP>
1297.104

> <PUBCHEM_SHAPE_VOLUME>
325.1

> <PUBCHEM_COORDINATE_TYPE>
2
5
10

$$$$
