57395117
  -OEChem-10052115173D

 61 66  0     1  0  0  0  0  0999 V2000
    4.2015   -5.1296    0.8367 F   0  0  0  0  0  0  0  0  0  0  0  0
    3.3392    2.8227    0.4554 O   0  0  0  0  0  0  0  0  0  0  0  0
   -2.5660   -0.2350   -0.5592 N   0  0  2  0  0  0  0  0  0  0  0  0
    1.1439    2.0578    0.1349 N   0  0  0  0  0  0  0  0  0  0  0  0
   -5.2044   -2.8700   -0.9013 N   0  0  0  0  0  0  0  0  0  0  0  0
    2.7396   -0.4838    0.8807 N   0  0  0  0  0  0  0  0  0  0  0  0
   -1.1948    1.6242   -0.4139 C   0  0  2  0  0  0  0  0  0  0  0  0
   -2.3453    0.9233    0.3091 C   0  0  0  0  0  0  0  0  0  0  0  0
   -1.5817    1.4705   -1.8949 C   0  0  0  0  0  0  0  0  0  0  0  0
   -2.5537    0.2878   -1.9283 C   0  0  0  0  0  0  0  0  0  0  0  0
    0.1785    0.9636   -0.1162 C   0  0  0  0  0  0  0  0  0  0  0  0
   -3.7946   -0.9469   -0.2430 C   0  0  2  0  0  0  0  0  0  0  0  0
   -0.9346    3.0468   -0.0083 C   0  0  0  0  0  0  0  0  0  0  0  0
   -3.7405   -1.4644    1.1969 C   0  0  0  0  0  0  0  0  0  0  0  0
    0.4206    3.2622    0.2616 C   0  0  0  0  0  0  0  0  0  0  0  0
   -4.0002   -2.1029   -1.2285 C   0  0  0  0  0  0  0  0  0  0  0  0
   -4.9681   -2.3223    1.4974 C   0  0  0  0  0  0  0  0  0  0  0  0
   -5.1376   -3.4336    0.4527 C   0  0  1  0  0  0  0  0  0  0  0  0
   -1.8472    4.0921    0.0682 C   0  0  0  0  0  0  0  0  0  0  0  0
    0.8865    4.5233    0.6077 C   0  0  0  0  0  0  0  0  0  0  0  0
    2.5221    1.9298    0.2477 C   0  0  0  0  0  0  0  0  0  0  0  0
   -1.3884    5.3611    0.4216 C   0  0  0  0  0  0  0  0  0  0  0  0
   -6.4102   -4.2341    0.7234 C   0  0  0  0  0  0  0  0  0  0  0  0
   -0.0303    5.5748    0.6880 C   0  0  0  0  0  0  0  0  0  0  0  0
    3.0734    0.5763    0.0812 C   0  0  0  0  0  0  0  0  0  0  0  0
    3.9797    0.1326   -0.8539 C   0  0  0  0  0  0  0  0  0  0  0  0
    3.4165   -1.6133    0.4788 C   0  0  0  0  0  0  0  0  0  0  0  0
    4.2061   -1.2517   -0.6150 C   0  0  0  0  0  0  0  0  0  0  0  0
    3.3906   -2.9139    0.9945 C   0  0  0  0  0  0  0  0  0  0  0  0
    5.0094   -2.2349   -1.2260 C   0  0  0  0  0  0  0  0  0  0  0  0
    4.1961   -3.8721    0.3726 C   0  0  0  0  0  0  0  0  0  0  0  0
    4.9938   -3.5402   -0.7207 C   0  0  0  0  0  0  0  0  0  0  0  0
   -2.0587    0.6497    1.3299 H   0  0  0  0  0  0  0  0  0  0  0  0
   -3.2374    1.5611    0.3613 H   0  0  0  0  0  0  0  0  0  0  0  0
   -0.7127    1.2952   -2.5391 H   0  0  0  0  0  0  0  0  0  0  0  0
   -2.0910    2.3634   -2.2781 H   0  0  0  0  0  0  0  0  0  0  0  0
   -2.2089   -0.4668   -2.6429 H   0  0  0  0  0  0  0  0  0  0  0  0
   -3.5394    0.6494   -2.2479 H   0  0  0  0  0  0  0  0  0  0  0  0
    0.1401    0.3591    0.7977 H   0  0  0  0  0  0  0  0  0  0  0  0
    0.5403    0.3257   -0.9299 H   0  0  0  0  0  0  0  0  0  0  0  0
   -4.6545   -0.2656   -0.3287 H   0  0  0  0  0  0  0  0  0  0  0  0
   -3.7210   -0.6451    1.9239 H   0  0  0  0  0  0  0  0  0  0  0  0
   -2.8343   -2.0637    1.3561 H   0  0  0  0  0  0  0  0  0  0  0  0
   -4.1279   -1.7385   -2.2534 H   0  0  0  0  0  0  0  0  0  0  0  0
   -3.1312   -2.7737   -1.2392 H   0  0  0  0  0  0  0  0  0  0  0  0
   -4.8682   -2.7604    2.4977 H   0  0  0  0  0  0  0  0  0  0  0  0
   -5.8603   -1.6826    1.5188 H   0  0  0  0  0  0  0  0  0  0  0  0
   -4.2861   -4.1237    0.5117 H   0  0  0  0  0  0  0  0  0  0  0  0
   -2.8982    3.9371   -0.1523 H   0  0  0  0  0  0  0  0  0  0  0  0
   -6.0184   -2.2587   -0.9716 H   0  0  0  0  0  0  0  0  0  0  0  0
    1.9280    4.7225    0.8281 H   0  0  0  0  0  0  0  0  0  0  0  0
   -2.0871    6.1905    0.4855 H   0  0  0  0  0  0  0  0  0  0  0  0
   -7.3039   -3.6016    0.6763 H   0  0  0  0  0  0  0  0  0  0  0  0
   -6.3739   -4.6907    1.7184 H   0  0  0  0  0  0  0  0  0  0  0  0
   -6.5282   -5.0412   -0.0082 H   0  0  0  0  0  0  0  0  0  0  0  0
    0.3132    6.5691    0.9609 H   0  0  0  0  0  0  0  0  0  0  0  0
    2.1020   -0.4452    1.6638 H   0  0  0  0  0  0  0  0  0  0  0  0
    4.4327    0.7361   -1.6292 H   0  0  0  0  0  0  0  0  0  0  0  0
    2.7700   -3.1735    1.8455 H   0  0  0  0  0  0  0  0  0  0  0  0
    5.6360   -1.9899   -2.0788 H   0  0  0  0  0  0  0  0  0  0  0  0
    5.6117   -4.3027   -1.1873 H   0  0  0  0  0  0  0  0  0  0  0  0
  1 31  1  0  0  0  0
  2 21  2  0  0  0  0
  3  8  1  0  0  0  0
  3 10  1  0  0  0  0
  3 12  1  0  0  0  0
  4 11  1  0  0  0  0
  4 15  1  0  0  0  0
  4 21  1  0  0  0  0
  5 16  1  0  0  0  0
  5 18  1  0  0  0  0
  5 50  1  0  0  0  0
  6 25  1  0  0  0  0
  6 27  1  0  0  0  0
  6 57  1  0  0  0  0
  7  8  1  0  0  0  0
  7  9  1  0  0  0  0
  7 11  1  0  0  0  0
  7 13  1  0  0  0  0
  8 33  1  0  0  0  0
  8 34  1  0  0  0  0
  9 10  1  0  0  0  0
  9 35  1  0  0  0  0
  9 36  1  0  0  0  0
 10 37  1  0  0  0  0
 10 38  1  0  0  0  0
 11 39  1  0  0  0  0
 11 40  1  0  0  0  0
 12 14  1  0  0  0  0
 12 16  1  0  0  0  0
 12 41  1  0  0  0  0
 13 15  1  0  0  0  0
 13 19  2  0  0  0  0
 14 17  1  0  0  0  0
 14 42  1  0  0  0  0
 14 43  1  0  0  0  0
 15 20  2  0  0  0  0
 16 44  1  0  0  0  0
 16 45  1  0  0  0  0
 17 18  1  0  0  0  0
 17 46  1  0  0  0  0
 17 47  1  0  0  0  0
 18 23  1  0  0  0  0
 18 48  1  0  0  0  0
 19 22  1  0  0  0  0
 19 49  1  0  0  0  0
 20 24  1  0  0  0  0
 20 51  1  0  0  0  0
 21 25  1  0  0  0  0
 22 24  2  0  0  0  0
 22 52  1  0  0  0  0
 23 53  1  0  0  0  0
 23 54  1  0  0  0  0
 23 55  1  0  0  0  0
 24 56  1  0  0  0  0
 25 26  2  0  0  0  0
 26 28  1  0  0  0  0
 26 58  1  0  0  0  0
 27 28  2  0  0  0  0
 27 29  1  0  0  0  0
 28 30  1  0  0  0  0
 29 31  2  0  0  0  0
 29 59  1  0  0  0  0
 30 32  2  0  0  0  0
 30 60  1  0  0  0  0
 31 32  1  0  0  0  0
 32 61  1  0  0  0  0
M  END
> <PUBCHEM_COMPOUND_CID>
57395117

> <PUBCHEM_CONFORMER_RMSD>
0.8

> <PUBCHEM_CONFORMER_DIVERSEORDER>
1
70
14
30
147
23
135
111
116
152
90
153
68
22
136
53
108
18
73
57
91
129
125
150
21
51
154
13
82
151
103
145
139
128
134
49
66
33
45
133
89
34
143
76
78
146
137
141
119
42
94
105
11
58
148
15
85
104
149
138
44
122
118
63
17
79
126
25
41
112
109
31
71
144
123
60
124
107
9
86
54
87
84
99
59
35
47
48
156
65
155
72
142
19
127
131
121
40
56
10
64
115
96
29
117
88
92
74
95
24
100
77
20
32
98
114
140
52
2
132
38
97
28
46
80
120
113
83
50
36
5
110
106
39
37
43
102
61
130
12
69
93
27
6
8
101
4
62
16
81
75
26
67
55
7
3

> <PUBCHEM_MMFF94_PARTIAL_CHARGES>
37
1 -0.19
10 0.27
11 0.3
12 0.27
13 -0.14
15 0.12
16 0.27
18 0.27
19 -0.15
2 -0.57
20 -0.15
21 0.71
22 -0.15
24 -0.15
25 -0.24
26 -0.15
27 -0.15
29 -0.15
3 -0.81
30 -0.15
31 0.19
32 -0.15
4 -0.48
49 0.15
5 -0.9
50 0.36
51 0.15
52 0.15
56 0.15
57 0.27
58 0.15
59 0.15
6 0.03
60 0.15
61 0.15
7 0.14
8 0.27

> <PUBCHEM_EFFECTIVE_ROTOR_COUNT>
5.4

> <PUBCHEM_PHARMACOPHORE_FEATURES>
12
1 2 acceptor
1 3 cation
1 5 cation
1 5 donor
1 6 cation
1 6 donor
5 3 7 8 9 10 rings
5 4 7 11 13 15 rings
5 6 25 26 27 28 rings
6 13 15 19 20 22 24 rings
6 27 28 29 30 31 32 rings
6 5 12 14 16 17 18 rings

> <PUBCHEM_HEAVY_ATOM_COUNT>
32

> <PUBCHEM_ATOM_DEF_STEREO_COUNT>
2

> <PUBCHEM_ATOM_UDEF_STEREO_COUNT>
1

> <PUBCHEM_BOND_DEF_STEREO_COUNT>
0

> <PUBCHEM_BOND_UDEF_STEREO_COUNT>
0

> <PUBCHEM_ISOTOPIC_ATOM_COUNT>
0

> <PUBCHEM_COMPONENT_COUNT>
1

> <PUBCHEM_CACTVS_TAUTO_COUNT>
5

> <PUBCHEM_CONFORMER_ID>
036BC7AD00000001

> <PUBCHEM_MMFF94_ENERGY>
80.3628

> <PUBCHEM_FEATURE_SELFOVERLAP>
61.089

> <PUBCHEM_SHAPE_FINGERPRINT>
10928967 22 18342455954335827486
10940486 97 17903366909907708508
11014199 57 18338517439555197784
11049842 53 14999887799995685835
11227688 84 18340761628634081132
114674 6 18045496675518691315
11763715 3 18264512665847857101
11991303 11 17898012331156473813
12107183 9 18271263668260110857
12633046 712 18408881863344175877
12788726 201 18120646934220914833
13533116 47 17978235186468260603
1361 2 18122347049538407299
13726171 33 17843426002933479604
13785724 45 18270414866262587399
13911852 28 18411703222839031903
13911987 19 17901123120108420628
13955234 65 17909268332110665753
14863182 85 18049440641366906820
14866123 147 17907857306336138177
14910700 183 17908407406037807840
15250474 111 17974849463580447358
15320294 125 17107343482125983610
15400415 2 17114382001885145393
15927050 60 16680907273112256392
16628084 112 17543059083799364221
16719943 64 17404017024940872584
17859628 70 18122907800515363297
17909252 39 18410575080991065554
19301676 85 18266451006918251951
19311894 1 17976257933263994970
20028762 73 17550381178020129766
20505436 4 16837428169516664589
20775530 9 18260269616243157154
21133410 171 17469267709932712963
21133410 38 17189269721283781443
21133410 58 18125694985753052055
21133665 82 16831780549531292918
21315759 227 18261943064762024566
22033318 11 17912683278357005603
23559900 14 17625806177707445160
23569914 152 17979315787529652463
23845131 108 16756059983770794761
24893989 43 17195743598065494559
3383291 50 17834109745698970449
345986 75 17845663658854662019
3737641 26 18411423942205227732
404807 14 18410299082319573667
44880168 125 17203335451214296446
4616759 239 17696447613490313170
463206 1 17761489189176263818
49967989 163 17836937694523648078
508706 21 17769374924866709526
5309563 4 18411704317486025622
5912855 24 18339091393173049196
613672 6 18195499615153841538
6376802 90 17898545628444959756
6679774 75 17041792801800049327
6697151 62 18271226323371674935
7970288 3 18411139147119310999
86090 222 17460597163373263603
9831232 110 17899697049511834807

> <PUBCHEM_SHAPE_MULTIPOLES>
625.48
12.16
8.75
1.3
4.94
5.5
0.38
-23.85
-0.39
0.14
-2.66
0.74
-0.47
1

> <PUBCHEM_SHAPE_SELFOVERLAP>
1388.154

> <PUBCHEM_SHAPE_VOLUME>
339.1

> <PUBCHEM_COORDINATE_TYPE>
2
5
10

$$$$
