64790
  -OEChem-10062121523D

 17 18  0     0  0  0  0  0  0999 V2000
    4.1367    0.1309   -0.0007 Cl  0  0  0  0  0  0  0  0  0  0  0  0
   -2.0053   -0.7310   -0.0002 S   0  0  0  0  0  0  0  0  0  0  0  0
   -2.4338   -1.2627    1.2750 O   0  0  0  0  0  0  0  0  0  0  0  0
   -2.4327   -1.2660   -1.2743 O   0  0  0  0  0  0  0  0  0  0  0  0
   -0.7265    2.8842    0.0024 O   0  0  0  0  0  0  0  0  0  0  0  0
   -2.1247    0.9780   -0.0025 N   0  0  0  0  0  0  0  0  0  0  0  0
   -0.2638   -0.6485    0.0005 C   0  0  0  0  0  0  0  0  0  0  0  0
    0.1978    0.6682   -0.0011 C   0  0  0  0  0  0  0  0  0  0  0  0
   -0.8789    1.6771   -0.0008 C   0  0  0  0  0  0  0  0  0  0  0  0
    0.5839   -1.7366    0.0014 C   0  0  0  0  0  0  0  0  0  0  0  0
    1.5557    0.9341   -0.0011 C   0  0  0  0  0  0  0  0  0  0  0  0
    1.9549   -1.4751    0.0012 C   0  0  0  0  0  0  0  0  0  0  0  0
    2.4367   -0.1526    0.0000 C   0  0  0  0  0  0  0  0  0  0  0  0
   -3.0293    1.4615    0.0073 H   0  0  0  0  0  0  0  0  0  0  0  0
    0.2109   -2.7540    0.0023 H   0  0  0  0  0  0  0  0  0  0  0  0
    1.9239    1.9553   -0.0019 H   0  0  0  0  0  0  0  0  0  0  0  0
    2.6495   -2.3121    0.0020 H   0  0  0  0  0  0  0  0  0  0  0  0
  1 13  1  0  0  0  0
  2  3  2  0  0  0  0
  2  4  2  0  0  0  0
  2  6  1  0  0  0  0
  2  7  1  0  0  0  0
  5  9  2  0  0  0  0
  6  9  1  0  0  0  0
  6 14  1  0  0  0  0
  7  8  2  0  0  0  0
  7 10  1  0  0  0  0
  8  9  1  0  0  0  0
  8 11  1  0  0  0  0
 10 12  2  0  0  0  0
 10 15  1  0  0  0  0
 11 13  2  0  0  0  0
 11 16  1  0  0  0  0
 12 13  1  0  0  0  0
 12 17  1  0  0  0  0
M  END
> <PUBCHEM_COMPOUND_CID>
64790

> <PUBCHEM_CONFORMER_RMSD>
0.4

> <PUBCHEM_CONFORMER_DIVERSEORDER>
1

> <PUBCHEM_MMFF94_PARTIAL_CHARGES>
17
1 -0.18
10 -0.15
11 -0.15
12 -0.15
13 0.18
14 0.42
15 0.15
16 0.15
17 0.15
2 1.45
3 -0.65
4 -0.65
5 -0.57
6 -0.79
7 -0.01
8 0.09
9 0.72

> <PUBCHEM_EFFECTIVE_ROTOR_COUNT>
0.2

> <PUBCHEM_PHARMACOPHORE_FEATURES>
6
1 3 acceptor
1 4 acceptor
1 5 acceptor
1 6 donor
5 2 6 7 8 9 rings
6 7 8 10 11 12 13 rings

> <PUBCHEM_HEAVY_ATOM_COUNT>
13

> <PUBCHEM_ATOM_DEF_STEREO_COUNT>
0

> <PUBCHEM_ATOM_UDEF_STEREO_COUNT>
0

> <PUBCHEM_BOND_DEF_STEREO_COUNT>
0

> <PUBCHEM_BOND_UDEF_STEREO_COUNT>
0

> <PUBCHEM_ISOTOPIC_ATOM_COUNT>
0

> <PUBCHEM_COMPONENT_COUNT>
1

> <PUBCHEM_CACTVS_TAUTO_COUNT>
2

> <PUBCHEM_CONFORMER_ID>
0000FD1600000001

> <PUBCHEM_MMFF94_ENERGY>
21.6535

> <PUBCHEM_FEATURE_SELFOVERLAP>
30.529

> <PUBCHEM_SHAPE_FINGERPRINT>
1 1 17038663565800724517
108231 29 18117847813502272850
11132069 177 18130502011543513426
11206711 2 18410011026956365732
12032990 46 18337680822770309786
12423570 1 16382538282996577565
12932764 1 17989484113363617410
13024252 1 18040154002627400877
13380535 21 18124329215715442544
13380535 76 18121775036986953116
14325111 11 18410855422148650372
14614273 12 18115582634839112764
15775835 57 18273217465139783162
16945 1 18338516344027177478
17844478 74 18337123314323960530
193761 8 18050567339799549414
20201158 50 18261107495574473859
20510252 161 18342459244765332008
20525323 117 18409727318438346754
20871998 184 18271249330720285893
21040471 1 17906171746230626432
21061003 4 18266186195701849985
21501502 16 18266172825648135290
21524375 3 17617375078578023381
22802520 49 18055090769475685134
2334 1 18266459991182479304
23402539 116 18341602755166460014
23402655 69 18268695127166543981
23552423 10 18261676961151382822
23559900 14 17767689357221640246
241688 4 18341604970947455097
2748010 2 18338790242597526316
3312278 4 18261112971620606210
5084963 1 17988921218975641722
528886 8 18410851062118743043
81228 2 18336544906809978385

> <PUBCHEM_SHAPE_MULTIPOLES>
250.66
4.6
2.19
0.79
3.42
1.07
0
-0.71
0
-0.87
0
-0.44
-0.25
0

> <PUBCHEM_SHAPE_SELFOVERLAP>
524.61

> <PUBCHEM_SHAPE_VOLUME>
143.9

> <PUBCHEM_COORDINATE_TYPE>
2
5
10

$$$$
