49830690
  -OEChem-10052115193D

 41 43  0     0  0  0  0  0  0999 V2000
    7.1008   -0.6615    0.1216 F   0  0  0  0  0  0  0  0  0  0  0  0
    5.5263   -1.6920    1.2110 F   0  0  0  0  0  0  0  0  0  0  0  0
    5.5738   -1.7730   -0.9558 F   0  0  0  0  0  0  0  0  0  0  0  0
    1.1289   -1.1926    0.0132 O   0  0  0  0  0  0  0  0  0  0  0  0
   -0.7059    0.2598   -0.0790 N   0  0  0  0  0  0  0  0  0  0  0  0
   -3.9134   -2.4230   -0.0461 N   0  0  0  0  0  0  0  0  0  0  0  0
    1.4310    1.1250   -0.0666 N   0  0  0  0  0  0  0  0  0  0  0  0
    3.5899    0.1318    0.0155 N   0  0  0  0  0  0  0  0  0  0  0  0
   -3.1211   -0.1483   -0.1146 C   0  0  0  0  0  0  0  0  0  0  0  0
   -5.7676    0.7265   -0.2027 C   0  0  0  0  0  0  0  0  0  0  0  0
   -4.1613   -1.1008   -0.1007 C   0  0  0  0  0  0  0  0  0  0  0  0
   -1.7999   -0.6134   -0.0694 C   0  0  0  0  0  0  0  0  0  0  0  0
   -5.4737   -0.6381   -0.1453 C   0  0  0  0  0  0  0  0  0  0  0  0
   -7.1873    1.1812   -0.2494 C   0  0  0  0  0  0  0  0  0  0  0  0
   -3.4164    1.2244   -0.1724 C   0  0  0  0  0  0  0  0  0  0  0  0
   -4.7380    1.6591   -0.2165 C   0  0  0  0  0  0  0  0  0  0  0  0
   -1.5411   -1.9754   -0.0133 C   0  0  0  0  0  0  0  0  0  0  0  0
   -7.7693    1.4114    1.1429 C   0  0  0  0  0  0  0  0  0  0  0  0
   -2.6241   -2.8307   -0.0042 C   0  0  0  0  0  0  0  0  0  0  0  0
    0.6713   -0.0555   -0.0386 C   0  0  0  0  0  0  0  0  0  0  0  0
    2.8397    1.2549   -0.0420 C   0  0  0  0  0  0  0  0  0  0  0  0
    4.9305    0.3057    0.0375 C   0  0  0  0  0  0  0  0  0  0  0  0
    3.3639    2.5370   -0.0782 C   0  0  0  0  0  0  0  0  0  0  0  0
    5.5526    1.5432    0.0048 C   0  0  0  0  0  0  0  0  0  0  0  0
    4.7472    2.6752   -0.0541 C   0  0  0  0  0  0  0  0  0  0  0  0
    5.7633   -0.9309    0.1022 C   0  0  0  0  0  0  0  0  0  0  0  0
   -6.2896   -1.3596   -0.1332 H   0  0  0  0  0  0  0  0  0  0  0  0
   -7.7999    0.4434   -0.7826 H   0  0  0  0  0  0  0  0  0  0  0  0
   -7.2650    2.1068   -0.8335 H   0  0  0  0  0  0  0  0  0  0  0  0
   -2.6534    1.9956   -0.1850 H   0  0  0  0  0  0  0  0  0  0  0  0
   -4.9501    2.7239   -0.2593 H   0  0  0  0  0  0  0  0  0  0  0  0
   -0.5726   -2.4452    0.0245 H   0  0  0  0  0  0  0  0  0  0  0  0
   -0.9055    1.2520   -0.1200 H   0  0  0  0  0  0  0  0  0  0  0  0
   -7.7476    0.4922    1.7381 H   0  0  0  0  0  0  0  0  0  0  0  0
   -8.8096    1.7433    1.0672 H   0  0  0  0  0  0  0  0  0  0  0  0
   -7.2060    2.1778    1.6860 H   0  0  0  0  0  0  0  0  0  0  0  0
   -2.4848   -3.9061    0.0387 H   0  0  0  0  0  0  0  0  0  0  0  0
    0.9122    1.9985   -0.1098 H   0  0  0  0  0  0  0  0  0  0  0  0
    2.7309    3.4172   -0.1240 H   0  0  0  0  0  0  0  0  0  0  0  0
    6.6315    1.6504    0.0238 H   0  0  0  0  0  0  0  0  0  0  0  0
    5.1968    3.6633   -0.0811 H   0  0  0  0  0  0  0  0  0  0  0  0
  1 26  1  0  0  0  0
  2 26  1  0  0  0  0
  3 26  1  0  0  0  0
  4 20  2  0  0  0  0
  5 12  1  0  0  0  0
  5 20  1  0  0  0  0
  5 33  1  0  0  0  0
  6 11  2  0  0  0  0
  6 19  1  0  0  0  0
  7 20  1  0  0  0  0
  7 21  1  0  0  0  0
  7 38  1  0  0  0  0
  8 21  1  0  0  0  0
  8 22  2  0  0  0  0
  9 11  1  0  0  0  0
  9 12  2  0  0  0  0
  9 15  1  0  0  0  0
 10 13  2  0  0  0  0
 10 14  1  0  0  0  0
 10 16  1  0  0  0  0
 11 13  1  0  0  0  0
 12 17  1  0  0  0  0
 13 27  1  0  0  0  0
 14 18  1  0  0  0  0
 14 28  1  0  0  0  0
 14 29  1  0  0  0  0
 15 16  2  0  0  0  0
 15 30  1  0  0  0  0
 16 31  1  0  0  0  0
 17 19  2  0  0  0  0
 17 32  1  0  0  0  0
 18 34  1  0  0  0  0
 18 35  1  0  0  0  0
 18 36  1  0  0  0  0
 19 37  1  0  0  0  0
 21 23  2  0  0  0  0
 22 24  1  0  0  0  0
 22 26  1  0  0  0  0
 23 25  1  0  0  0  0
 23 39  1  0  0  0  0
 24 25  2  0  0  0  0
 24 40  1  0  0  0  0
 25 41  1  0  0  0  0
M  END
> <PUBCHEM_COMPOUND_CID>
49830690

> <PUBCHEM_CONFORMER_RMSD>
0.8

> <PUBCHEM_CONFORMER_DIVERSEORDER>
1
14
30
36
18
39
25
17
31
28
20
32
26
8
33
34
23
21
4
27
29
38
10
24
11
9
5
22
12
3
35
41
7
2
13
15
40
37
42
6
16
19

> <PUBCHEM_MMFF94_PARTIAL_CHARGES>
34
1 -0.34
10 -0.14
11 0.31
12 0.12
13 -0.15
14 0.14
15 -0.15
16 -0.15
17 -0.15
19 0.16
2 -0.34
20 0.69
21 0.43
22 0.17
23 -0.15
24 -0.15
25 -0.15
26 1.16
27 0.15
3 -0.34
30 0.15
31 0.15
32 0.15
33 0.37
37 0.15
38 0.37
39 0.15
4 -0.57
40 0.15
41 0.15
5 -0.55
6 -0.62
7 -0.55
8 -0.62

> <PUBCHEM_EFFECTIVE_ROTOR_COUNT>
6

> <PUBCHEM_PHARMACOPHORE_FEATURES>
9
1 18 hydrophobe
1 4 acceptor
1 5 donor
1 6 acceptor
1 7 donor
1 8 acceptor
6 6 9 11 12 17 19 rings
6 8 21 22 23 24 25 rings
6 9 10 11 13 15 16 rings

> <PUBCHEM_HEAVY_ATOM_COUNT>
26

> <PUBCHEM_ATOM_DEF_STEREO_COUNT>
0

> <PUBCHEM_ATOM_UDEF_STEREO_COUNT>
0

> <PUBCHEM_BOND_DEF_STEREO_COUNT>
0

> <PUBCHEM_BOND_UDEF_STEREO_COUNT>
0

> <PUBCHEM_ISOTOPIC_ATOM_COUNT>
0

> <PUBCHEM_COMPONENT_COUNT>
1

> <PUBCHEM_CACTVS_TAUTO_COUNT>
46

> <PUBCHEM_CONFORMER_ID>
02F85B2200000001

> <PUBCHEM_MMFF94_ENERGY>
71.5152

> <PUBCHEM_FEATURE_SELFOVERLAP>
45.756

> <PUBCHEM_SHAPE_FINGERPRINT>
10 15 18187372039109791841
10411042 1 17689998260734892415
10595046 47 18193274328458202292
10835480 77 18270956968134076272
11315181 36 17489591190286155403
11405975 8 18409164450300235808
11719270 70 17775284945805099214
11796584 16 18343022220488816550
12107183 9 18336821992535438346
12236239 1 18333730247384403721
13073987 5 18264768938040636562
13167372 99 18342178851667023841
13167823 11 18337387257603033674
13785724 45 18124033430436125218
14341114 176 18335986444928439836
14933364 13 18335703857555192980
15183329 4 18413393120333543504
15196674 1 18337952397762643364
1577012 14 18411980299326158837
17844677 252 18337678610877729700
1813 80 16732977661242981356
18335252 114 18411972551680203005
19611394 137 17969236684733141913
20281389 69 18334011688096821821
21033648 29 17916855958294698344
21065198 57 18266176321635365708
21236236 1 18340485681807865567
21279426 13 18411138034822300294
21859007 373 17823407202830797869
23559900 14 18342451564746400792
23569943 247 17314493856104808658
249057 3 18410292506043414052
2838139 119 18411412900456590573
3004659 81 18408322194861390088
3103668 31 18043246830243174220
335352 9 18410573985193773045
3545911 37 18409166597979250901
4073 2 18041845150706696706
4093350 32 16916791708824867495
4214541 1 18410009970093756180
5104073 3 18336262448137531802
559249 180 18410852170283927079
59755656 215 18410012091818286606
59755656 520 18335134298475291367
6299153 45 18340209574870284353
9965369 4 18410290298535680001
9995097 60 18412825793845474886
9996256 80 18411135883344650951

> <PUBCHEM_SHAPE_MULTIPOLES>
487.45
20.62
2.74
0.72
1.48
0.43
-0.08
-5.35
-1.93
0.55
-0.02
-0.16
0.01
-0.53

> <PUBCHEM_SHAPE_SELFOVERLAP>
1063.597

> <PUBCHEM_SHAPE_VOLUME>
264.3

> <PUBCHEM_COORDINATE_TYPE>
2
5
10

$$$$
