19022684
  -OEChem-10062121553D

 31 34  0     0  0  0  0  0  0999 V2000
    3.4209   -3.0172   -0.0460 S   0  0  0  0  0  0  0  0  0  0  0  0
   -5.4302   -0.4058   -0.1299 F   0  0  0  0  0  0  0  0  0  0  0  0
    2.2200   -0.7520    0.0170 N   0  0  0  0  0  0  0  0  0  0  0  0
    0.6823   -2.3698   -0.0782 N   0  0  0  0  0  0  0  0  0  0  0  0
    0.6053    4.1133    0.1733 N   0  0  0  0  0  0  0  0  0  0  0  0
    1.0240   -0.1021    0.0174 C   0  0  0  0  0  0  0  0  0  0  0  0
    0.0880   -1.1218   -0.0420 C   0  0  0  0  0  0  0  0  0  0  0  0
    1.9547   -2.0862   -0.0407 C   0  0  0  0  0  0  0  0  0  0  0  0
    0.8821    1.3336    0.0704 C   0  0  0  0  0  0  0  0  0  0  0  0
   -1.3358   -0.9363   -0.0645 C   0  0  0  0  0  0  0  0  0  0  0  0
    3.5512   -0.4121    0.0582 C   0  0  0  0  0  0  0  0  0  0  0  0
    4.3375   -1.5017    0.0323 C   0  0  0  0  0  0  0  0  0  0  0  0
   -1.9284   -0.2072   -1.0954 C   0  0  0  0  0  0  0  0  0  0  0  0
   -2.1264   -1.4863    0.9446 C   0  0  0  0  0  0  0  0  0  0  0  0
    0.1933    1.9279    1.1219 C   0  0  0  0  0  0  0  0  0  0  0  0
    1.4326    2.1273   -0.9298 C   0  0  0  0  0  0  0  0  0  0  0  0
   -3.3115   -0.0278   -1.1173 C   0  0  0  0  0  0  0  0  0  0  0  0
   -3.5095   -1.3070    0.9227 C   0  0  0  0  0  0  0  0  0  0  0  0
   -4.1020   -0.5779   -0.1083 C   0  0  0  0  0  0  0  0  0  0  0  0
    0.0840    3.3093    1.1271 C   0  0  0  0  0  0  0  0  0  0  0  0
    1.2679    3.4997   -0.8328 C   0  0  0  0  0  0  0  0  0  0  0  0
    3.8762    0.6158    0.1087 H   0  0  0  0  0  0  0  0  0  0  0  0
    5.4179   -1.4920    0.0572 H   0  0  0  0  0  0  0  0  0  0  0  0
   -1.3324    0.2226   -1.8970 H   0  0  0  0  0  0  0  0  0  0  0  0
   -1.6806   -2.0560    1.7564 H   0  0  0  0  0  0  0  0  0  0  0  0
   -0.2465    1.3460    1.9253 H   0  0  0  0  0  0  0  0  0  0  0  0
    1.9715    1.7038   -1.7713 H   0  0  0  0  0  0  0  0  0  0  0  0
   -3.7735    0.5383   -1.9207 H   0  0  0  0  0  0  0  0  0  0  0  0
   -4.1254   -1.7346    1.7082 H   0  0  0  0  0  0  0  0  0  0  0  0
   -0.4419    3.8218    1.9258 H   0  0  0  0  0  0  0  0  0  0  0  0
    1.6766    4.1629   -1.5881 H   0  0  0  0  0  0  0  0  0  0  0  0
  1  8  1  0  0  0  0
  1 12  1  0  0  0  0
  2 19  1  0  0  0  0
  3  6  1  0  0  0  0
  3  8  1  0  0  0  0
  3 11  1  0  0  0  0
  4  7  1  0  0  0  0
  4  8  2  0  0  0  0
  5 20  2  0  0  0  0
  5 21  1  0  0  0  0
  6  7  2  0  0  0  0
  6  9  1  0  0  0  0
  7 10  1  0  0  0  0
  9 15  2  0  0  0  0
  9 16  1  0  0  0  0
 10 13  2  0  0  0  0
 10 14  1  0  0  0  0
 11 12  2  0  0  0  0
 11 22  1  0  0  0  0
 12 23  1  0  0  0  0
 13 17  1  0  0  0  0
 13 24  1  0  0  0  0
 14 18  2  0  0  0  0
 14 25  1  0  0  0  0
 15 20  1  0  0  0  0
 15 26  1  0  0  0  0
 16 21  2  0  0  0  0
 16 27  1  0  0  0  0
 17 19  2  0  0  0  0
 17 28  1  0  0  0  0
 18 19  1  0  0  0  0
 18 29  1  0  0  0  0
 20 30  1  0  0  0  0
 21 31  1  0  0  0  0
M  END
> <PUBCHEM_COMPOUND_CID>
19022684

> <PUBCHEM_CONFORMER_RMSD>
0.6

> <PUBCHEM_CONFORMER_DIVERSEORDER>
1
2

> <PUBCHEM_MMFF94_PARTIAL_CHARGES>
31
1 -0.16
10 0.05
11 -0.18
12 -0.05
13 -0.15
14 -0.15
15 -0.15
16 -0.15
17 -0.15
18 -0.15
19 0.19
2 -0.19
20 0.16
21 0.16
22 0.15
23 0.15
24 0.15
25 0.15
26 0.15
27 0.15
28 0.15
29 0.15
3 0.33
30 0.15
31 0.15
4 -0.57
5 -0.62
6 -0.2
7 0.17
8 0.24
9 0.05

> <PUBCHEM_EFFECTIVE_ROTOR_COUNT>
2

> <PUBCHEM_PHARMACOPHORE_FEATURES>
6
1 5 acceptor
3 3 4 8 cation
5 1 3 8 11 12 rings
5 3 4 6 7 8 rings
6 10 13 14 17 18 19 rings
6 5 9 15 16 20 21 rings

> <PUBCHEM_HEAVY_ATOM_COUNT>
21

> <PUBCHEM_ATOM_DEF_STEREO_COUNT>
0

> <PUBCHEM_ATOM_UDEF_STEREO_COUNT>
0

> <PUBCHEM_BOND_DEF_STEREO_COUNT>
0

> <PUBCHEM_BOND_UDEF_STEREO_COUNT>
0

> <PUBCHEM_ISOTOPIC_ATOM_COUNT>
0

> <PUBCHEM_COMPONENT_COUNT>
1

> <PUBCHEM_CACTVS_TAUTO_COUNT>
1

> <PUBCHEM_CONFORMER_ID>
0122435C00000001

> <PUBCHEM_MMFF94_ENERGY>
59.8403

> <PUBCHEM_FEATURE_SELFOVERLAP>
30.7

> <PUBCHEM_SHAPE_FINGERPRINT>
10165383 225 17543373982016535921
104564 63 18126849300492454368
10670039 82 18264786389748158350
1100329 8 18122911099593578576
11045515 52 18335699386599414749
11578080 2 16841029825288961466
12035759 4 18118715195549501996
12236239 1 17346595266482989855
12403259 226 18261108599824297543
12730499 353 17977395150794212715
12788726 201 18191300469148415290
13004483 165 18267293232096939450
13132413 78 18342177730490557980
13134695 92 18342730832178596925
13140716 1 17978787144914361488
13294875 104 17769937097330881392
13681431 1 18410290337148174552
138480 1 18410575114728259261
13878862 14 18336530695812826469
13911987 19 18262535761743639758
14170010 4 18340480149494122003
14178000 15 18411983550484318556
14178342 30 17687168804582793130
14790565 3 18122072154763050848
14866123 147 17039224320942000867
14955137 171 18269568272221327758
15230672 131 17614564070815044380
15238133 3 18265634099589948813
15490181 7 17475523145088277926
17357779 13 18270104709077354292
17980427 23 13901321794731435587
1813 80 18130239159255231566
18785283 64 18117281573603902425
20671657 1 18197779006238330541
21029758 11 18410290276939738459
21041028 32 18412548678260621445
21478907 32 18049441444129918210
21524375 3 17478620464900861356
21641784 216 18190480276613360004
221357 26 18335972079069560445
23175994 123 18408889507847781303
23419403 2 17772440483385796944
23557571 272 18267869372216654462
23558518 356 17758686546721634490
23559900 14 18337101363421623147
238 59 18050824892045617031
2748010 2 18339624669181123988
283562 15 18193556662708486202
3091708 16 9068519581232248552
350125 39 17689437504522542738
458136 41 17831597722364277425
6438718 38 17629193806585252717
68521 5 18267587897134136542
7164475 11 18122065304363469374
7364860 26 18265895933058599148
7471813 234 18131340926104600501
7495541 125 18113906000140391803
81228 2 18121783820500944304
84936 182 17911519006400248345
9925002 15 17903663799174021348
9981440 41 17476064100551191433

> <PUBCHEM_SHAPE_MULTIPOLES>
413.8
6.98
4.32
1.02
4.42
5.12
-0.02
-6.17
0.41
-2.86
-0.37
0.47
0.39
0.03

> <PUBCHEM_SHAPE_SELFOVERLAP>
923.513

> <PUBCHEM_SHAPE_VOLUME>
224.1

> <PUBCHEM_COORDINATE_TYPE>
2
5
10

$$$$
