45139989
  -OEChem-10062122033D

 50 53  0     0  0  0  0  0  0999 V2000
    6.3416    1.9314   -1.5602 O   0  0  0  0  0  0  0  0  0  0  0  0
   -6.5886    0.5871   -0.1238 O   0  0  0  0  0  0  0  0  0  0  0  0
    5.1589    0.4014   -0.2728 N   0  0  0  0  0  0  0  0  0  0  0  0
    2.0947   -1.3582    0.5661 N   0  0  0  0  0  0  0  0  0  0  0  0
   -2.2218    1.4482    0.1994 N   0  0  0  0  0  0  0  0  0  0  0  0
   -0.0856   -0.6088    0.3079 N   0  0  0  0  0  0  0  0  0  0  0  0
    0.5059   -2.9155   -0.0993 N   0  0  0  0  0  0  0  0  0  0  0  0
   -3.3974    2.1088    0.1888 N   0  0  0  0  0  0  0  0  0  0  0  0
   -6.0721    2.8095    0.1050 N   0  0  0  0  0  0  0  0  0  0  0  0
    2.5596   -0.0420    0.9565 C   0  0  0  0  0  0  0  0  0  0  0  0
    2.7342    0.8506   -0.2779 C   0  0  0  0  0  0  0  0  0  0  0  0
    3.8662   -0.1622    1.7487 C   0  0  0  0  0  0  0  0  0  0  0  0
    3.9607    0.4746   -1.1096 C   0  0  0  0  0  0  0  0  0  0  0  0
    5.0580   -0.5239    0.8613 C   0  0  0  0  0  0  0  0  0  0  0  0
   -4.2578   -1.5125   -0.1939 C   0  0  0  0  0  0  0  0  0  0  0  0
   -3.2073   -2.4813   -0.8011 C   0  0  0  0  0  0  0  0  0  0  0  0
   -2.3601    0.1029    0.0487 C   0  0  0  0  0  0  0  0  0  0  0  0
   -3.7125   -0.1357   -0.0570 C   0  0  0  0  0  0  0  0  0  0  0  0
   -1.3534   -0.9319   -0.0098 C   0  0  0  0  0  0  0  0  0  0  0  0
   -1.7799   -2.2111   -0.3748 C   0  0  0  0  0  0  0  0  0  0  0  0
    0.7796   -1.6393    0.2446 C   0  0  0  0  0  0  0  0  0  0  0  0
    6.2826    1.1595   -0.5997 C   0  0  0  0  0  0  0  0  0  0  0  0
   -4.3035    1.1351    0.0358 C   0  0  0  0  0  0  0  0  0  0  0  0
   -0.7843   -3.1677   -0.4118 C   0  0  0  0  0  0  0  0  0  0  0  0
    7.4851    1.0066    0.2972 C   0  0  0  0  0  0  0  0  0  0  0  0
   -1.0029    2.2108    0.3388 C   0  0  0  0  0  0  0  0  0  0  0  0
   -5.6998    1.4635   -0.0068 C   0  0  0  0  0  0  0  0  0  0  0  0
    1.8228    0.4165    1.6288 H   0  0  0  0  0  0  0  0  0  0  0  0
    1.8466    0.8347   -0.9192 H   0  0  0  0  0  0  0  0  0  0  0  0
    2.8559    1.8868    0.0647 H   0  0  0  0  0  0  0  0  0  0  0  0
    3.7658   -0.9049    2.5491 H   0  0  0  0  0  0  0  0  0  0  0  0
    4.0718    0.8030    2.2299 H   0  0  0  0  0  0  0  0  0  0  0  0
    3.8255   -0.5085   -1.5756 H   0  0  0  0  0  0  0  0  0  0  0  0
    4.0930    1.2011   -1.9177 H   0  0  0  0  0  0  0  0  0  0  0  0
    5.9658   -0.5262    1.4673 H   0  0  0  0  0  0  0  0  0  0  0  0
    4.9491   -1.5333    0.4485 H   0  0  0  0  0  0  0  0  0  0  0  0
    2.7576   -2.1200    0.4833 H   0  0  0  0  0  0  0  0  0  0  0  0
   -5.1615   -1.5292   -0.8117 H   0  0  0  0  0  0  0  0  0  0  0  0
   -4.5371   -1.8708    0.8051 H   0  0  0  0  0  0  0  0  0  0  0  0
   -3.4896   -3.5104   -0.5490 H   0  0  0  0  0  0  0  0  0  0  0  0
   -3.2402   -2.3940   -1.8952 H   0  0  0  0  0  0  0  0  0  0  0  0
   -0.9926   -4.1908   -0.7070 H   0  0  0  0  0  0  0  0  0  0  0  0
    8.2983    1.6382   -0.0738 H   0  0  0  0  0  0  0  0  0  0  0  0
    7.2413    1.3269    1.3135 H   0  0  0  0  0  0  0  0  0  0  0  0
    7.8313   -0.0304    0.2932 H   0  0  0  0  0  0  0  0  0  0  0  0
   -0.5063    1.9078    1.2635 H   0  0  0  0  0  0  0  0  0  0  0  0
   -1.2429    3.2766    0.3870 H   0  0  0  0  0  0  0  0  0  0  0  0
   -0.3719    2.0211   -0.5324 H   0  0  0  0  0  0  0  0  0  0  0  0
   -7.0487    3.0836    0.0857 H   0  0  0  0  0  0  0  0  0  0  0  0
   -5.3859    3.5503    0.2086 H   0  0  0  0  0  0  0  0  0  0  0  0
  1 22  2  0  0  0  0
  2 27  2  0  0  0  0
  3 13  1  0  0  0  0
  3 14  1  0  0  0  0
  3 22  1  0  0  0  0
  4 10  1  0  0  0  0
  4 21  1  0  0  0  0
  4 37  1  0  0  0  0
  5  8  1  0  0  0  0
  5 17  1  0  0  0  0
  5 26  1  0  0  0  0
  6 19  2  0  0  0  0
  6 21  1  0  0  0  0
  7 21  2  0  0  0  0
  7 24  1  0  0  0  0
  8 23  2  0  0  0  0
  9 27  1  0  0  0  0
  9 49  1  0  0  0  0
  9 50  1  0  0  0  0
 10 11  1  0  0  0  0
 10 12  1  0  0  0  0
 10 28  1  0  0  0  0
 11 13  1  0  0  0  0
 11 29  1  0  0  0  0
 11 30  1  0  0  0  0
 12 14  1  0  0  0  0
 12 31  1  0  0  0  0
 12 32  1  0  0  0  0
 13 33  1  0  0  0  0
 13 34  1  0  0  0  0
 14 35  1  0  0  0  0
 14 36  1  0  0  0  0
 15 16  1  0  0  0  0
 15 18  1  0  0  0  0
 15 38  1  0  0  0  0
 15 39  1  0  0  0  0
 16 20  1  0  0  0  0
 16 40  1  0  0  0  0
 16 41  1  0  0  0  0
 17 18  2  0  0  0  0
 17 19  1  0  0  0  0
 18 23  1  0  0  0  0
 19 20  1  0  0  0  0
 20 24  2  0  0  0  0
 22 25  1  0  0  0  0
 23 27  1  0  0  0  0
 24 42  1  0  0  0  0
 25 43  1  0  0  0  0
 25 44  1  0  0  0  0
 25 45  1  0  0  0  0
 26 46  1  0  0  0  0
 26 47  1  0  0  0  0
 26 48  1  0  0  0  0
M  END
> <PUBCHEM_COMPOUND_CID>
45139989

> <PUBCHEM_CONFORMER_RMSD>
0.8

> <PUBCHEM_CONFORMER_DIVERSEORDER>
1
19
61
53
36
42
46
72
58
32
62
28
47
16
31
3
73
49
23
71
40
57
60
68
43
11
44
25
29
10
30
41
64
52
51
63
70
24
34
69
54
27
5
7
8
50
15
14
35
66
59
65
33
26
21
56
55
37
48
20
67
9
22
18
38
39
12
17
45
2
4
13
6

> <PUBCHEM_MMFF94_PARTIAL_CHARGES>
29
1 -0.57
10 0.37
13 0.3
14 0.3
15 0.18
16 0.14
17 -0.2
18 -0.18
19 0.36
2 -0.57
20 -0.14
21 0.72
22 0.57
23 0.2
24 0.16
25 0.06
26 0.26
27 0.72
3 -0.66
37 0.4
4 -0.87
42 0.15
49 0.37
5 0.31
50 0.37
6 -0.62
7 -0.62
8 -0.71
9 -0.8

> <PUBCHEM_EFFECTIVE_ROTOR_COUNT>
5.6

> <PUBCHEM_PHARMACOPHORE_FEATURES>
11
1 1 acceptor
1 2 acceptor
1 4 donor
1 6 acceptor
1 8 acceptor
1 9 donor
4 4 6 7 21 cation
5 5 8 17 18 23 rings
6 15 16 17 18 19 20 rings
6 3 10 11 12 13 14 rings
6 6 7 19 20 21 24 rings

> <PUBCHEM_HEAVY_ATOM_COUNT>
27

> <PUBCHEM_ATOM_DEF_STEREO_COUNT>
0

> <PUBCHEM_ATOM_UDEF_STEREO_COUNT>
0

> <PUBCHEM_BOND_DEF_STEREO_COUNT>
0

> <PUBCHEM_BOND_UDEF_STEREO_COUNT>
0

> <PUBCHEM_ISOTOPIC_ATOM_COUNT>
0

> <PUBCHEM_COMPONENT_COUNT>
1

> <PUBCHEM_CACTVS_TAUTO_COUNT>
12

> <PUBCHEM_CONFORMER_ID>
02B0C81500000001

> <PUBCHEM_MMFF94_ENERGY>
62.1156

> <PUBCHEM_FEATURE_SELFOVERLAP>
55.932

> <PUBCHEM_SHAPE_FINGERPRINT>
10 15 18260552217154914411
10411042 1 17835518607064019495
10670039 82 18411414046627146558
10730089 173 18411702105994203248
10906281 52 18339368453323851737
12107183 9 18191296092866988450
12236239 1 18113334232745257602
12390115 104 18202008720217840355
12403259 415 17917142909597258946
12596602 18 17530965799870172578
12838862 33 18338499890034496421
13540713 5 18266438971892750667
14117953 113 18265046934099392101
14257110 125 18409167701221252581
14294032 229 18272934947325250815
14341114 328 17967809431838920851
14394314 77 18335142002824428132
14767858 380 18270382955040453663
14790565 3 18270401569207804673
14840074 17 17967818240600937413
15183329 4 18342464716849111486
15297060 5 18272939318710038226
15575132 122 18186799141052452661
1577012 14 18260263067040081266
17980427 23 17967256412087368735
18608769 82 18341335595405755395
19319366 153 17894624843020322994
19427546 20 18338231670001906479
19611394 137 17969519258804924395
20511986 3 18041550434351502796
20642791 178 18188221986925125125
21033648 29 17559940169499174634
23559900 14 18059570343151083848
25147074 1 18335685144636275362
335352 9 18341326773764274181
3472631 163 18409735084092795684
350125 39 18410008853571122761
38570 142 17822305582759005566
474 4 18113900429319726811
5486654 2 18343299250126578321
59682541 52 16773519850425215604
59755656 215 18200877271034026534
6299153 45 18334571297156329626
6327066 14 18337668625300514373
7808743 9 18410011039498278378
8863177 126 11022380365917017917
9981440 41 18334863835019800635

> <PUBCHEM_SHAPE_MULTIPOLES>
509.04
16.58
3.05
0.98
14.14
1.08
-0.05
-11.85
1.77
-3.59
0.42
1.48
-0.06
-1.51

> <PUBCHEM_SHAPE_SELFOVERLAP>
1101.619

> <PUBCHEM_SHAPE_VOLUME>
275.4

> <PUBCHEM_COORDINATE_TYPE>
2
5
10

$$$$
