445840
  -OEChem-10052115143D

 39 42  0     1  0  0  0  0  0999 V2000
   -5.5785   -0.4474    0.0752 O   0  0  0  0  0  0  0  0  0  0  0  0
    1.9756   -1.8015   -0.1708 O   0  0  0  0  0  0  0  0  0  0  0  0
   -3.8688    1.1481    0.3690 N   0  0  0  0  0  0  0  0  0  0  0  0
    0.3279   -0.1568    0.0954 N   0  0  0  0  0  0  0  0  0  0  0  0
    2.5592    0.4455    0.1113 N   0  0  0  0  0  0  0  0  0  0  0  0
    4.5649   -0.7879   -0.1104 N   0  0  0  0  0  0  0  0  0  0  0  0
   -2.4160    1.1587    0.4082 C   0  0  2  0  0  0  0  0  0  0  0  0
   -2.0792    2.2120   -0.6358 C   0  0  0  0  0  0  0  0  0  0  0  0
   -3.1950    3.2464   -0.4132 C   0  0  0  0  0  0  0  0  0  0  0  0
   -4.4313    2.4040   -0.0845 C   0  0  0  0  0  0  0  0  0  0  0  0
   -2.0902   -0.2704    0.1610 C   0  0  0  0  0  0  0  0  0  0  0  0
   -3.2674   -1.0286    0.1135 C   0  0  0  0  0  0  0  0  0  0  0  0
   -4.4166   -0.1138    0.2111 C   0  0  0  0  0  0  0  0  0  0  0  0
   -0.8593   -0.8841    0.0328 C   0  0  0  0  0  0  0  0  0  0  0  0
   -3.2652   -2.3965   -0.0745 C   0  0  0  0  0  0  0  0  0  0  0  0
   -0.8312   -2.2704   -0.1525 C   0  0  0  0  0  0  0  0  0  0  0  0
   -2.0225   -3.0190   -0.2042 C   0  0  0  0  0  0  0  0  0  0  0  0
    1.6609   -0.6273   -0.0056 C   0  0  0  0  0  0  0  0  0  0  0  0
    3.9729    0.4065    0.0654 C   0  0  0  0  0  0  0  0  0  0  0  0
    4.6346    1.6077    0.2071 C   0  0  0  0  0  0  0  0  0  0  0  0
    6.0242    1.5802    0.1643 C   0  0  0  0  0  0  0  0  0  0  0  0
    5.9162   -0.7753   -0.1468 C   0  0  0  0  0  0  0  0  0  0  0  0
    6.6848    0.3699   -0.0158 C   0  0  0  0  0  0  0  0  0  0  0  0
   -2.1136    1.4706    1.4151 H   0  0  0  0  0  0  0  0  0  0  0  0
   -2.1467    1.8055   -1.6528 H   0  0  0  0  0  0  0  0  0  0  0  0
   -1.0811    2.6390   -0.5047 H   0  0  0  0  0  0  0  0  0  0  0  0
   -2.9408    3.8810    0.4445 H   0  0  0  0  0  0  0  0  0  0  0  0
   -3.3497    3.8956   -1.2796 H   0  0  0  0  0  0  0  0  0  0  0  0
   -5.0419    2.8442    0.7083 H   0  0  0  0  0  0  0  0  0  0  0  0
   -5.0524    2.2207   -0.9669 H   0  0  0  0  0  0  0  0  0  0  0  0
   -4.1833   -2.9695   -0.1285 H   0  0  0  0  0  0  0  0  0  0  0  0
    0.0771   -2.8466   -0.2651 H   0  0  0  0  0  0  0  0  0  0  0  0
   -1.9731   -4.0947   -0.3528 H   0  0  0  0  0  0  0  0  0  0  0  0
    0.2243    0.8435    0.2412 H   0  0  0  0  0  0  0  0  0  0  0  0
    2.1487    1.3663    0.2454 H   0  0  0  0  0  0  0  0  0  0  0  0
    4.1123    2.5479    0.3474 H   0  0  0  0  0  0  0  0  0  0  0  0
    6.5913    2.5000    0.2711 H   0  0  0  0  0  0  0  0  0  0  0  0
    6.3831   -1.7443   -0.2891 H   0  0  0  0  0  0  0  0  0  0  0  0
    7.7672    0.3247   -0.0523 H   0  0  0  0  0  0  0  0  0  0  0  0
  1 13  2  0  0  0  0
  2 18  2  0  0  0  0
  3  7  1  0  0  0  0
  3 10  1  0  0  0  0
  3 13  1  0  0  0  0
  4 14  1  0  0  0  0
  4 18  1  0  0  0  0
  4 34  1  0  0  0  0
  5 18  1  0  0  0  0
  5 19  1  0  0  0  0
  5 35  1  0  0  0  0
  6 19  1  0  0  0  0
  6 22  2  0  0  0  0
  7  8  1  0  0  0  0
  7 11  1  0  0  0  0
  7 24  1  0  0  0  0
  8  9  1  0  0  0  0
  8 25  1  0  0  0  0
  8 26  1  0  0  0  0
  9 10  1  0  0  0  0
  9 27  1  0  0  0  0
  9 28  1  0  0  0  0
 10 29  1  0  0  0  0
 10 30  1  0  0  0  0
 11 12  2  0  0  0  0
 11 14  1  0  0  0  0
 12 13  1  0  0  0  0
 12 15  1  0  0  0  0
 14 16  2  0  0  0  0
 15 17  2  0  0  0  0
 15 31  1  0  0  0  0
 16 17  1  0  0  0  0
 16 32  1  0  0  0  0
 17 33  1  0  0  0  0
 19 20  2  0  0  0  0
 20 21  1  0  0  0  0
 20 36  1  0  0  0  0
 21 23  2  0  0  0  0
 21 37  1  0  0  0  0
 22 23  1  0  0  0  0
 22 38  1  0  0  0  0
 23 39  1  0  0  0  0
M  END
> <PUBCHEM_COMPOUND_CID>
445840

> <PUBCHEM_CONFORMER_RMSD>
0.8

> <PUBCHEM_CONFORMER_DIVERSEORDER>
1
6
3
7
4
10
11
12
2
5
8
9

> <PUBCHEM_MMFF94_PARTIAL_CHARGES>
30
1 -0.57
10 0.3
11 -0.14
12 0.09
13 0.54
14 0.12
15 -0.15
16 -0.15
17 -0.15
18 0.69
19 0.43
2 -0.57
20 -0.15
21 -0.15
22 0.16
23 -0.15
3 -0.66
31 0.15
32 0.15
33 0.15
34 0.37
35 0.37
36 0.15
37 0.15
38 0.15
39 0.15
4 -0.55
5 -0.55
6 -0.62
7 0.44

> <PUBCHEM_EFFECTIVE_ROTOR_COUNT>
4.6

> <PUBCHEM_PHARMACOPHORE_FEATURES>
9
1 1 acceptor
1 2 acceptor
1 4 donor
1 5 donor
1 6 acceptor
5 3 7 11 12 13 rings
5 3 7 8 9 10 rings
6 11 12 14 15 16 17 rings
6 6 19 20 21 22 23 rings

> <PUBCHEM_HEAVY_ATOM_COUNT>
23

> <PUBCHEM_ATOM_DEF_STEREO_COUNT>
1

> <PUBCHEM_ATOM_UDEF_STEREO_COUNT>
0

> <PUBCHEM_BOND_DEF_STEREO_COUNT>
0

> <PUBCHEM_BOND_UDEF_STEREO_COUNT>
0

> <PUBCHEM_ISOTOPIC_ATOM_COUNT>
0

> <PUBCHEM_COMPONENT_COUNT>
1

> <PUBCHEM_CACTVS_TAUTO_COUNT>
5

> <PUBCHEM_CONFORMER_ID>
0006CD9000000001

> <PUBCHEM_MMFF94_ENERGY>
75.9441

> <PUBCHEM_FEATURE_SELFOVERLAP>
46.106

> <PUBCHEM_SHAPE_FINGERPRINT>
100830 39 18410292498055203856
10165383 225 18272376330814327761
10319926 262 18340472431849497818
10411042 1 17978229684563101803
10595046 47 18335701710878374082
11578080 2 13612868132147331401
11595378 159 17677035893982571200
12107183 9 18046616803680682218
12236239 1 17894629266446344434
12390115 104 18271538481104657121
12596602 18 16878226475803468024
13073987 5 18335135423809490042
13402501 40 18342457040935698256
14251764 75 17981895146702091617
14341114 176 18410298029740615220
14508225 48 17982717860862263927
15042514 8 18265057014973386163
15183329 4 18410857647121298290
15196674 1 18410856551551268272
17844677 252 18338523036187754288
20281389 69 18408884040750058976
20645477 56 18413674607989447227
20645477 70 16988575559169992174
21033648 29 18272076202351701336
21236236 1 18413106169320899269
21279426 13 18270122288985275350
21315764 268 18410851088416450660
23227448 37 18412544335795399964
23402539 116 18340201998384703503
23557571 272 18343869913414060364
23559900 14 18271800297815399264
245318 6 16665725105139750660
283562 15 18411418372513509163
3004659 81 18410859846471666298
34797466 226 17846508058141674836
350125 39 18411983593576546377
3545911 37 18342460348318582698
4073 2 18115030818343165250
4214541 1 18412263952283480304
5104073 3 18189623748096038235
5283173 99 18412825781261227464
5969126 39 18128246977873344399
59755656 215 18342183237471984198
6327066 14 18190454970534695909
7808743 9 18410007723862842352
9981440 41 18260838064124113091
9995097 60 18343585123334474974

> <PUBCHEM_SHAPE_MULTIPOLES>
441.67
14.76
3.15
0.65
22.94
0.4
-0.01
4.84
0.4
-3.98
-0.43
-0.09
0.08
0.39

> <PUBCHEM_SHAPE_SELFOVERLAP>
977.553

> <PUBCHEM_SHAPE_VOLUME>
237.6

> <PUBCHEM_COORDINATE_TYPE>
2
5
10

$$$$
