135993697
  -OEChem-10052115183D

 23 25  0     0  0  0  0  0  0999 V2000
   -0.0917    1.9731    0.0001 S   0  0  0  0  0  0  0  0  0  0  0  0
   -3.2465    1.8735   -0.0002 O   0  0  0  0  0  0  0  0  0  0  0  0
    2.5146    0.8781   -0.0002 N   0  0  0  0  0  0  0  0  0  0  0  0
    3.0185   -0.3895   -0.0004 N   0  0  0  0  0  0  0  0  0  0  0  0
   -1.2773   -1.8033    0.0004 N   0  0  0  0  0  0  0  0  0  0  0  0
   -3.2648   -0.4405   -0.0003 N   0  0  0  0  0  0  0  0  0  0  0  0
    0.7849   -0.3997    0.0001 C   0  0  0  0  0  0  0  0  0  0  0  0
    1.1648    0.8834    0.0002 C   0  0  0  0  0  0  0  0  0  0  0  0
   -0.5840   -0.5831    0.0004 C   0  0  0  0  0  0  0  0  0  0  0  0
    1.9237   -1.1773   -0.0001 C   0  0  0  0  0  0  0  0  0  0  0  0
   -1.2091    0.6547    0.0002 C   0  0  0  0  0  0  0  0  0  0  0  0
    2.0644   -2.6408   -0.0002 C   0  0  0  0  0  0  0  0  0  0  0  0
   -2.6394    0.8070   -0.0002 C   0  0  0  0  0  0  0  0  0  0  0  0
    3.4088    2.0092    0.0002 C   0  0  0  0  0  0  0  0  0  0  0  0
   -2.5671   -1.6449    0.0000 C   0  0  0  0  0  0  0  0  0  0  0  0
    1.5835   -3.0733   -0.8835 H   0  0  0  0  0  0  0  0  0  0  0  0
    3.1151   -2.9493   -0.0075 H   0  0  0  0  0  0  0  0  0  0  0  0
    1.5959   -3.0720    0.8903 H   0  0  0  0  0  0  0  0  0  0  0  0
    4.0225    1.9603    0.9031 H   0  0  0  0  0  0  0  0  0  0  0  0
    4.0364    1.9503   -0.8926 H   0  0  0  0  0  0  0  0  0  0  0  0
    2.8356    2.9387   -0.0098 H   0  0  0  0  0  0  0  0  0  0  0  0
   -4.2804   -0.4672   -0.0006 H   0  0  0  0  0  0  0  0  0  0  0  0
   -3.2390   -2.5175   -0.0001 H   0  0  0  0  0  0  0  0  0  0  0  0
  1  8  1  0  0  0  0
  1 11  1  0  0  0  0
  2 13  2  0  0  0  0
  3  4  1  0  0  0  0
  3  8  1  0  0  0  0
  3 14  1  0  0  0  0
  4 10  2  0  0  0  0
  5  9  1  0  0  0  0
  5 15  2  0  0  0  0
  6 13  1  0  0  0  0
  6 15  1  0  0  0  0
  6 22  1  0  0  0  0
  7  8  2  0  0  0  0
  7  9  1  0  0  0  0
  7 10  1  0  0  0  0
  9 11  2  0  0  0  0
 10 12  1  0  0  0  0
 11 13  1  0  0  0  0
 12 16  1  0  0  0  0
 12 17  1  0  0  0  0
 12 18  1  0  0  0  0
 14 19  1  0  0  0  0
 14 20  1  0  0  0  0
 14 21  1  0  0  0  0
 15 23  1  0  0  0  0
M  END
> <PUBCHEM_COMPOUND_CID>
135993697

> <PUBCHEM_CONFORMER_RMSD>
0.4

> <PUBCHEM_CONFORMER_DIVERSEORDER>
1

> <PUBCHEM_MMFF94_PARTIAL_CHARGES>
16
1 -0.08
10 0.11
11 -0.05
12 0.18
13 0.71
14 0.26
15 0.45
2 -0.57
22 0.37
23 0.06
3 0.31
4 -0.71
5 -0.57
6 -0.49
8 -0.11
9 0.12

> <PUBCHEM_EFFECTIVE_ROTOR_COUNT>
0

> <PUBCHEM_PHARMACOPHORE_FEATURES>
6
1 2 acceptor
1 4 acceptor
1 6 donor
5 1 7 8 9 11 rings
5 3 4 7 8 10 rings
6 5 6 9 11 13 15 rings

> <PUBCHEM_HEAVY_ATOM_COUNT>
15

> <PUBCHEM_ATOM_DEF_STEREO_COUNT>
0

> <PUBCHEM_ATOM_UDEF_STEREO_COUNT>
0

> <PUBCHEM_BOND_DEF_STEREO_COUNT>
0

> <PUBCHEM_BOND_UDEF_STEREO_COUNT>
0

> <PUBCHEM_ISOTOPIC_ATOM_COUNT>
0

> <PUBCHEM_COMPONENT_COUNT>
1

> <PUBCHEM_CACTVS_TAUTO_COUNT>
-1

> <PUBCHEM_CONFORMER_ID>
081B196100000001

> <PUBCHEM_MMFF94_ENERGY>
36.7019

> <PUBCHEM_FEATURE_SELFOVERLAP>
30.762

> <PUBCHEM_SHAPE_FINGERPRINT>
10411042 1 16681473985830880203
10608611 8 18410571790449893941
10967382 1 18410575093295224517
10980938 120 18410013247269808632
11132069 177 18337383950277807808
12382932 28 18411979161090974376
13140716 1 18337674105240882251
13380535 21 18410022030319595332
13380535 76 18335979878171221202
13897977 150 18410852135897516173
14144814 61 18410293618508398577
14325111 11 18410856551261085409
14614273 12 18188196706230227493
14648413 74 18410295765960586466
15219456 202 18411420613431460964
15442244 35 18195526995623185634
15536298 74 18342739620087710340
16945 1 18410855473029024356
17990270 104 18339642248350741950
18186145 218 18198063582023478717
193761 8 18338797801966391780
19591789 44 14803767257359792869
20510252 161 18199191874021383689
20645477 70 18341891870716150895
21267235 1 18410583885093701674
21501502 16 18411416206774007211
2334 1 18410855473145153355
23366157 5 18040999519043877778
23402655 69 18342164575786166725
23463225 33 18338234860318263351
23552423 10 18335141985701710566
23559900 14 18270396084676628362
2748010 2 18410858745883826823
3312278 4 18413111675247550144
335352 9 18122626046054406046
5104073 3 18410012147599854729
528886 8 18339075020614778952
53812653 166 18199465635426780152
63268167 104 18412266107972162153
7364860 26 18341613677284163134
74978 22 18339928091082059975
8809292 202 18334299738457355762
9709674 26 18411703175077758247

> <PUBCHEM_SHAPE_MULTIPOLES>
286.75
5.29
2.6
0.59
0.53
0.5
0
-0.96
0
-0.75
0
-0.02
-0.01
0

> <PUBCHEM_SHAPE_SELFOVERLAP>
633.817

> <PUBCHEM_SHAPE_VOLUME>
157.2

> <PUBCHEM_COORDINATE_TYPE>
2
5
10

$$$$
