9912410
  -OEChem-10062122043D

 56 63  0     1  0  0  0  0  0999 V2000
   -0.8193    1.9563    1.6470 O   0  0  0  0  0  0  0  0  0  0  0  0
   -3.1814    3.1829    0.3291 O   0  0  0  0  0  0  0  0  0  0  0  0
   -4.4404    1.4902   -0.9629 O   0  0  0  0  0  0  0  0  0  0  0  0
   -2.5679    0.8911   -2.1761 O   0  0  0  0  0  0  0  0  0  0  0  0
    4.8687   -2.0959   -0.4531 O   0  0  0  0  0  0  0  0  0  0  0  0
   -1.3611   -0.0780    0.6244 N   0  0  0  0  0  0  0  0  0  0  0  0
    1.0062    1.7072    0.3158 N   0  0  0  0  0  0  0  0  0  0  0  0
    3.2880   -3.8224   -0.3948 N   0  0  0  0  0  0  0  0  0  0  0  0
   -1.9014    1.2144    1.0559 C   0  0  2  0  0  0  0  0  0  0  0  0
   -2.3511    2.1143   -0.1117 C   0  0  2  0  0  0  0  0  0  0  0  0
   -0.1096    2.5706    0.5810 C   0  0  1  0  0  0  0  0  0  0  0  0
   -1.0498    2.7192   -0.6102 C   0  0  0  0  0  0  0  0  0  0  0  0
   -0.0703   -0.5016    0.3801 C   0  0  0  0  0  0  0  0  0  0  0  0
    1.0677    0.3469    0.2544 C   0  0  0  0  0  0  0  0  0  0  0  0
    0.2170   -1.9038    0.1886 C   0  0  0  0  0  0  0  0  0  0  0  0
    2.3311   -0.3175    0.0135 C   0  0  0  0  0  0  0  0  0  0  0  0
   -2.9082    1.0979    2.2120 C   0  0  0  0  0  0  0  0  0  0  0  0
   -2.0706   -1.2786    0.4463 C   0  0  0  0  0  0  0  0  0  0  0  0
    2.3280    2.0746    0.0999 C   0  0  0  0  0  0  0  0  0  0  0  0
   -1.1639   -2.3672    0.2549 C   0  0  0  0  0  0  0  0  0  0  0  0
    1.4431   -2.5323   -0.0176 C   0  0  0  0  0  0  0  0  0  0  0  0
    2.5427   -1.6888   -0.0968 C   0  0  0  0  0  0  0  0  0  0  0  0
    3.1398    0.9088   -0.0682 C   0  0  0  0  0  0  0  0  0  0  0  0
   -3.1016    1.4239   -1.2125 C   0  0  0  0  0  0  0  0  0  0  0  0
    1.8570   -3.9531   -0.2122 C   0  0  0  0  0  0  0  0  0  0  0  0
   -3.4605   -1.5227    0.4343 C   0  0  0  0  0  0  0  0  0  0  0  0
    3.7301   -2.5046   -0.3354 C   0  0  0  0  0  0  0  0  0  0  0  0
    2.8872    3.3665    0.0370 C   0  0  0  0  0  0  0  0  0  0  0  0
   -1.6981   -3.6740    0.1174 C   0  0  0  0  0  0  0  0  0  0  0  0
    4.5249    1.1128   -0.2931 C   0  0  0  0  0  0  0  0  0  0  0  0
   -3.9443   -2.8250    0.2861 C   0  0  0  0  0  0  0  0  0  0  0  0
   -3.0751   -3.8917    0.1407 C   0  0  0  0  0  0  0  0  0  0  0  0
    4.2561    3.5119   -0.1857 C   0  0  0  0  0  0  0  0  0  0  0  0
    5.0666    2.4004   -0.3475 C   0  0  0  0  0  0  0  0  0  0  0  0
   -5.2797    0.8673   -1.9405 C   0  0  0  0  0  0  0  0  0  0  0  0
    0.2568    3.5383    0.9333 H   0  0  0  0  0  0  0  0  0  0  0  0
   -1.1557    3.7806   -0.8655 H   0  0  0  0  0  0  0  0  0  0  0  0
   -0.6406    2.2281   -1.5005 H   0  0  0  0  0  0  0  0  0  0  0  0
   -2.9948    2.0488    2.7527 H   0  0  0  0  0  0  0  0  0  0  0  0
   -3.9125    0.8317    1.8792 H   0  0  0  0  0  0  0  0  0  0  0  0
   -2.5779    0.3590    2.9518 H   0  0  0  0  0  0  0  0  0  0  0  0
   -3.3219    3.7916   -0.4164 H   0  0  0  0  0  0  0  0  0  0  0  0
    1.6647   -4.5680    0.6701 H   0  0  0  0  0  0  0  0  0  0  0  0
    1.4234   -4.3946   -1.1127 H   0  0  0  0  0  0  0  0  0  0  0  0
   -4.1802   -0.7204    0.5357 H   0  0  0  0  0  0  0  0  0  0  0  0
    2.2695    4.2516    0.1570 H   0  0  0  0  0  0  0  0  0  0  0  0
   -1.0344   -4.5234   -0.0247 H   0  0  0  0  0  0  0  0  0  0  0  0
    5.1958    0.2722   -0.4311 H   0  0  0  0  0  0  0  0  0  0  0  0
    3.9071   -4.6114   -0.5521 H   0  0  0  0  0  0  0  0  0  0  0  0
   -5.0171   -2.9994    0.2860 H   0  0  0  0  0  0  0  0  0  0  0  0
   -3.4643   -4.8994    0.0278 H   0  0  0  0  0  0  0  0  0  0  0  0
    4.6888    4.5075   -0.2336 H   0  0  0  0  0  0  0  0  0  0  0  0
    6.1317    2.5275   -0.5215 H   0  0  0  0  0  0  0  0  0  0  0  0
   -5.2069    1.4032   -2.8915 H   0  0  0  0  0  0  0  0  0  0  0  0
   -6.3120    0.9201   -1.5848 H   0  0  0  0  0  0  0  0  0  0  0  0
   -5.0070   -0.1845   -2.0689 H   0  0  0  0  0  0  0  0  0  0  0  0
  1  9  1  0  0  0  0
  1 11  1  0  0  0  0
  2 10  1  0  0  0  0
  2 42  1  0  0  0  0
  3 24  1  0  0  0  0
  3 35  1  0  0  0  0
  4 24  2  0  0  0  0
  5 27  2  0  0  0  0
  6  9  1  0  0  0  0
  6 13  1  0  0  0  0
  6 18  1  0  0  0  0
  7 11  1  0  0  0  0
  7 14  1  0  0  0  0
  7 19  1  0  0  0  0
  8 25  1  0  0  0  0
  8 27  1  0  0  0  0
  8 49  1  0  0  0  0
  9 10  1  0  0  0  0
  9 17  1  0  0  0  0
 10 12  1  0  0  0  0
 10 24  1  0  0  0  0
 11 12  1  0  0  0  0
 11 36  1  0  0  0  0
 12 37  1  0  0  0  0
 12 38  1  0  0  0  0
 13 14  2  0  0  0  0
 13 15  1  0  0  0  0
 14 16  1  0  0  0  0
 15 20  1  0  0  0  0
 15 21  2  0  0  0  0
 16 22  2  0  0  0  0
 16 23  1  0  0  0  0
 17 39  1  0  0  0  0
 17 40  1  0  0  0  0
 17 41  1  0  0  0  0
 18 20  1  0  0  0  0
 18 26  2  0  0  0  0
 19 23  1  0  0  0  0
 19 28  2  0  0  0  0
 20 29  2  0  0  0  0
 21 22  1  0  0  0  0
 21 25  1  0  0  0  0
 22 27  1  0  0  0  0
 23 30  2  0  0  0  0
 25 43  1  0  0  0  0
 25 44  1  0  0  0  0
 26 31  1  0  0  0  0
 26 45  1  0  0  0  0
 28 33  1  0  0  0  0
 28 46  1  0  0  0  0
 29 32  1  0  0  0  0
 29 47  1  0  0  0  0
 30 34  1  0  0  0  0
 30 48  1  0  0  0  0
 31 32  2  0  0  0  0
 31 50  1  0  0  0  0
 32 51  1  0  0  0  0
 33 34  2  0  0  0  0
 33 52  1  0  0  0  0
 34 53  1  0  0  0  0
 35 54  1  0  0  0  0
 35 55  1  0  0  0  0
 35 56  1  0  0  0  0
M  END
> <PUBCHEM_COMPOUND_CID>
9912410

> <PUBCHEM_CONFORMER_RMSD>
0.8

> <PUBCHEM_CONFORMER_DIVERSEORDER>
1
2

> <PUBCHEM_MMFF94_PARTIAL_CHARGES>
41
1 -0.56
10 0.34
11 0.54
13 -0.05
14 -0.05
15 -0.01
16 -0.01
18 -0.15
19 -0.15
2 -0.68
21 -0.14
22 0.09
24 0.66
25 0.44
26 -0.15
27 0.54
28 -0.15
29 -0.15
3 -0.43
30 -0.15
31 -0.15
32 -0.15
33 -0.15
34 -0.15
35 0.28
4 -0.57
42 0.4
45 0.15
46 0.15
47 0.15
48 0.15
49 0.37
5 -0.57
50 0.15
51 0.15
52 0.15
53 0.15
6 -0.04
7 -0.04
8 -0.73
9 0.54

> <PUBCHEM_EFFECTIVE_ROTOR_COUNT>
3

> <PUBCHEM_PHARMACOPHORE_FEATURES>
16
1 1 acceptor
1 2 acceptor
1 2 donor
1 4 acceptor
1 5 acceptor
1 6 cation
1 7 cation
1 8 donor
5 1 9 10 11 12 rings
5 6 13 15 18 20 rings
5 7 14 16 19 23 rings
5 8 21 22 25 27 rings
6 13 14 15 16 21 22 rings
6 18 20 26 29 31 32 rings
6 19 23 28 30 33 34 rings
7 1 6 7 9 11 13 14 rings

> <PUBCHEM_HEAVY_ATOM_COUNT>
35

> <PUBCHEM_ATOM_DEF_STEREO_COUNT>
3

> <PUBCHEM_ATOM_UDEF_STEREO_COUNT>
0

> <PUBCHEM_BOND_DEF_STEREO_COUNT>
0

> <PUBCHEM_BOND_UDEF_STEREO_COUNT>
0

> <PUBCHEM_ISOTOPIC_ATOM_COUNT>
0

> <PUBCHEM_COMPONENT_COUNT>
1

> <PUBCHEM_CACTVS_TAUTO_COUNT>
2

> <PUBCHEM_CONFORMER_ID>
0097405A00000001

> <PUBCHEM_MMFF94_ENERGY>
142.8478

> <PUBCHEM_FEATURE_SELFOVERLAP>
82.991

> <PUBCHEM_SHAPE_FINGERPRINT>
10190108 129 17904802042315771338
10290309 65 17980194511720287096
10930396 42 17614805585157103466
1100329 8 18267028241383760178
11513181 2 18202002135690422647
11578080 2 18040711472113064334
12553582 1 17979648840298770258
13140716 1 18339379477766584922
13402501 40 17978511158684464715
13911987 19 17760088814535034758
140371 6 18269554932079267234
14223421 5 18410298050862166842
14790565 3 17835252511599512368
14955137 171 17475263217724959010
15324884 4 16823597472912125555
15439362 3 18337384920962165420
15484559 13 17470702444242063223
16728300 4 17827320523854436106
19591789 44 17691408928908035994
20739085 24 17181396101278561411
20764821 26 18410013217194696014
20775438 99 17981283985845871839
22182313 1 18113910350915850001
22393880 68 18339655511657768670
23559900 14 18412257316558995178
23566358 2 18411985788294272206
27425 322 16805597088564386965
283562 15 18124603238786803506
3027735 51 18195809793402292110
3178227 256 17907031586321111201
3380486 145 18263379130127095393
350125 39 18410586079885215722
469060 322 18045794634738243273
484989 97 18335421249609384663
50150288 127 17058680450194441393
57527358 35 15868521862208536372
57527585 103 17460902801466456530
59755656 215 18338802350120695062

> <PUBCHEM_SHAPE_MULTIPOLES>
675.99
9.03
5.73
1.2
2.98
3.38
0.07
-2.17
2.44
1.15
0.31
-1.58
-0.8
1.05

> <PUBCHEM_SHAPE_SELFOVERLAP>
1579.962

> <PUBCHEM_SHAPE_VOLUME>
342.6

> <PUBCHEM_COORDINATE_TYPE>
2
5
10

$$$$
