135543617
  -OEChem-10052115183D

 42 46  0     1  0  0  0  0  0999 V2000
    1.0847    2.9536    0.3457 O   0  0  0  0  0  0  0  0  0  0  0  0
   -2.4364   -3.2054   -0.0444 O   0  0  0  0  0  0  0  0  0  0  0  0
    0.7176    0.6296    0.2490 N   0  0  0  0  0  0  0  0  0  0  0  0
   -3.8456    2.4344    0.0561 N   0  0  0  0  0  0  0  0  0  0  0  0
   -4.5836   -2.5332   -0.1431 N   0  0  0  0  0  0  0  0  0  0  0  0
   -5.7232   -1.8169   -0.1837 N   0  0  0  0  0  0  0  0  0  0  0  0
    3.5941    0.7407   -0.6926 C   0  0  1  0  0  0  0  0  0  0  0  0
    2.9559    1.5492    0.4016 C   0  0  1  0  0  0  0  0  0  0  0  0
    3.8344    2.2269   -0.5882 C   0  0  0  0  0  0  0  0  0  0  0  0
    4.6824   -0.1996   -0.3321 C   0  0  0  0  0  0  0  0  0  0  0  0
    1.4813    1.7964    0.3290 C   0  0  0  0  0  0  0  0  0  0  0  0
    4.3740   -1.4590    0.1821 C   0  0  0  0  0  0  0  0  0  0  0  0
    6.0145    0.1751   -0.5073 C   0  0  0  0  0  0  0  0  0  0  0  0
   -0.6716    0.5154    0.1692 C   0  0  0  0  0  0  0  0  0  0  0  0
    5.3977   -2.3438    0.5213 C   0  0  0  0  0  0  0  0  0  0  0  0
    7.0382   -0.7095   -0.1682 C   0  0  0  0  0  0  0  0  0  0  0  0
   -1.4554    1.6680    0.1631 C   0  0  0  0  0  0  0  0  0  0  0  0
   -1.2560   -0.7491    0.0966 C   0  0  0  0  0  0  0  0  0  0  0  0
    6.7298   -1.9690    0.3461 C   0  0  0  0  0  0  0  0  0  0  0  0
   -2.8396    1.4976    0.0815 C   0  0  0  0  0  0  0  0  0  0  0  0
   -3.4471    0.2417    0.0079 C   0  0  0  0  0  0  0  0  0  0  0  0
   -2.6548   -0.9071    0.0149 C   0  0  0  0  0  0  0  0  0  0  0  0
   -4.8370    0.4493   -0.0625 C   0  0  0  0  0  0  0  0  0  0  0  0
   -5.0588    1.8100   -0.0312 C   0  0  0  0  0  0  0  0  0  0  0  0
   -3.2323   -2.2591   -0.0597 C   0  0  0  0  0  0  0  0  0  0  0  0
   -5.8633   -0.5360   -0.1510 C   0  0  0  0  0  0  0  0  0  0  0  0
    2.9646    0.4383   -1.5269 H   0  0  0  0  0  0  0  0  0  0  0  0
    3.3453    1.4597    1.4110 H   0  0  0  0  0  0  0  0  0  0  0  0
    3.3820    2.8560   -1.3474 H   0  0  0  0  0  0  0  0  0  0  0  0
    4.7651    2.6282   -0.2063 H   0  0  0  0  0  0  0  0  0  0  0  0
    1.2269   -0.2515    0.2543 H   0  0  0  0  0  0  0  0  0  0  0  0
    3.3395   -1.7613    0.3223 H   0  0  0  0  0  0  0  0  0  0  0  0
    6.2874    1.1388   -0.9268 H   0  0  0  0  0  0  0  0  0  0  0  0
    5.1576   -3.3245    0.9214 H   0  0  0  0  0  0  0  0  0  0  0  0
    8.0755   -0.4202   -0.3095 H   0  0  0  0  0  0  0  0  0  0  0  0
   -1.0756    2.6764    0.2160 H   0  0  0  0  0  0  0  0  0  0  0  0
   -0.6082   -1.6243    0.1040 H   0  0  0  0  0  0  0  0  0  0  0  0
    7.5269   -2.6583    0.6089 H   0  0  0  0  0  0  0  0  0  0  0  0
   -3.7081    3.4350    0.0957 H   0  0  0  0  0  0  0  0  0  0  0  0
   -5.9716    2.3890   -0.0633 H   0  0  0  0  0  0  0  0  0  0  0  0
   -6.8974   -0.1530   -0.1964 H   0  0  0  0  0  0  0  0  0  0  0  0
   -4.8011   -3.5260   -0.1863 H   0  0  0  0  0  0  0  0  0  0  0  0
  1 11  2  0  0  0  0
  2 25  2  0  0  0  0
  3 11  1  0  0  0  0
  3 14  1  0  0  0  0
  3 31  1  0  0  0  0
  4 20  1  0  0  0  0
  4 24  1  0  0  0  0
  4 39  1  0  0  0  0
  5  6  1  0  0  0  0
  5 25  1  0  0  0  0
  5 42  1  0  0  0  0
  6 26  2  0  0  0  0
  7  8  1  0  0  0  0
  7  9  1  0  0  0  0
  7 10  1  0  0  0  0
  7 27  1  0  0  0  0
  8  9  1  0  0  0  0
  8 11  1  0  0  0  0
  8 28  1  0  0  0  0
  9 29  1  0  0  0  0
  9 30  1  0  0  0  0
 10 12  2  0  0  0  0
 10 13  1  0  0  0  0
 12 15  1  0  0  0  0
 12 32  1  0  0  0  0
 13 16  2  0  0  0  0
 13 33  1  0  0  0  0
 14 17  1  0  0  0  0
 14 18  2  0  0  0  0
 15 19  2  0  0  0  0
 15 34  1  0  0  0  0
 16 19  1  0  0  0  0
 16 35  1  0  0  0  0
 17 20  2  0  0  0  0
 17 36  1  0  0  0  0
 18 22  1  0  0  0  0
 18 37  1  0  0  0  0
 19 38  1  0  0  0  0
 20 21  1  0  0  0  0
 21 22  2  0  0  0  0
 21 23  1  0  0  0  0
 22 25  1  0  0  0  0
 23 24  2  0  0  0  0
 23 26  1  0  0  0  0
 24 40  1  0  0  0  0
 26 41  1  0  0  0  0
M  END
> <PUBCHEM_COMPOUND_CID>
135543617

> <PUBCHEM_CONFORMER_RMSD>
0.8

> <PUBCHEM_CONFORMER_DIVERSEORDER>
1
37
14
39
41
36
32
23
25
24
15
22
34
33
11
29
13
26
31
30
5
3
8
35
18
10
20
12
28
7
42
6
9
27
40
4
38
16
21
2
17
19

> <PUBCHEM_MMFF94_PARTIAL_CHARGES>
41
1 -0.57
10 -0.03
11 0.63
12 -0.15
13 -0.15
14 0.12
15 -0.15
16 -0.15
17 -0.15
18 -0.15
19 -0.15
2 -0.57
20 -0.15
22 0.09
23 -0.09
24 -0.3
25 0.54
26 0.48
27 0.1
28 0.1
29 0.1
3 -0.55
30 0.1
31 0.37
32 0.15
33 0.15
34 0.15
35 0.15
36 0.15
37 0.15
38 0.15
39 0.27
4 0.03
40 0.15
41 0.06
42 0.37
5 -0.37
6 -0.51
7 -0.07
8 -0.1
9 -0.2

> <PUBCHEM_EFFECTIVE_ROTOR_COUNT>
4.8

> <PUBCHEM_PHARMACOPHORE_FEATURES>
11
1 1 acceptor
1 2 acceptor
1 3 donor
1 4 cation
1 4 donor
1 5 donor
1 6 acceptor
5 4 20 21 23 24 rings
6 10 12 13 15 16 19 rings
6 14 17 18 20 21 22 rings
7 5 6 21 22 23 25 26 rings

> <PUBCHEM_HEAVY_ATOM_COUNT>
26

> <PUBCHEM_ATOM_DEF_STEREO_COUNT>
0

> <PUBCHEM_ATOM_UDEF_STEREO_COUNT>
2

> <PUBCHEM_BOND_DEF_STEREO_COUNT>
0

> <PUBCHEM_BOND_UDEF_STEREO_COUNT>
0

> <PUBCHEM_ISOTOPIC_ATOM_COUNT>
0

> <PUBCHEM_COMPONENT_COUNT>
1

> <PUBCHEM_CACTVS_TAUTO_COUNT>
-1

> <PUBCHEM_CONFORMER_ID>
08143B4100000001

> <PUBCHEM_MMFF94_ENERGY>
89.6316

> <PUBCHEM_FEATURE_SELFOVERLAP>
55.964

> <PUBCHEM_SHAPE_FINGERPRINT>
10595046 47 18336551620118194708
10622 236 17341796074305934503
10693767 8 17625241389313518527
10939801 23 18270677680160037876
11524674 6 17275101726152071855
11578080 2 13326029707403394291
117089 54 17899989527656870083
11796584 16 18343026567058478148
12107183 9 18267028266943067705
12166972 35 18260271866769324820
12236239 1 18260832570844707324
12516196 113 18201998816250069928
12760667 363 18271806847819853831
13073987 5 18341895229106522920
14251751 18 18413107269033019618
14347332 77 18341047510347463759
14420673 8 18410577249379733410
14790565 3 17404873548931553985
14866123 147 18270968943083153065
14910302 57 18335690676321862061
15021287 119 17603595105426526620
15183329 4 18408040693386920962
15250474 111 18408882966860782198
15419008 42 17912362031028578956
15510800 12 17702676441372088870
15728490 51 18412823591487139878
17492 89 18193839473092529827
17844677 252 18411144670367950472
17857418 61 18411419514289234774
19958102 18 18261945341010198327
21267235 1 18336550512454027411
23522609 53 18123223239973151377
23559900 14 18341043129101429649
3004659 81 18333168371658239520
335352 9 18411416199086347877
3383291 50 18412542128568007259
338550 245 18335703870925385254
4073 2 18115592685711191504
4214541 1 18411139138550053173
439807 62 18335987544672150187
44062 13 18412826905951847622
46194498 28 17313104198478003772
465052 167 18273498957982133060
5085150 59 18273207578157495982
5104073 3 18131073761442235472
559249 180 18411417285053463135
6138700 20 18409730616852099178
6437827 68 18411700988886475102
6823239 73 18271793632437353226
86090 222 16270831990702932764
999808 66 18041011643572966443

> <PUBCHEM_SHAPE_MULTIPOLES>
503.41
17.84
3.23
0.69
13.89
0.68
0.02
8.15
1.02
-1.11
-0.15
0.35
-0.05
-0.84

> <PUBCHEM_SHAPE_SELFOVERLAP>
1132.104

> <PUBCHEM_SHAPE_VOLUME>
261.9

> <PUBCHEM_COORDINATE_TYPE>
2
5
10

$$$$
