44328730
  -OEChem-10062122053D

 34 36  0     0  0  0  0  0  0999 V2000
   -0.0346   -3.2789    0.2046 O   0  0  0  0  0  0  0  0  0  0  0  0
    4.0637   -1.2474   -0.0323 O   0  0  0  0  0  0  0  0  0  0  0  0
   -1.7527   -0.9907   -0.3970 N   0  0  0  0  0  0  0  0  0  0  0  0
    2.2019    0.9248   -0.0312 N   0  0  0  0  0  0  0  0  0  0  0  0
    2.1912   -2.6228    0.0758 N   0  0  0  0  0  0  0  0  0  0  0  0
    5.0120    3.3386   -0.2604 N   0  0  0  0  0  0  0  0  0  0  0  0
    0.6248   -0.9667    0.1114 C   0  0  0  0  0  0  0  0  0  0  0  0
   -0.6870   -0.3176    0.1374 C   0  0  0  0  0  0  0  0  0  0  0  0
    1.8276   -0.3738    0.0397 C   0  0  0  0  0  0  0  0  0  0  0  0
   -2.8969   -0.2333   -0.2856 C   0  0  0  0  0  0  0  0  0  0  0  0
   -2.5393    0.9616    0.3426 C   0  0  0  0  0  0  0  0  0  0  0  0
   -1.1420    0.8943    0.6034 C   0  0  0  0  0  0  0  0  0  0  0  0
    0.8417   -2.4340    0.1337 C   0  0  0  0  0  0  0  0  0  0  0  0
    2.8602   -1.4359    0.0221 C   0  0  0  0  0  0  0  0  0  0  0  0
    3.5766    1.3601   -0.1382 C   0  0  0  0  0  0  0  0  0  0  0  0
   -4.2078   -0.5117   -0.6884 C   0  0  0  0  0  0  0  0  0  0  0  0
   -3.5372    1.9274    0.5815 C   0  0  0  0  0  0  0  0  0  0  0  0
    3.6313    2.8822   -0.1610 C   0  0  0  0  0  0  0  0  0  0  0  0
   -5.1806    0.4612   -0.4416 C   0  0  0  0  0  0  0  0  0  0  0  0
   -4.8526    1.6627    0.1835 C   0  0  0  0  0  0  0  0  0  0  0  0
   -1.7162   -1.9092   -0.8181 H   0  0  0  0  0  0  0  0  0  0  0  0
   -0.5450    1.6548    1.0884 H   0  0  0  0  0  0  0  0  0  0  0  0
    1.4658    1.6220   -0.0515 H   0  0  0  0  0  0  0  0  0  0  0  0
    4.0287    0.9761   -1.0609 H   0  0  0  0  0  0  0  0  0  0  0  0
    4.1544    1.0109    0.7263 H   0  0  0  0  0  0  0  0  0  0  0  0
    2.6406   -3.5313    0.0786 H   0  0  0  0  0  0  0  0  0  0  0  0
   -4.4641   -1.4469   -1.1750 H   0  0  0  0  0  0  0  0  0  0  0  0
   -3.2954    2.8681    1.0679 H   0  0  0  0  0  0  0  0  0  0  0  0
    3.1751    3.2943    0.7466 H   0  0  0  0  0  0  0  0  0  0  0  0
    3.0626    3.2690   -1.0143 H   0  0  0  0  0  0  0  0  0  0  0  0
   -6.2088    0.2763   -0.7424 H   0  0  0  0  0  0  0  0  0  0  0  0
   -5.6264    2.4040    0.3650 H   0  0  0  0  0  0  0  0  0  0  0  0
    5.5408    3.0135    0.5479 H   0  0  0  0  0  0  0  0  0  0  0  0
    5.0347    4.3568   -0.2256 H   0  0  0  0  0  0  0  0  0  0  0  0
  1 13  2  0  0  0  0
  2 14  2  0  0  0  0
  3  8  1  0  0  0  0
  3 10  1  0  0  0  0
  3 21  1  0  0  0  0
  4  9  1  0  0  0  0
  4 15  1  0  0  0  0
  4 23  1  0  0  0  0
  5 13  1  0  0  0  0
  5 14  1  0  0  0  0
  5 26  1  0  0  0  0
  6 18  1  0  0  0  0
  6 33  1  0  0  0  0
  6 34  1  0  0  0  0
  7  8  1  0  0  0  0
  7  9  2  0  0  0  0
  7 13  1  0  0  0  0
  8 12  2  0  0  0  0
  9 14  1  0  0  0  0
 10 11  1  0  0  0  0
 10 16  2  0  0  0  0
 11 12  1  0  0  0  0
 11 17  2  0  0  0  0
 12 22  1  0  0  0  0
 15 18  1  0  0  0  0
 15 24  1  0  0  0  0
 15 25  1  0  0  0  0
 16 19  1  0  0  0  0
 16 27  1  0  0  0  0
 17 20  1  0  0  0  0
 17 28  1  0  0  0  0
 18 29  1  0  0  0  0
 18 30  1  0  0  0  0
 19 20  2  0  0  0  0
 19 31  1  0  0  0  0
 20 32  1  0  0  0  0
M  END
> <PUBCHEM_COMPOUND_CID>
44328730

> <PUBCHEM_CONFORMER_RMSD>
0.6

> <PUBCHEM_CONFORMER_DIVERSEORDER>
1
38
18
46
20
51
41
34
7
50
26
30
48
19
47
43
9
21
27
23
12
13
11
40
24
17
16
5
4
32
15
44
52
36
3
49
6
28
39
45
33
37
14
22
25
10
2
35
8
42
29
31

> <PUBCHEM_MMFF94_PARTIAL_CHARGES>
29
1 -0.57
10 -0.15
12 -0.15
13 0.62
14 0.62
15 0.37
16 -0.15
17 -0.15
18 0.27
19 -0.15
2 -0.57
20 -0.15
21 0.27
22 0.15
23 0.4
26 0.37
27 0.15
28 0.15
3 0.03
31 0.15
32 0.15
33 0.36
34 0.36
4 -0.87
5 -0.49
6 -0.99
7 0.06
8 -0.2
9 0.11

> <PUBCHEM_EFFECTIVE_ROTOR_COUNT>
4.2

> <PUBCHEM_PHARMACOPHORE_FEATURES>
12
1 1 acceptor
1 2 acceptor
1 3 cation
1 3 donor
1 4 cation
1 4 donor
1 5 donor
1 6 cation
1 6 donor
5 3 8 10 11 12 rings
5 5 7 9 13 14 rings
6 10 11 16 17 19 20 rings

> <PUBCHEM_HEAVY_ATOM_COUNT>
20

> <PUBCHEM_ATOM_DEF_STEREO_COUNT>
0

> <PUBCHEM_ATOM_UDEF_STEREO_COUNT>
0

> <PUBCHEM_BOND_DEF_STEREO_COUNT>
0

> <PUBCHEM_BOND_UDEF_STEREO_COUNT>
0

> <PUBCHEM_ISOTOPIC_ATOM_COUNT>
0

> <PUBCHEM_COMPONENT_COUNT>
1

> <PUBCHEM_CACTVS_TAUTO_COUNT>
8

> <PUBCHEM_CONFORMER_ID>
02A4671A00000001

> <PUBCHEM_MMFF94_ENERGY>
35.1419

> <PUBCHEM_FEATURE_SELFOVERLAP>
60.988

> <PUBCHEM_SHAPE_FINGERPRINT>
10411042 1 17761492487526998402
10616163 171 18272365339982850783
12236239 1 17987793008265766871
12403259 327 15792009043034914088
12769317 202 18341038696684909696
13140716 1 18334014990731357442
138480 1 18122344575741985850
14123255 52 18338237184238637260
14528608 73 18411419514136319269
14767858 380 18125708231204423159
15196674 1 18411981360446668933
15342168 16 18260830457277952900
15536298 74 18343018861190927077
18186145 218 17677052339607298771
18681886 176 18272080553280250234
200 152 18201148837842717563
20612939 158 18411136913688376621
21033648 29 16805314471036263245
21267235 1 18270405984286277223
21709351 56 18267578022745756671
2255824 54 18339079272469287362
23558518 356 17970913490862133122
23559900 14 18129371618700277467
245318 6 17606695878773261124
335352 9 18410013248277280100
350125 39 18409166572172803236
394222 165 18335130986327642938
474 4 18408602565261476504
5104073 3 18333454231506318945
6034566 193 17900001600324382197
6327066 14 18118682351792898444
633830 44 18341894073802050887
67856867 119 18411691076275678712
7364860 26 18340487746916956014
7808743 9 18120935272661463464
84936 182 18343863329361318088
9709674 26 18268716013519001631
9981440 41 18193272112502991482
9999458 23 18335422322823525790

> <PUBCHEM_SHAPE_MULTIPOLES>
379.93
10.11
3.4
0.69
3.21
0.26
0
7.46
1.23
-4.67
-0.06
0.3
0.06
-0.84

> <PUBCHEM_SHAPE_SELFOVERLAP>
838.172

> <PUBCHEM_SHAPE_VOLUME>
206.2

> <PUBCHEM_COORDINATE_TYPE>
2
5
10

$$$$
