22607531
  -OEChem-10052120443D

 65 69  0     1  0  0  0  0  0999 V2000
    0.0171   -2.1257    0.9800 O   0  0  0  0  0  0  0  0  0  0  0  0
    2.0787    0.8029    2.1182 O   0  0  0  0  0  0  0  0  0  0  0  0
    2.0752   -0.3822    0.1213 N   0  0  0  0  0  0  0  0  0  0  0  0
    6.6454   -0.3710    1.2180 N   0  0  0  0  0  0  0  0  0  0  0  0
    2.1639    3.1576    0.6979 N   0  0  0  0  0  0  0  0  0  0  0  0
   -2.4468   -3.9749   -0.9676 N   0  0  0  0  0  0  0  0  0  0  0  0
   -7.7150    2.9520    0.0050 N   0  0  0  0  0  0  0  0  0  0  0  0
    2.3730   -1.6871    0.6745 C   0  0  2  0  0  0  0  0  0  0  0  0
    3.6848   -2.2393    0.0925 C   0  0  0  0  0  0  0  0  0  0  0  0
    4.8615   -1.3288    0.3082 C   0  0  0  0  0  0  0  0  0  0  0  0
    5.3036   -0.2939   -0.5627 C   0  0  0  0  0  0  0  0  0  0  0  0
    1.2144   -2.6476    0.3999 C   0  0  0  0  0  0  0  0  0  0  0  0
    6.4240    0.2910    0.0314 C   0  0  0  0  0  0  0  0  0  0  0  0
    5.7063   -1.3516    1.3940 C   0  0  0  0  0  0  0  0  0  0  0  0
    4.8568    0.2027   -1.8033 C   0  0  0  0  0  0  0  0  0  0  0  0
    1.9525    0.7600    0.8964 C   0  0  0  0  0  0  0  0  0  0  0  0
    7.1226    1.3520   -0.5555 C   0  0  0  0  0  0  0  0  0  0  0  0
    1.6071    1.9740    0.0585 C   0  0  0  0  0  0  0  0  0  0  0  0
    5.5458    1.2637   -2.4022 C   0  0  0  0  0  0  0  0  0  0  0  0
    6.6611    1.8280   -1.7860 C   0  0  0  0  0  0  0  0  0  0  0  0
   -1.1534   -2.4278    0.3660 C   0  0  0  0  0  0  0  0  0  0  0  0
   -2.2353   -1.5558    0.4171 C   0  0  0  0  0  0  0  0  0  0  0  0
   -3.4229   -1.8919   -0.2233 C   0  0  0  0  0  0  0  0  0  0  0  0
   -4.5663   -1.0055   -0.1885 C   0  0  0  0  0  0  0  0  0  0  0  0
   -1.3088   -3.6139   -0.3332 C   0  0  0  0  0  0  0  0  0  0  0  0
    3.6040    3.2522    0.4480 C   0  0  0  0  0  0  0  0  0  0  0  0
    1.4880    4.3678    0.2247 C   0  0  0  0  0  0  0  0  0  0  0  0
   -4.3755    0.3745   -0.0974 C   0  0  0  0  0  0  0  0  0  0  0  0
   -5.4754    1.2470   -0.0622 C   0  0  0  0  0  0  0  0  0  0  0  0
   -3.4768   -3.1021   -0.8960 C   0  0  0  0  0  0  0  0  0  0  0  0
   -5.8550   -1.5310   -0.2458 C   0  0  0  0  0  0  0  0  0  0  0  0
   -6.7785    0.7110   -0.1203 C   0  0  0  0  0  0  0  0  0  0  0  0
   -6.9588   -0.6790   -0.2121 C   0  0  0  0  0  0  0  0  0  0  0  0
   -5.3171    2.6347    0.0288 C   0  0  0  0  0  0  0  0  0  0  0  0
   -7.8470    1.6092   -0.0828 C   0  0  0  0  0  0  0  0  0  0  0  0
   -6.4532    3.4291    0.0584 C   0  0  0  0  0  0  0  0  0  0  0  0
    2.4799   -1.5789    1.7611 H   0  0  0  0  0  0  0  0  0  0  0  0
    3.5704   -2.4190   -0.9846 H   0  0  0  0  0  0  0  0  0  0  0  0
    3.9015   -3.2164    0.5437 H   0  0  0  0  0  0  0  0  0  0  0  0
    1.4225   -3.6281    0.8440 H   0  0  0  0  0  0  0  0  0  0  0  0
    1.1130   -2.7589   -0.6884 H   0  0  0  0  0  0  0  0  0  0  0  0
    1.9315   -0.3200   -0.8824 H   0  0  0  0  0  0  0  0  0  0  0  0
    5.7240   -1.9759    2.2765 H   0  0  0  0  0  0  0  0  0  0  0  0
    7.3930   -0.1623    1.8652 H   0  0  0  0  0  0  0  0  0  0  0  0
    3.9912   -0.2257   -2.3001 H   0  0  0  0  0  0  0  0  0  0  0  0
    7.9905    1.7924   -0.0764 H   0  0  0  0  0  0  0  0  0  0  0  0
    0.5101    2.0143    0.0427 H   0  0  0  0  0  0  0  0  0  0  0  0
    1.9479    1.8645   -0.9780 H   0  0  0  0  0  0  0  0  0  0  0  0
    5.2053    1.6513   -3.3586 H   0  0  0  0  0  0  0  0  0  0  0  0
    7.1806    2.6518   -2.2685 H   0  0  0  0  0  0  0  0  0  0  0  0
   -2.1231   -0.6375    0.9876 H   0  0  0  0  0  0  0  0  0  0  0  0
   -0.5256   -4.3616   -0.4006 H   0  0  0  0  0  0  0  0  0  0  0  0
    4.1344    2.3844    0.8526 H   0  0  0  0  0  0  0  0  0  0  0  0
    4.0215    4.1291    0.9557 H   0  0  0  0  0  0  0  0  0  0  0  0
    3.8341    3.3363   -0.6200 H   0  0  0  0  0  0  0  0  0  0  0  0
    1.8893    5.2547    0.7276 H   0  0  0  0  0  0  0  0  0  0  0  0
    1.5967    4.5044   -0.8574 H   0  0  0  0  0  0  0  0  0  0  0  0
    0.4192    4.3305    0.4633 H   0  0  0  0  0  0  0  0  0  0  0  0
   -3.3775    0.8085   -0.0810 H   0  0  0  0  0  0  0  0  0  0  0  0
   -4.3517   -3.4332   -1.4467 H   0  0  0  0  0  0  0  0  0  0  0  0
   -6.0482   -2.5994   -0.2896 H   0  0  0  0  0  0  0  0  0  0  0  0
   -7.9584   -1.1057   -0.2518 H   0  0  0  0  0  0  0  0  0  0  0  0
   -4.3339    3.0928    0.0761 H   0  0  0  0  0  0  0  0  0  0  0  0
   -8.8761    1.2626   -0.1237 H   0  0  0  0  0  0  0  0  0  0  0  0
   -6.3714    4.5089    0.1286 H   0  0  0  0  0  0  0  0  0  0  0  0
  1 12  1  0  0  0  0
  1 21  1  0  0  0  0
  2 16  2  0  0  0  0
  3  8  1  0  0  0  0
  3 16  1  0  0  0  0
  3 42  1  0  0  0  0
  4 13  1  0  0  0  0
  4 14  1  0  0  0  0
  4 44  1  0  0  0  0
  5 18  1  0  0  0  0
  5 26  1  0  0  0  0
  5 27  1  0  0  0  0
  6 25  1  0  0  0  0
  6 30  2  0  0  0  0
  7 35  2  0  0  0  0
  7 36  1  0  0  0  0
  8  9  1  0  0  0  0
  8 12  1  0  0  0  0
  8 37  1  0  0  0  0
  9 10  1  0  0  0  0
  9 38  1  0  0  0  0
  9 39  1  0  0  0  0
 10 11  1  0  0  0  0
 10 14  2  0  0  0  0
 11 13  1  0  0  0  0
 11 15  2  0  0  0  0
 12 40  1  0  0  0  0
 12 41  1  0  0  0  0
 13 17  2  0  0  0  0
 14 43  1  0  0  0  0
 15 19  1  0  0  0  0
 15 45  1  0  0  0  0
 16 18  1  0  0  0  0
 17 20  1  0  0  0  0
 17 46  1  0  0  0  0
 18 47  1  0  0  0  0
 18 48  1  0  0  0  0
 19 20  2  0  0  0  0
 19 49  1  0  0  0  0
 20 50  1  0  0  0  0
 21 22  1  0  0  0  0
 21 25  2  0  0  0  0
 22 23  2  0  0  0  0
 22 51  1  0  0  0  0
 23 24  1  0  0  0  0
 23 30  1  0  0  0  0
 24 28  2  0  0  0  0
 24 31  1  0  0  0  0
 25 52  1  0  0  0  0
 26 53  1  0  0  0  0
 26 54  1  0  0  0  0
 26 55  1  0  0  0  0
 27 56  1  0  0  0  0
 27 57  1  0  0  0  0
 27 58  1  0  0  0  0
 28 29  1  0  0  0  0
 28 59  1  0  0  0  0
 29 32  2  0  0  0  0
 29 34  1  0  0  0  0
 30 60  1  0  0  0  0
 31 33  2  0  0  0  0
 31 61  1  0  0  0  0
 32 33  1  0  0  0  0
 32 35  1  0  0  0  0
 33 62  1  0  0  0  0
 34 36  2  0  0  0  0
 34 63  1  0  0  0  0
 35 64  1  0  0  0  0
 36 65  1  0  0  0  0
M  END
> <PUBCHEM_COMPOUND_CID>
22607531

> <PUBCHEM_CONFORMER_RMSD>
1.2

> <PUBCHEM_CONFORMER_DIVERSEORDER>
1
207
9
101
99
183
72
65
102
198
74
43
173
238
208
213
125
78
60
150
232
185
253
169
104
61
225
171
53
37
22
164
227
75
168
33
154
138
157
126
38
203
248
7
23
88
93
204
146
153
182
246
254
13
19
10
249
117
31
223
188
128
58
17
197
226
68
90
184
165
59
48
15
210
174
222
228
3
149
57
127
251
95
87
114
176
49
84
85
73
233
187
206
175
160
179
6
108
255
131
122
69
142
252
116
161
218
144
11
152
21
135
239
97
111
106
18
195
205
196
178
237
166
231
54
159
29
63
28
181
124
30
98
245
121
155
94
170
136
5
224
235
241
16
139
221
46
134
242
141
172
177
36
201
71
89
35
39
180
47
220
109
230
129
51
212
247
42
56
120
193
103
156
119
243
80
66
202
86
4
216
145
79
26
133
40
105
113
50
240
100
192
96
167
107
147
194
215
162
83
81
24
199
44
250
234
52
62
45
41
2
67
91
158
229
256
132
27
143
137
76
110
200
190
217
34
8
118
148
211
115
14
55
92
25
123
140
70
77
163
186
112
236
130
64
32
244
209
20
214
151
219
189
12
82
191

> <PUBCHEM_MMFF94_PARTIAL_CHARGES>
47
1 -0.36
10 -0.18
12 0.28
13 -0.15
14 -0.3
15 -0.15
16 0.57
17 -0.15
18 0.33
19 -0.15
2 -0.57
20 -0.15
21 0.08
22 -0.15
25 0.16
26 0.27
27 0.27
28 -0.15
3 -0.73
30 0.16
31 -0.15
33 -0.15
34 -0.15
35 0.16
36 0.16
4 0.03
42 0.37
43 0.15
44 0.27
45 0.15
46 0.15
49 0.15
5 -0.81
50 0.15
51 0.15
52 0.15
59 0.15
6 -0.62
60 0.15
61 0.15
62 0.15
63 0.15
64 0.15
65 0.15
7 -0.62
8 0.3
9 0.18

> <PUBCHEM_EFFECTIVE_ROTOR_COUNT>
10

> <PUBCHEM_PHARMACOPHORE_FEATURES>
13
1 1 acceptor
1 2 acceptor
1 3 donor
1 4 cation
1 4 donor
1 5 cation
1 6 acceptor
1 7 acceptor
5 4 10 11 13 14 rings
6 11 13 15 17 19 20 rings
6 24 28 29 31 32 33 rings
6 6 21 22 23 25 30 rings
6 7 29 32 34 35 36 rings

> <PUBCHEM_HEAVY_ATOM_COUNT>
36

> <PUBCHEM_ATOM_DEF_STEREO_COUNT>
0

> <PUBCHEM_ATOM_UDEF_STEREO_COUNT>
1

> <PUBCHEM_BOND_DEF_STEREO_COUNT>
0

> <PUBCHEM_BOND_UDEF_STEREO_COUNT>
0

> <PUBCHEM_ISOTOPIC_ATOM_COUNT>
0

> <PUBCHEM_COMPONENT_COUNT>
1

> <PUBCHEM_CACTVS_TAUTO_COUNT>
2

> <PUBCHEM_CONFORMER_ID>
0158F6AB00000001

> <PUBCHEM_MMFF94_ENERGY>
101.8772

> <PUBCHEM_FEATURE_SELFOVERLAP>
66.092

> <PUBCHEM_SHAPE_FINGERPRINT>
11273773 38 18410012109024457805
11456790 92 18186795886026022018
12013929 112 18336846199620693510
13944108 23 18337955567237615308
14040222 383 18411702097694640065
14747282 540 18190745236755768949
14849402 71 18335142003393490549
15064981 194 18272092751572777259
15150948 74 18337668616769095741
15183329 4 18413112779048753552
15276724 80 17749385945138713956
15320467 1 18267862792638226905
16067689 134 18268722614519998485
16992727 255 18408609162663760300
19319366 153 17894908482265502954
20691028 202 18334012821588087566
21223535 225 18201706354525301341
21298829 104 18408887325724644774
21814621 53 14852427862803560558
22122407 14 18260838132305363410
23576562 1 18265900335457950919
44249763 50 17774707770925618398
508180 173 18342182188766436144
5776283 40 18337678623531030040
5911458 16 18259707791407312462
6328613 192 18333733541434597790

> <PUBCHEM_SHAPE_MULTIPOLES>
704.22
23.17
5.03
1.3
13.6
1.32
0.32
13.6
4.2
3.81
0.03
-2.74
0.17
-2.06

> <PUBCHEM_SHAPE_SELFOVERLAP>
1545.242

> <PUBCHEM_SHAPE_VOLUME>
381.1

> <PUBCHEM_COORDINATE_TYPE>
2
5
10

$$$$
