23401001
  -OEChem-10062122033D

 45 47  0     0  0  0  0  0  0999 V2000
   -1.9513   -2.2457   -0.3069 S   0  0  0  0  0  0  0  0  0  0  0  0
    6.8230   -0.5201    0.2434 O   0  0  0  0  0  0  0  0  0  0  0  0
   -5.6381   -1.0446    0.0570 O   0  0  0  0  0  0  0  0  0  0  0  0
    2.6605   -0.2904   -0.0175 N   0  0  0  0  0  0  0  0  0  0  0  0
    0.5043   -1.2290   -0.1568 N   0  0  0  0  0  0  0  0  0  0  0  0
   -3.7122    1.1252    0.4397 N   0  0  0  0  0  0  0  0  0  0  0  0
   -4.7450   -3.0780   -0.4098 N   0  0  0  0  0  0  0  0  0  0  0  0
    5.5042   -0.7292   -0.2471 C   0  0  0  0  0  0  0  0  0  0  0  0
    4.6698   -1.4525    0.8057 C   0  0  0  0  0  0  0  0  0  0  0  0
    4.8786    0.6235   -0.5680 C   0  0  0  0  0  0  0  0  0  0  0  0
    3.2166   -1.5972    0.3634 C   0  0  0  0  0  0  0  0  0  0  0  0
    3.4231    0.4813   -1.0061 C   0  0  0  0  0  0  0  0  0  0  0  0
    1.2703   -0.1368    0.0512 C   0  0  0  0  0  0  0  0  0  0  0  0
   -0.5706    1.3336    0.4033 C   0  0  0  0  0  0  0  0  0  0  0  0
    0.8045    1.1363    0.3279 C   0  0  0  0  0  0  0  0  0  0  0  0
   -1.4268    0.2330    0.1959 C   0  0  0  0  0  0  0  0  0  0  0  0
   -1.0646    2.7141    0.7044 C   0  0  0  0  0  0  0  0  0  0  0  0
   -0.8213   -0.9899   -0.0738 C   0  0  0  0  0  0  0  0  0  0  0  0
   -2.8527    0.1029    0.2046 C   0  0  0  0  0  0  0  0  0  0  0  0
   -1.2892    3.5362   -0.5700 C   0  0  0  0  0  0  0  0  0  0  0  0
   -3.2680   -1.1850   -0.0531 C   0  0  0  0  0  0  0  0  0  0  0  0
   -1.8220    4.9257   -0.2582 C   0  0  0  0  0  0  0  0  0  0  0  0
   -4.5933   -1.7135   -0.1293 C   0  0  0  0  0  0  0  0  0  0  0  0
    5.5739   -1.3335   -1.1592 H   0  0  0  0  0  0  0  0  0  0  0  0
    4.7184   -0.9001    1.7536 H   0  0  0  0  0  0  0  0  0  0  0  0
    5.1003   -2.4394    1.0134 H   0  0  0  0  0  0  0  0  0  0  0  0
    5.4598    1.1279   -1.3493 H   0  0  0  0  0  0  0  0  0  0  0  0
    4.9388    1.2740    0.3149 H   0  0  0  0  0  0  0  0  0  0  0  0
    3.1468   -2.2893   -0.4851 H   0  0  0  0  0  0  0  0  0  0  0  0
    2.6514   -2.0328    1.1970 H   0  0  0  0  0  0  0  0  0  0  0  0
    3.0103    1.4857   -1.1524 H   0  0  0  0  0  0  0  0  0  0  0  0
    3.3719   -0.0287   -1.9762 H   0  0  0  0  0  0  0  0  0  0  0  0
    1.4862    1.9646    0.4993 H   0  0  0  0  0  0  0  0  0  0  0  0
   -1.9318    2.7065    1.3675 H   0  0  0  0  0  0  0  0  0  0  0  0
   -0.3038    3.2314    1.3078 H   0  0  0  0  0  0  0  0  0  0  0  0
    7.1999   -1.3922    0.4507 H   0  0  0  0  0  0  0  0  0  0  0  0
   -0.3492    3.6291   -1.1279 H   0  0  0  0  0  0  0  0  0  0  0  0
   -1.9977    3.0243   -1.2320 H   0  0  0  0  0  0  0  0  0  0  0  0
   -2.7824    4.8682    0.2639 H   0  0  0  0  0  0  0  0  0  0  0  0
   -1.1205    5.4822    0.3715 H   0  0  0  0  0  0  0  0  0  0  0  0
   -1.9711    5.4913   -1.1833 H   0  0  0  0  0  0  0  0  0  0  0  0
   -3.4589    2.1023    0.4800 H   0  0  0  0  0  0  0  0  0  0  0  0
   -4.7169    0.9759    0.4780 H   0  0  0  0  0  0  0  0  0  0  0  0
   -3.9494   -3.6891   -0.5643 H   0  0  0  0  0  0  0  0  0  0  0  0
   -5.6666   -3.4983   -0.4664 H   0  0  0  0  0  0  0  0  0  0  0  0
  1 18  1  0  0  0  0
  1 21  1  0  0  0  0
  2  8  1  0  0  0  0
  2 36  1  0  0  0  0
  3 23  2  0  0  0  0
  4 11  1  0  0  0  0
  4 12  1  0  0  0  0
  4 13  1  0  0  0  0
  5 13  2  0  0  0  0
  5 18  1  0  0  0  0
  6 19  1  0  0  0  0
  6 42  1  0  0  0  0
  6 43  1  0  0  0  0
  7 23  1  0  0  0  0
  7 44  1  0  0  0  0
  7 45  1  0  0  0  0
  8  9  1  0  0  0  0
  8 10  1  0  0  0  0
  8 24  1  0  0  0  0
  9 11  1  0  0  0  0
  9 25  1  0  0  0  0
  9 26  1  0  0  0  0
 10 12  1  0  0  0  0
 10 27  1  0  0  0  0
 10 28  1  0  0  0  0
 11 29  1  0  0  0  0
 11 30  1  0  0  0  0
 12 31  1  0  0  0  0
 12 32  1  0  0  0  0
 13 15  1  0  0  0  0
 14 15  2  0  0  0  0
 14 16  1  0  0  0  0
 14 17  1  0  0  0  0
 15 33  1  0  0  0  0
 16 18  2  0  0  0  0
 16 19  1  0  0  0  0
 17 20  1  0  0  0  0
 17 34  1  0  0  0  0
 17 35  1  0  0  0  0
 19 21  2  0  0  0  0
 20 22  1  0  0  0  0
 20 37  1  0  0  0  0
 20 38  1  0  0  0  0
 21 23  1  0  0  0  0
 22 39  1  0  0  0  0
 22 40  1  0  0  0  0
 22 41  1  0  0  0  0
M  END
> <PUBCHEM_COMPOUND_CID>
23401001

> <PUBCHEM_CONFORMER_RMSD>
0.8

> <PUBCHEM_CONFORMER_DIVERSEORDER>
1
22
20
19
3
18
10
16
5
26
12
15
9
27
28
13
8
14
17
2
29
30
31
6
24
11
25
21
7
4
23

> <PUBCHEM_MMFF94_PARTIAL_CHARGES>
24
1 -0.08
11 0.37
12 0.37
13 0.41
14 -0.14
15 -0.15
17 0.14
18 0.3
19 0.08
2 -0.68
21 -0.05
23 0.71
3 -0.57
33 0.15
36 0.4
4 -0.84
42 0.4
43 0.4
44 0.37
45 0.37
5 -0.57
6 -0.88
7 -0.8
8 0.28

> <PUBCHEM_EFFECTIVE_ROTOR_COUNT>
5.2

> <PUBCHEM_PHARMACOPHORE_FEATURES>
11
1 2 acceptor
1 2 donor
1 22 hydrophobe
1 3 acceptor
1 6 cation
1 6 donor
1 7 donor
3 4 5 13 cation
5 1 16 18 19 21 rings
6 4 8 9 10 11 12 rings
6 5 13 14 15 16 18 rings

> <PUBCHEM_HEAVY_ATOM_COUNT>
23

> <PUBCHEM_ATOM_DEF_STEREO_COUNT>
0

> <PUBCHEM_ATOM_UDEF_STEREO_COUNT>
0

> <PUBCHEM_BOND_DEF_STEREO_COUNT>
0

> <PUBCHEM_BOND_UDEF_STEREO_COUNT>
0

> <PUBCHEM_ISOTOPIC_ATOM_COUNT>
0

> <PUBCHEM_COMPONENT_COUNT>
1

> <PUBCHEM_CACTVS_TAUTO_COUNT>
5

> <PUBCHEM_CONFORMER_ID>
0165122900000001

> <PUBCHEM_MMFF94_ENERGY>
60.5082

> <PUBCHEM_FEATURE_SELFOVERLAP>
55.897

> <PUBCHEM_SHAPE_FINGERPRINT>
10319926 262 18125982907659666330
10411042 1 18339079414698898323
10595046 47 18334579019533524258
11045515 52 18187080685096637165
11056379 131 18339649923509599382
11265709 11 18410576214476887177
12107183 9 17541372441752672754
12166972 35 17822293538905570348
12236239 1 18261112963785162398
12403259 226 18342171180950398328
12403260 363 18260551109101233700
12516196 113 18338515351805771419
12553582 1 18341037618521212591
12788726 201 18334287639381379242
13004483 165 18410567413856802053
13140716 1 18342739632925490681
13288520 33 18342177782140876815
13583140 156 17773858836838215266
138480 1 15528551303849145189
13862211 1 18342175617519830615
13955234 65 17618791696879583369
14347332 77 18338800009859806710
14508225 48 18340194276482008709
15042514 8 18412547587486504443
15196674 1 18412545431048762586
16087824 20 18338516319471469701
17349148 13 17894351073267629706
17492 89 18266740186781636426
17539 30 18339634556280742357
1813 80 18271258221471432893
19427546 20 18335986367904034188
200 152 18333167280277798762
20642791 105 18264761074140393824
21029758 27 18339365270473419295
21033648 29 12974178457832887398
21033650 10 18120120324328474990
21049683 271 18044665445092232397
21267235 1 18411989091024207642
21285901 2 17988095416997455591
21426921 1 18338516331237623872
21641784 216 18188224138366065948
21792961 116 18186514389754017055
22182313 1 18195501883408874377
22950370 63 18411140281132796603
2297311 6 18202010919341218494
23366157 5 17759796344769112925
23402539 116 18412824685511706567
23557571 272 18202290190778082270
23558518 356 18117848698286757922
23559900 14 18122899000654946571
23566358 27 17691686010576477199
23598288 3 18196920090041348662
266924 1 17896028863022643426
283562 15 18335983077758287707
3004659 81 18186798110671569270
3178227 256 18265349451123439571
335352 9 18412823612777535679
34797466 226 17632305610124856076
350125 39 18339362968192198424
4409770 3 18263918844339619773
5104073 3 18343585161356048754
68521 5 18411139117006482509
7164475 11 18336829697812184238
77188 2 18338797952475623621
8863177 126 17828212313637325235

> <PUBCHEM_SHAPE_MULTIPOLES>
445.52
11.82
4.05
0.78
12.23
5.7
-0.02
-7.79
-0.31
-5.65
-0.45
0.29
0.1
-0.78

> <PUBCHEM_SHAPE_SELFOVERLAP>
940.05

> <PUBCHEM_SHAPE_VOLUME>
253

> <PUBCHEM_COORDINATE_TYPE>
2
5
10

$$$$
