44352785
  -OEChem-10052115163D

 73 81  0     1  0  0  0  0  0999 V2000
   -9.3392   -0.8444   -2.4395 Cl  0  0  0  0  0  0  0  0  0  0  0  0
    0.3476   -0.0657    2.4879 O   0  0  0  0  0  0  0  0  0  0  0  0
   -0.9679    0.5914   -0.5056 O   0  0  0  0  0  0  0  0  0  0  0  0
    6.1427   -1.9413   -1.6344 O   0  0  0  0  0  0  0  0  0  0  0  0
   -4.2819    1.4693    1.1507 O   0  0  0  0  0  0  0  0  0  0  0  0
    1.0844    1.4938    0.9276 N   0  0  0  0  0  0  0  0  0  0  0  0
    1.3210   -1.4973    0.9342 N   0  0  0  0  0  0  0  0  0  0  0  0
   -3.3173   -0.6013    0.6495 N   0  0  0  0  0  0  0  0  0  0  0  0
    6.3360    0.3802   -1.8534 N   0  0  0  0  0  0  0  0  0  0  0  0
   -0.0587    1.0733    1.7240 C   0  0  1  0  0  0  0  0  0  0  0  0
   -1.3300    0.8328    0.8612 C   0  0  2  0  0  0  0  0  0  0  0  0
    0.2225   -1.3155    1.8552 C   0  0  2  0  0  0  0  0  0  0  0  0
   -2.0901   -0.3862    1.3766 C   0  0  2  0  0  0  0  0  0  0  0  0
   -1.1745   -1.6037    1.2870 C   0  0  0  0  0  0  0  0  0  0  0  0
    2.1437    0.7792    0.4184 C   0  0  0  0  0  0  0  0  0  0  0  0
    2.2520   -0.6426    0.4121 C   0  0  0  0  0  0  0  0  0  0  0  0
    3.2311    1.4669   -0.2400 C   0  0  0  0  0  0  0  0  0  0  0  0
    3.4367   -1.1686   -0.2463 C   0  0  0  0  0  0  0  0  0  0  0  0
    1.3676    2.7811    0.4480 C   0  0  0  0  0  0  0  0  0  0  0  0
   -0.3915    2.0520    2.8749 C   0  0  0  0  0  0  0  0  0  0  0  0
    1.8452   -2.7442    0.5784 C   0  0  0  0  0  0  0  0  0  0  0  0
    2.6632    2.8074   -0.1518 C   0  0  0  0  0  0  0  0  0  0  0  0
    4.3921    0.9477   -0.8037 C   0  0  0  0  0  0  0  0  0  0  0  0
    4.4834   -0.4355   -0.8013 C   0  0  0  0  0  0  0  0  0  0  0  0
    3.0874   -2.5874   -0.1051 C   0  0  0  0  0  0  0  0  0  0  0  0
    5.5684    1.5536   -1.4929 C   0  0  0  0  0  0  0  0  0  0  0  0
    0.5867    3.9555    0.4698 C   0  0  0  0  0  0  0  0  0  0  0  0
    5.7296   -0.8108   -1.4663 C   0  0  0  0  0  0  0  0  0  0  0  0
    1.3126   -4.0258    0.8333 C   0  0  0  0  0  0  0  0  0  0  0  0
    3.1611    4.0473   -0.6273 C   0  0  0  0  0  0  0  0  0  0  0  0
   -3.4455   -1.8932   -0.0345 C   0  0  0  0  0  0  0  0  0  0  0  0
    3.7483   -3.7703   -0.5244 C   0  0  0  0  0  0  0  0  0  0  0  0
   -4.3316    0.3704    0.5991 C   0  0  0  0  0  0  0  0  0  0  0  0
   -2.0582    0.8311   -1.3861 C   0  0  0  0  0  0  0  0  0  0  0  0
    1.1115    5.1546   -0.0189 C   0  0  0  0  0  0  0  0  0  0  0  0
    2.3902    5.2063   -0.5465 C   0  0  0  0  0  0  0  0  0  0  0  0
    2.0024   -5.1577    0.4018 C   0  0  0  0  0  0  0  0  0  0  0  0
    3.2061   -5.0333   -0.2703 C   0  0  0  0  0  0  0  0  0  0  0  0
   -5.5636    0.0723   -0.1485 C   0  0  0  0  0  0  0  0  0  0  0  0
   -6.6416   -0.5332    0.4975 C   0  0  0  0  0  0  0  0  0  0  0  0
   -5.6533    0.3939   -1.5028 C   0  0  0  0  0  0  0  0  0  0  0  0
   -7.8092   -0.8169   -0.2109 C   0  0  0  0  0  0  0  0  0  0  0  0
   -6.8209    0.1102   -2.2111 C   0  0  0  0  0  0  0  0  0  0  0  0
   -7.8989   -0.4952   -1.5652 C   0  0  0  0  0  0  0  0  0  0  0  0
   -1.9229    1.7525    0.8929 H   0  0  0  0  0  0  0  0  0  0  0  0
    0.4048   -2.0458    2.6543 H   0  0  0  0  0  0  0  0  0  0  0  0
   -2.3750   -0.2130    2.4225 H   0  0  0  0  0  0  0  0  0  0  0  0
   -1.6063   -2.4333    1.8622 H   0  0  0  0  0  0  0  0  0  0  0  0
   -1.0309   -1.9738    0.2676 H   0  0  0  0  0  0  0  0  0  0  0  0
   -1.0410    1.5696    3.6168 H   0  0  0  0  0  0  0  0  0  0  0  0
   -0.9090    2.9565    2.5536 H   0  0  0  0  0  0  0  0  0  0  0  0
    0.5175    2.3504    3.4115 H   0  0  0  0  0  0  0  0  0  0  0  0
    5.2894    2.0878   -2.4043 H   0  0  0  0  0  0  0  0  0  0  0  0
    6.1652    2.1803   -0.8261 H   0  0  0  0  0  0  0  0  0  0  0  0
   -0.4311    3.9543    0.8411 H   0  0  0  0  0  0  0  0  0  0  0  0
    0.3698   -4.1451    1.3592 H   0  0  0  0  0  0  0  0  0  0  0  0
    4.1457    4.1021   -1.0850 H   0  0  0  0  0  0  0  0  0  0  0  0
   -2.6856   -2.0224   -0.8076 H   0  0  0  0  0  0  0  0  0  0  0  0
   -4.4036   -2.0031   -0.5448 H   0  0  0  0  0  0  0  0  0  0  0  0
   -3.4081   -2.7044    0.6985 H   0  0  0  0  0  0  0  0  0  0  0  0
    4.6915   -3.7223   -1.0567 H   0  0  0  0  0  0  0  0  0  0  0  0
    7.2253    0.4202   -2.3414 H   0  0  0  0  0  0  0  0  0  0  0  0
   -1.6129    1.1757   -2.3269 H   0  0  0  0  0  0  0  0  0  0  0  0
   -2.7147    1.6419   -1.0620 H   0  0  0  0  0  0  0  0  0  0  0  0
   -2.5862   -0.0793   -1.6544 H   0  0  0  0  0  0  0  0  0  0  0  0
    0.5042    6.0554    0.0119 H   0  0  0  0  0  0  0  0  0  0  0  0
    2.7855    6.1451   -0.9238 H   0  0  0  0  0  0  0  0  0  0  0  0
    1.5902   -6.1441    0.5957 H   0  0  0  0  0  0  0  0  0  0  0  0
    3.7351   -5.9219   -0.6036 H   0  0  0  0  0  0  0  0  0  0  0  0
   -6.5815   -0.7885    1.5523 H   0  0  0  0  0  0  0  0  0  0  0  0
   -4.8299    0.8741   -2.0214 H   0  0  0  0  0  0  0  0  0  0  0  0
   -8.6411   -1.2891    0.3054 H   0  0  0  0  0  0  0  0  0  0  0  0
   -6.8774    0.3684   -3.2654 H   0  0  0  0  0  0  0  0  0  0  0  0
  1 44  1  0  0  0  0
  2 10  1  0  0  0  0
  2 12  1  0  0  0  0
  3 11  1  0  0  0  0
  3 34  1  0  0  0  0
  4 28  2  0  0  0  0
  5 33  2  0  0  0  0
  6 10  1  0  0  0  0
  6 15  1  0  0  0  0
  6 19  1  0  0  0  0
  7 12  1  0  0  0  0
  7 16  1  0  0  0  0
  7 21  1  0  0  0  0
  8 13  1  0  0  0  0
  8 31  1  0  0  0  0
  8 33  1  0  0  0  0
  9 26  1  0  0  0  0
  9 28  1  0  0  0  0
  9 62  1  0  0  0  0
 10 11  1  0  0  0  0
 10 20  1  0  0  0  0
 11 13  1  0  0  0  0
 11 45  1  0  0  0  0
 12 14  1  0  0  0  0
 12 46  1  0  0  0  0
 13 14  1  0  0  0  0
 13 47  1  0  0  0  0
 14 48  1  0  0  0  0
 14 49  1  0  0  0  0
 15 16  2  0  0  0  0
 15 17  1  0  0  0  0
 16 18  1  0  0  0  0
 17 22  1  0  0  0  0
 17 23  2  0  0  0  0
 18 24  2  0  0  0  0
 18 25  1  0  0  0  0
 19 22  1  0  0  0  0
 19 27  2  0  0  0  0
 20 50  1  0  0  0  0
 20 51  1  0  0  0  0
 20 52  1  0  0  0  0
 21 25  1  0  0  0  0
 21 29  2  0  0  0  0
 22 30  2  0  0  0  0
 23 24  1  0  0  0  0
 23 26  1  0  0  0  0
 24 28  1  0  0  0  0
 25 32  2  0  0  0  0
 26 53  1  0  0  0  0
 26 54  1  0  0  0  0
 27 35  1  0  0  0  0
 27 55  1  0  0  0  0
 29 37  1  0  0  0  0
 29 56  1  0  0  0  0
 30 36  1  0  0  0  0
 30 57  1  0  0  0  0
 31 58  1  0  0  0  0
 31 59  1  0  0  0  0
 31 60  1  0  0  0  0
 32 38  1  0  0  0  0
 32 61  1  0  0  0  0
 33 39  1  0  0  0  0
 34 63  1  0  0  0  0
 34 64  1  0  0  0  0
 34 65  1  0  0  0  0
 35 36  2  0  0  0  0
 35 66  1  0  0  0  0
 36 67  1  0  0  0  0
 37 38  2  0  0  0  0
 37 68  1  0  0  0  0
 38 69  1  0  0  0  0
 39 40  2  0  0  0  0
 39 41  1  0  0  0  0
 40 42  1  0  0  0  0
 40 70  1  0  0  0  0
 41 43  2  0  0  0  0
 41 71  1  0  0  0  0
 42 44  2  0  0  0  0
 42 72  1  0  0  0  0
 43 44  1  0  0  0  0
 43 73  1  0  0  0  0
M  END
> <PUBCHEM_COMPOUND_CID>
44352785

> <PUBCHEM_CONFORMER_RMSD>
1

> <PUBCHEM_CONFORMER_DIVERSEORDER>
1
5
6
3
2
4

> <PUBCHEM_MMFF94_PARTIAL_CHARGES>
53
1 -0.18
10 0.54
11 0.28
12 0.54
13 0.3
15 -0.05
16 -0.05
17 -0.01
18 -0.01
19 -0.15
2 -0.56
21 -0.15
23 -0.14
24 0.09
26 0.44
27 -0.15
28 0.54
29 -0.15
3 -0.56
30 -0.15
31 0.3
32 -0.15
33 0.54
34 0.28
35 -0.15
36 -0.15
37 -0.15
38 -0.15
39 0.09
4 -0.57
40 -0.15
41 -0.15
42 -0.15
43 -0.15
44 0.18
5 -0.57
55 0.15
56 0.15
57 0.15
6 -0.04
61 0.15
62 0.37
66 0.15
67 0.15
68 0.15
69 0.15
7 -0.04
70 0.15
71 0.15
72 0.15
73 0.15
8 -0.66
9 -0.73

> <PUBCHEM_EFFECTIVE_ROTOR_COUNT>
5.2

> <PUBCHEM_PHARMACOPHORE_FEATURES>
16
1 2 acceptor
1 3 acceptor
1 4 acceptor
1 5 acceptor
1 6 cation
1 7 cation
1 9 donor
5 6 15 17 19 22 rings
5 7 16 18 21 25 rings
5 9 23 24 26 28 rings
6 15 16 17 18 23 24 rings
6 19 22 27 30 35 36 rings
6 2 10 11 12 13 14 rings
6 21 25 29 32 37 38 rings
6 39 40 41 42 43 44 rings
7 2 6 7 10 12 15 16 rings

> <PUBCHEM_HEAVY_ATOM_COUNT>
44

> <PUBCHEM_ATOM_DEF_STEREO_COUNT>
4

> <PUBCHEM_ATOM_UDEF_STEREO_COUNT>
0

> <PUBCHEM_BOND_DEF_STEREO_COUNT>
0

> <PUBCHEM_BOND_UDEF_STEREO_COUNT>
0

> <PUBCHEM_ISOTOPIC_ATOM_COUNT>
0

> <PUBCHEM_COMPONENT_COUNT>
1

> <PUBCHEM_CACTVS_TAUTO_COUNT>
2

> <PUBCHEM_CONFORMER_ID>
02A4C51100000001

> <PUBCHEM_MMFF94_ENERGY>
205.7771

> <PUBCHEM_FEATURE_SELFOVERLAP>
82.158

> <PUBCHEM_SHAPE_FINGERPRINT>
10622 236 18128815231979156387
10675989 125 18339646745018263433
10693767 8 18201725003257976606
10930396 42 18340187680372137152
11115154 58 17989211426180483417
11135926 11 18337406971297350346
11181472 205 18411130300894930093
12047536 79 7780702294012885559
12608794 3 17976508897246468324
1361 2 18410577313861881970
13636023 20 18342176609862452216
13911987 19 18190206592876096476
14068700 675 18060143102904663896
14117953 113 18410298034573750356
14400156 96 11887084636708198611
14415360 78 18192711370136971052
15082195 135 18410849993194522075
15183329 4 18411419506057820947
15324884 4 17608672822154351264
15328829 1 17631192839400073939
15439362 3 18122911099214686476
15444296 8 17549836486120676526
15484559 13 18410571803799448390
15950262 2 15214734682523387766
19319366 153 18200304562919988281
20775438 99 17984691483806496436
21133410 127 17250340968855355229
21133410 171 17391606922813435194
22121540 332 17386544926445732901
23522609 53 17845394244869273057
23559900 14 18339644559074744225
23569914 152 17543880453851187743
24771293 8 18272091613269560736
24771750 20 17971772209105640957
255183 451 18199466567609003679
3388396 114 18193014638157088478
3504750 166 16532279053276019402
376196 1 17898281964422688913
3882209 13 17899963942731470234
4015057 19 18334864866470867179
4066623 53 18041554724933771188
42767 46 16988554724257395727
4353968 344 18123481475952371382
45266715 3 18272086141385766472
46194498 28 18260819385331986615
57527452 28 15985116201675219300
6004065 56 18411420644024136152
6058803 2 17767701459642434442

> <PUBCHEM_SHAPE_MULTIPOLES>
863.97
17.3
6.12
1.98
42.11
0.31
-0.2
-4.84
15.44
-10.98
-0.2
1.41
0.23
-0.51

> <PUBCHEM_SHAPE_SELFOVERLAP>
1975.815

> <PUBCHEM_SHAPE_VOLUME>
448.5

> <PUBCHEM_COORDINATE_TYPE>
2
5
10

$$$$
