11620055
  -OEChem-10052120443D

 62 65  0     1  0  0  0  0  0999 V2000
   -5.4046   -4.4832   -1.2702 Cl  0  0  0  0  0  0  0  0  0  0  0  0
   -3.5126   -2.2955   -1.8776 F   0  0  0  0  0  0  0  0  0  0  0  0
    4.3124   -0.6516   -2.1789 O   0  0  0  0  0  0  0  0  0  0  0  0
    2.0934    3.8607    0.0443 O   0  0  0  0  0  0  0  0  0  0  0  0
    2.1314   -0.2059    0.2673 N   0  0  2  0  0  0  0  0  0  0  0  0
    5.7683   -2.1563    1.1960 N   0  0  0  0  0  0  0  0  0  0  0  0
    2.3691   -1.8677   -1.9816 N   0  0  0  0  0  0  0  0  0  0  0  0
   -2.6498    3.9717    0.4270 N   0  0  0  0  0  0  0  0  0  0  0  0
   -2.9191   -0.0931   -0.3044 N   0  0  0  0  0  0  0  0  0  0  0  0
   -3.9588    1.9667    0.1560 N   0  0  0  0  0  0  0  0  0  0  0  0
    3.3721   -0.9363    0.0089 C   0  0  0  0  0  0  0  0  0  0  0  0
    4.5728   -0.1075    0.4824 C   0  0  0  0  0  0  0  0  0  0  0  0
    3.3392   -2.2905    0.7285 C   0  0  0  0  0  0  0  0  0  0  0  0
    5.8798   -0.9074    0.4311 C   0  0  0  0  0  0  0  0  0  0  0  0
    4.6935   -3.0070    0.6681 C   0  0  0  0  0  0  0  0  0  0  0  0
    3.4185   -1.1310   -1.4856 C   0  0  0  0  0  0  0  0  0  0  0  0
    2.1161    1.0527   -0.4766 C   0  0  0  0  0  0  0  0  0  0  0  0
    1.9752    0.0438    1.6994 C   0  0  0  0  0  0  0  0  0  0  0  0
    7.0416   -2.8767    1.1870 C   0  0  0  0  0  0  0  0  0  0  0  0
    0.8554    1.8321   -0.2363 C   0  0  0  0  0  0  0  0  0  0  0  0
    0.9051    3.1946    0.0120 C   0  0  0  0  0  0  0  0  0  0  0  0
   -0.3642    1.1721   -0.2653 C   0  0  0  0  0  0  0  0  0  0  0  0
   -1.5508    1.8921   -0.0415 C   0  0  0  0  0  0  0  0  0  0  0  0
   -0.2793    3.9035    0.2335 C   0  0  0  0  0  0  0  0  0  0  0  0
   -1.5212    3.2733    0.2116 C   0  0  0  0  0  0  0  0  0  0  0  0
   -2.8096    1.2978   -0.0553 C   0  0  0  0  0  0  0  0  0  0  0  0
    2.5629    4.4078   -1.1861 C   0  0  0  0  0  0  0  0  0  0  0  0
   -3.8071    3.2807    0.3871 C   0  0  0  0  0  0  0  0  0  0  0  0
   -3.8462   -1.0601    0.1151 C   0  0  0  0  0  0  0  0  0  0  0  0
   -4.1313   -2.1644   -0.6941 C   0  0  0  0  0  0  0  0  0  0  0  0
   -4.4919   -0.9247    1.3482 C   0  0  0  0  0  0  0  0  0  0  0  0
   -5.0531   -3.1236   -0.2744 C   0  0  0  0  0  0  0  0  0  0  0  0
   -5.4134   -1.8838    1.7678 C   0  0  0  0  0  0  0  0  0  0  0  0
   -5.6939   -2.9833    0.9567 C   0  0  0  0  0  0  0  0  0  0  0  0
    4.4775    0.2262    1.5203 H   0  0  0  0  0  0  0  0  0  0  0  0
    4.7460    0.7891   -0.1236 H   0  0  0  0  0  0  0  0  0  0  0  0
    2.5671   -2.9612    0.3343 H   0  0  0  0  0  0  0  0  0  0  0  0
    3.1368   -2.2080    1.7988 H   0  0  0  0  0  0  0  0  0  0  0  0
    6.1771   -1.1101   -0.6046 H   0  0  0  0  0  0  0  0  0  0  0  0
    6.6713   -0.2839    0.8664 H   0  0  0  0  0  0  0  0  0  0  0  0
    4.9073   -3.3152   -0.3637 H   0  0  0  0  0  0  0  0  0  0  0  0
    4.6206   -3.9236    1.2669 H   0  0  0  0  0  0  0  0  0  0  0  0
    2.9663    1.6835   -0.2091 H   0  0  0  0  0  0  0  0  0  0  0  0
    2.1550    0.9063   -1.5624 H   0  0  0  0  0  0  0  0  0  0  0  0
    0.9734    0.4356    1.9121 H   0  0  0  0  0  0  0  0  0  0  0  0
    2.6640    0.7890    2.1104 H   0  0  0  0  0  0  0  0  0  0  0  0
    1.9939   -0.8420    2.3342 H   0  0  0  0  0  0  0  0  0  0  0  0
    7.3475   -3.1652    0.1749 H   0  0  0  0  0  0  0  0  0  0  0  0
    7.8352   -2.2612    1.6252 H   0  0  0  0  0  0  0  0  0  0  0  0
    6.9749   -3.7832    1.7988 H   0  0  0  0  0  0  0  0  0  0  0  0
    1.6033   -2.1953   -1.4024 H   0  0  0  0  0  0  0  0  0  0  0  0
    2.2980   -2.0641   -2.9745 H   0  0  0  0  0  0  0  0  0  0  0  0
   -0.3885    0.1058   -0.4722 H   0  0  0  0  0  0  0  0  0  0  0  0
   -0.2270    4.9737    0.4284 H   0  0  0  0  0  0  0  0  0  0  0  0
    3.5441    4.8566   -1.0087 H   0  0  0  0  0  0  0  0  0  0  0  0
    2.6680    3.6279   -1.9469 H   0  0  0  0  0  0  0  0  0  0  0  0
    1.8808    5.1870   -1.5407 H   0  0  0  0  0  0  0  0  0  0  0  0
   -2.3505   -0.4009   -1.0887 H   0  0  0  0  0  0  0  0  0  0  0  0
   -4.7126    3.8490    0.5617 H   0  0  0  0  0  0  0  0  0  0  0  0
   -4.2811   -0.0851    2.0054 H   0  0  0  0  0  0  0  0  0  0  0  0
   -5.9102   -1.7764    2.7276 H   0  0  0  0  0  0  0  0  0  0  0  0
   -6.4138   -3.7231    1.2974 H   0  0  0  0  0  0  0  0  0  0  0  0
  1 32  1  0  0  0  0
  2 30  1  0  0  0  0
  3 16  2  0  0  0  0
  4 21  1  0  0  0  0
  4 27  1  0  0  0  0
  5 11  1  0  0  0  0
  5 17  1  0  0  0  0
  5 18  1  0  0  0  0
  6 14  1  0  0  0  0
  6 15  1  0  0  0  0
  6 19  1  0  0  0  0
  7 16  1  0  0  0  0
  7 51  1  0  0  0  0
  7 52  1  0  0  0  0
  8 25  1  0  0  0  0
  8 28  2  0  0  0  0
  9 26  1  0  0  0  0
  9 29  1  0  0  0  0
  9 58  1  0  0  0  0
 10 26  2  0  0  0  0
 10 28  1  0  0  0  0
 11 12  1  0  0  0  0
 11 13  1  0  0  0  0
 11 16  1  0  0  0  0
 12 14  1  0  0  0  0
 12 35  1  0  0  0  0
 12 36  1  0  0  0  0
 13 15  1  0  0  0  0
 13 37  1  0  0  0  0
 13 38  1  0  0  0  0
 14 39  1  0  0  0  0
 14 40  1  0  0  0  0
 15 41  1  0  0  0  0
 15 42  1  0  0  0  0
 17 20  1  0  0  0  0
 17 43  1  0  0  0  0
 17 44  1  0  0  0  0
 18 45  1  0  0  0  0
 18 46  1  0  0  0  0
 18 47  1  0  0  0  0
 19 48  1  0  0  0  0
 19 49  1  0  0  0  0
 19 50  1  0  0  0  0
 20 21  1  0  0  0  0
 20 22  2  0  0  0  0
 21 24  2  0  0  0  0
 22 23  1  0  0  0  0
 22 53  1  0  0  0  0
 23 25  2  0  0  0  0
 23 26  1  0  0  0  0
 24 25  1  0  0  0  0
 24 54  1  0  0  0  0
 27 55  1  0  0  0  0
 27 56  1  0  0  0  0
 27 57  1  0  0  0  0
 28 59  1  0  0  0  0
 29 30  2  0  0  0  0
 29 31  1  0  0  0  0
 30 32  1  0  0  0  0
 31 33  2  0  0  0  0
 31 60  1  0  0  0  0
 32 34  2  0  0  0  0
 33 34  1  0  0  0  0
 33 61  1  0  0  0  0
 34 62  1  0  0  0  0
M  END
> <PUBCHEM_COMPOUND_CID>
11620055

> <PUBCHEM_CONFORMER_RMSD>
1

> <PUBCHEM_CONFORMER_DIVERSEORDER>
2
128
43
133
9
109
102
105
51
95
59
25
73
115
45
19
72
124
108
47
88
122
79
40
130
106
125
94
70
35
114
53
69
123
66
99
67
101
63
117
31
90
116
83
62
134
26
52
84
78
112
61
41
54
56
74
4
50
132
10
135
82
5
23
16
7
42
96
127
58
120
103
38
75
92
28
65
113
119
15
71
20
13
12
93
64
118
37
3
121
131
111
8
89
97
60
81
129
100
77
136
30
57
14
48
46
49
22
11
39
110
29
33
86
36
76
104
21
91
32
6
80
18
98
34
55
126
44
85
107
17
24
27
87
1
68

> <PUBCHEM_MMFF94_PARTIAL_CHARGES>
40
1 -0.18
10 -0.62
11 0.33
14 0.27
15 0.27
16 0.57
17 0.41
18 0.27
19 0.27
2 -0.19
20 -0.14
21 0.08
22 -0.15
24 -0.15
25 0.31
26 0.41
27 0.28
28 0.47
29 0.1
3 -0.57
30 0.19
31 -0.15
32 0.18
33 -0.15
34 -0.15
4 -0.36
5 -0.81
51 0.37
52 0.37
53 0.15
54 0.15
58 0.4
59 0.15
6 -0.81
60 0.15
61 0.15
62 0.15
7 -0.8
8 -0.62
9 -0.6

> <PUBCHEM_EFFECTIVE_ROTOR_COUNT>
8.2

> <PUBCHEM_PHARMACOPHORE_FEATURES>
12
1 3 acceptor
1 4 acceptor
1 5 cation
1 6 cation
1 7 donor
1 9 donor
3 8 10 28 cation
3 9 10 26 cation
6 20 21 22 23 24 25 rings
6 29 30 31 32 33 34 rings
6 6 11 12 13 14 15 rings
6 8 10 23 25 26 28 rings

> <PUBCHEM_HEAVY_ATOM_COUNT>
34

> <PUBCHEM_ATOM_DEF_STEREO_COUNT>
0

> <PUBCHEM_ATOM_UDEF_STEREO_COUNT>
0

> <PUBCHEM_BOND_DEF_STEREO_COUNT>
0

> <PUBCHEM_BOND_UDEF_STEREO_COUNT>
0

> <PUBCHEM_ISOTOPIC_ATOM_COUNT>
0

> <PUBCHEM_COMPONENT_COUNT>
1

> <PUBCHEM_CACTVS_TAUTO_COUNT>
6

> <PUBCHEM_CONFORMER_ID>
00B14ED700000002

> <PUBCHEM_MMFF94_ENERGY>
132.9206

> <PUBCHEM_FEATURE_SELFOVERLAP>
61.07

> <PUBCHEM_SHAPE_FINGERPRINT>
10169797 241 18267039412704609690
10622 236 18187078430075354186
10928967 22 18338530741132814711
10940486 97 18263649472000734572
11135609 99 18118685414447348090
11135926 11 17903918103992412317
11607047 403 18052525871284402376
11963148 33 17978788231304074182
12107183 9 18270417052965203713
12166972 35 17675927603584235774
12990986 174 18410573942259800539
13690498 29 18336847332784644637
13911987 19 17322969201217770605
14114206 34 17530682096190842777
14429380 30 18408322219771981226
14844126 61 18337952277820161643
14863182 85 17903923601297707445
15320294 125 17681555827095982251
15320467 1 17112694250735422627
15538507 19 18337944697161913898
15803439 3 17030748280861982237
17492 89 18337106860420514961
17686467 74 18409720743940643544
19246450 95 18269292192546273523
19301676 85 18120362169484196471
19301679 30 18266468783892722571
19315092 285 17486774349213133875
19319366 153 17388831773007937129
19841028 212 18052821644466450431
20775438 99 17758666033647002219
20775530 9 18271248317435220353
21421861 104 18269006456123357525
21458453 9 17916844886417271560
21796203 349 18194150557463165970
22956985 138 18335973260202033936
23559900 14 18338504305598655897
245318 6 9039410534641092455
3383291 50 18269556032149927985
3504750 166 17538546731477186978
3737641 26 18194695980177407925
4144715 1 17911236123491565672
44880168 125 17417823815568019543
4616759 239 17770760352825537690
463206 1 18117280246305891114
50009960 94 17970320738399060418
5486654 36 18335140860842395841
5951187 136 11027165341414500419
6058803 2 18336001825238878461
613672 6 18272087145774936167
6431902 208 18334572438652714290
6673363 416 18411989036703473940
6700243 42 17914644712121040748
70251023 43 18263080067106391817
7970288 3 18337668715189502443

> <PUBCHEM_SHAPE_MULTIPOLES>
652.68
15.02
6.56
1.48
2.54
3.92
-0.35
-20.82
3
-3.29
-0.54
0.23
-1.13
-2.47

> <PUBCHEM_SHAPE_SELFOVERLAP>
1408.162

> <PUBCHEM_SHAPE_VOLUME>
361.4

> <PUBCHEM_COORDINATE_TYPE>
2
5
10

$$$$
