135435475
  -OEChem-10052115183D

 37 39  0     0  0  0  0  0  0999 V2000
    0.1364   -0.4474    0.5843 S   0  0  0  0  0  0  0  0  0  0  0  0
   -5.2437   -1.4413   -1.1770 O   0  0  0  0  0  0  0  0  0  0  0  0
   -6.3075   -0.5269    1.2230 O   0  0  0  0  0  0  0  0  0  0  0  0
    1.1416    2.5352   -1.5968 O   0  0  0  0  0  0  0  0  0  0  0  0
    2.1396    0.7739   -0.4490 N   0  0  0  0  0  0  0  0  0  0  0  0
    2.7259   -1.1143    0.8261 N   0  0  0  0  0  0  0  0  0  0  0  0
   -2.6766    0.9488   -0.1474 C   0  0  0  0  0  0  0  0  0  0  0  0
   -0.1841    0.9532   -0.3698 C   0  0  0  0  0  0  0  0  0  0  0  0
   -1.4046    1.4685   -0.6243 C   0  0  0  0  0  0  0  0  0  0  0  0
   -3.3629   -0.0081   -0.8949 C   0  0  0  0  0  0  0  0  0  0  0  0
   -3.2105    1.4073    1.0569 C   0  0  0  0  0  0  0  0  0  0  0  0
   -4.5829   -0.5068   -0.4382 C   0  0  0  0  0  0  0  0  0  0  0  0
    1.0774    1.5389   -0.8923 C   0  0  0  0  0  0  0  0  0  0  0  0
    1.8528   -0.3080    0.3361 C   0  0  0  0  0  0  0  0  0  0  0  0
   -5.1168   -0.0481    0.7660 C   0  0  0  0  0  0  0  0  0  0  0  0
   -4.4306    0.9090    1.5136 C   0  0  0  0  0  0  0  0  0  0  0  0
    4.0685   -0.8330    0.5109 C   0  0  0  0  0  0  0  0  0  0  0  0
    4.8202   -0.0010    1.3406 C   0  0  0  0  0  0  0  0  0  0  0  0
    4.6472   -1.3859   -0.6315 C   0  0  0  0  0  0  0  0  0  0  0  0
    6.1506    0.2780    1.0278 C   0  0  0  0  0  0  0  0  0  0  0  0
    5.9777   -1.1071   -0.9441 C   0  0  0  0  0  0  0  0  0  0  0  0
    6.7295   -0.2751   -0.1144 C   0  0  0  0  0  0  0  0  0  0  0  0
   -4.9472   -2.8099   -0.9056 C   0  0  0  0  0  0  0  0  0  0  0  0
   -1.4906    2.3605   -1.2413 H   0  0  0  0  0  0  0  0  0  0  0  0
   -2.9543   -0.3703   -1.8360 H   0  0  0  0  0  0  0  0  0  0  0  0
   -2.6877    2.1534    1.6508 H   0  0  0  0  0  0  0  0  0  0  0  0
   -4.8351    1.2750    2.4535 H   0  0  0  0  0  0  0  0  0  0  0  0
    3.0841    1.0321   -0.7132 H   0  0  0  0  0  0  0  0  0  0  0  0
    4.3784    0.4344    2.2331 H   0  0  0  0  0  0  0  0  0  0  0  0
    4.0698   -2.0356   -1.2840 H   0  0  0  0  0  0  0  0  0  0  0  0
    6.7359    0.9259    1.6737 H   0  0  0  0  0  0  0  0  0  0  0  0
    6.4283   -1.5377   -1.8335 H   0  0  0  0  0  0  0  0  0  0  0  0
    7.7654   -0.0579   -0.3579 H   0  0  0  0  0  0  0  0  0  0  0  0
   -6.5180   -0.0968    2.0696 H   0  0  0  0  0  0  0  0  0  0  0  0
   -3.8907   -3.0192   -1.1017 H   0  0  0  0  0  0  0  0  0  0  0  0
   -5.1937   -3.0596    0.1311 H   0  0  0  0  0  0  0  0  0  0  0  0
   -5.5557   -3.4304   -1.5691 H   0  0  0  0  0  0  0  0  0  0  0  0
  1  8  1  0  0  0  0
  1 14  1  0  0  0  0
  2 12  1  0  0  0  0
  2 23  1  0  0  0  0
  3 15  1  0  0  0  0
  3 34  1  0  0  0  0
  4 13  2  0  0  0  0
  5 13  1  0  0  0  0
  5 14  1  0  0  0  0
  5 28  1  0  0  0  0
  6 14  2  0  0  0  0
  6 17  1  0  0  0  0
  7  9  1  0  0  0  0
  7 10  2  0  0  0  0
  7 11  1  0  0  0  0
  8  9  2  3  0  0  0
  8 13  1  0  0  0  0
  9 24  1  0  0  0  0
 10 12  1  0  0  0  0
 10 25  1  0  0  0  0
 11 16  2  0  0  0  0
 11 26  1  0  0  0  0
 12 15  2  0  0  0  0
 15 16  1  0  0  0  0
 16 27  1  0  0  0  0
 17 18  2  0  0  0  0
 17 19  1  0  0  0  0
 18 20  1  0  0  0  0
 18 29  1  0  0  0  0
 19 21  2  0  0  0  0
 19 30  1  0  0  0  0
 20 22  2  0  0  0  0
 20 31  1  0  0  0  0
 21 22  1  0  0  0  0
 21 32  1  0  0  0  0
 22 33  1  0  0  0  0
 23 35  1  0  0  0  0
 23 36  1  0  0  0  0
 23 37  1  0  0  0  0
M  END
> <PUBCHEM_COMPOUND_CID>
135435475

> <PUBCHEM_CONFORMER_RMSD>
0.6

> <PUBCHEM_CONFORMER_DIVERSEORDER>
1
6
5
2
3
4

> <PUBCHEM_MMFF94_PARTIAL_CHARGES>
34
1 -0.24
10 -0.15
11 -0.15
12 0.08
13 0.62
14 0.65
15 0.08
16 -0.15
17 0.18
18 -0.15
19 -0.15
2 -0.36
20 -0.15
21 -0.15
22 -0.15
23 0.28
24 0.15
25 0.15
26 0.15
27 0.15
28 0.37
29 0.15
3 -0.53
30 0.15
31 0.15
32 0.15
33 0.15
34 0.45
4 -0.57
5 -0.49
6 -0.63
7 0.03
8 0.12
9 -0.18

> <PUBCHEM_EFFECTIVE_ROTOR_COUNT>
3.4

> <PUBCHEM_PHARMACOPHORE_FEATURES>
7
1 2 acceptor
1 3 donor
1 4 acceptor
1 5 donor
5 1 5 8 13 14 rings
6 17 18 19 20 21 22 rings
6 7 10 11 12 15 16 rings

> <PUBCHEM_HEAVY_ATOM_COUNT>
23

> <PUBCHEM_ATOM_DEF_STEREO_COUNT>
0

> <PUBCHEM_ATOM_UDEF_STEREO_COUNT>
0

> <PUBCHEM_BOND_DEF_STEREO_COUNT>
0

> <PUBCHEM_BOND_UDEF_STEREO_COUNT>
1

> <PUBCHEM_ISOTOPIC_ATOM_COUNT>
0

> <PUBCHEM_COMPONENT_COUNT>
1

> <PUBCHEM_CACTVS_TAUTO_COUNT>
-1

> <PUBCHEM_CONFORMER_ID>
081294D300000001

> <PUBCHEM_MMFF94_ENERGY>
73.149

> <PUBCHEM_FEATURE_SELFOVERLAP>
35.522

> <PUBCHEM_SHAPE_FINGERPRINT>
10 15 15482670203834266609
10447042 23 17022896827320586706
10803635 8 14851606583277854217
11045977 3 17561073718157156841
11089746 13 8358253735606258326
11315181 36 18130785672811675481
11315621 136 18042968877096869255
12236239 1 18343022194122705892
12516196 113 18260550009135918640
12596602 18 17775283867799631442
12616971 3 18335428997587578581
12730499 353 18201152171280788194
13009979 54 18342184405544767809
13685833 64 17748834020535165553
13782708 43 18267582404493911886
13862211 1 17894630336220125448
1420 363 18335140877958708106
14251732 16 18131346453664018634
14251764 30 18200876176181070302
14341114 176 17489870419026859192
14767858 380 17604160272263093510
14849402 71 17987230209375420776
14933364 13 17275385404668213160
15348495 7 17418088840740390306
15461852 350 16558743504425491325
15537594 2 18261391122409174595
15716309 27 18410294692144825098
15880784 105 18202565102728123947
17780758 139 18060138748076519459
17844677 252 17346881143821849736
17857418 61 18333447651120516007
1813 80 18261404299231357796
18222031 100 18259979366917058836
19784866 170 14333410034251269905
200 152 17967249780631489409
20028762 73 18411979199825587366
20281389 69 13614514156218513706
21150785 3 15936699232783965694
21267235 1 18187654591163054776
21315759 148 17632298969198211078
23081809 10 17458907033786265648
23402539 116 17894630309960035849
23522609 53 18193586439759297996
23559900 14 15502376763777110053
24771293 8 18335137635791922508
249057 3 18333446535468652269
2767999 5 10664098939363546170
2838139 119 8214142958119151567
312425 54 17988926634708083578
314194 84 18113336397113453874
351380 3 18260269629164690139
3737641 26 18197219140098301686
38695281 34 8646771097183724008
4340502 62 17060340708810667862
4938544 92 18271528581474396633
5104073 3 17702672197727602577
633830 44 9871453332056955792
9862886 166 16009041595722074841

> <PUBCHEM_SHAPE_MULTIPOLES>
449.61
17.31
1.94
1.36
7.53
0.54
-0.05
7.19
-2.87
-1.94
0.78
-0.27
-0.32
-0.87

> <PUBCHEM_SHAPE_SELFOVERLAP>
966.829

> <PUBCHEM_SHAPE_VOLUME>
249.2

> <PUBCHEM_COORDINATE_TYPE>
2
5
10

$$$$
