10024683
  -OEChem-10062122023D

 74 76  0     1  0  0  0  0  0999 V2000
    1.4558    1.7348    1.9649 O   0  0  0  0  0  0  0  0  0  0  0  0
    7.3121   -2.2795   -1.8764 O   0  0  0  0  0  0  0  0  0  0  0  0
   -1.0593    1.4218   -0.6817 C   0  0  1  0  0  0  0  0  0  0  0  0
    0.1059    0.4486   -0.3888 C   0  0  2  0  0  0  0  0  0  0  0  0
   -2.2364    0.4174   -0.6278 C   0  0  2  0  0  0  0  0  0  0  0  0
    1.4768    1.1347   -0.4144 C   0  0  1  0  0  0  0  0  0  0  0  0
   -0.1585   -0.7211   -1.3315 C   0  0  0  0  0  0  0  0  0  0  0  0
   -1.6950   -0.8215   -1.3807 C   0  0  0  0  0  0  0  0  0  0  0  0
   -1.0722    2.4940    0.4200 C   0  0  0  0  0  0  0  0  0  0  0  0
    1.4841    2.2725    0.6409 C   0  0  1  0  0  0  0  0  0  0  0  0
   -3.5726    0.9030   -1.1707 C   0  0  1  0  0  0  0  0  0  0  0  0
    0.2811    3.2240    0.5128 C   0  0  0  0  0  0  0  0  0  0  0  0
   -0.9767    2.1062   -2.0698 C   0  0  0  0  0  0  0  0  0  0  0  0
    2.6078    0.1295   -0.1826 C   0  0  0  0  0  0  0  0  0  0  0  0
   -4.6798   -0.1682   -1.0721 C   0  0  0  0  0  0  0  0  0  0  0  0
   -4.0140    2.1667   -0.4229 C   0  0  0  0  0  0  0  0  0  0  0  0
    3.9648    0.8260   -0.1642 C   0  0  0  0  0  0  0  0  0  0  0  0
   -4.9748   -0.6012    0.3702 C   0  0  0  0  0  0  0  0  0  0  0  0
    5.0822   -0.1557    0.0797 C   0  0  0  0  0  0  0  0  0  0  0  0
   -6.0869   -1.6309    0.4436 C   0  0  0  0  0  0  0  0  0  0  0  0
    5.4978   -0.4409    1.3727 C   0  0  0  0  0  0  0  0  0  0  0  0
   -7.4967   -1.0967    0.6722 C   0  0  0  0  0  0  0  0  0  0  0  0
    5.6812   -0.7647   -1.0145 C   0  0  0  0  0  0  0  0  0  0  0  0
   -5.7916   -2.9367    0.3217 C   0  0  0  0  0  0  0  0  0  0  0  0
    6.5331   -1.3534    1.5759 C   0  0  0  0  0  0  0  0  0  0  0  0
    6.7165   -1.6771   -0.8113 C   0  0  0  0  0  0  0  0  0  0  0  0
    4.8610    0.2083    2.5572 C   0  0  0  0  0  0  0  0  0  0  0  0
   -8.6110   -1.9279    0.0235 C   0  0  0  0  0  0  0  0  0  0  0  0
   -7.7767   -0.9405    2.1701 C   0  0  0  0  0  0  0  0  0  0  0  0
    7.1424   -1.9715    0.4840 C   0  0  0  0  0  0  0  0  0  0  0  0
   -0.0267    0.0465    0.6296 H   0  0  0  0  0  0  0  0  0  0  0  0
   -2.3600    0.1305    0.4254 H   0  0  0  0  0  0  0  0  0  0  0  0
    1.6390    1.5831   -1.4018 H   0  0  0  0  0  0  0  0  0  0  0  0
    0.2449   -0.5305   -2.3321 H   0  0  0  0  0  0  0  0  0  0  0  0
    0.2873   -1.6517   -0.9658 H   0  0  0  0  0  0  0  0  0  0  0  0
   -2.0397   -1.7439   -0.9002 H   0  0  0  0  0  0  0  0  0  0  0  0
   -2.0264   -0.8509   -2.4249 H   0  0  0  0  0  0  0  0  0  0  0  0
   -1.8250    3.2653    0.2544 H   0  0  0  0  0  0  0  0  0  0  0  0
   -1.2956    2.0367    1.3922 H   0  0  0  0  0  0  0  0  0  0  0  0
    2.3820    2.8923    0.5531 H   0  0  0  0  0  0  0  0  0  0  0  0
   -3.4832    1.1524   -2.2354 H   0  0  0  0  0  0  0  0  0  0  0  0
    0.4164    3.8603   -0.3692 H   0  0  0  0  0  0  0  0  0  0  0  0
    0.2489    3.8930    1.3819 H   0  0  0  0  0  0  0  0  0  0  0  0
   -0.0440    2.6584   -2.2111 H   0  0  0  0  0  0  0  0  0  0  0  0
   -1.7837    2.8317   -2.2100 H   0  0  0  0  0  0  0  0  0  0  0  0
   -1.0426    1.3887   -2.8939 H   0  0  0  0  0  0  0  0  0  0  0  0
    2.6001   -0.6196   -0.9848 H   0  0  0  0  0  0  0  0  0  0  0  0
    2.4419   -0.4258    0.7482 H   0  0  0  0  0  0  0  0  0  0  0  0
   -5.5977    0.2270   -1.5276 H   0  0  0  0  0  0  0  0  0  0  0  0
   -4.4026   -1.0430   -1.6731 H   0  0  0  0  0  0  0  0  0  0  0  0
   -5.0890    2.3372   -0.5600 H   0  0  0  0  0  0  0  0  0  0  0  0
   -3.8336    2.1076    0.6548 H   0  0  0  0  0  0  0  0  0  0  0  0
   -3.5363    3.0606   -0.8291 H   0  0  0  0  0  0  0  0  0  0  0  0
    4.1304    1.3243   -1.1295 H   0  0  0  0  0  0  0  0  0  0  0  0
    4.0250    1.6291    0.5720 H   0  0  0  0  0  0  0  0  0  0  0  0
    2.3415    1.3930    2.1636 H   0  0  0  0  0  0  0  0  0  0  0  0
   -4.0791   -1.0361    0.8280 H   0  0  0  0  0  0  0  0  0  0  0  0
   -5.2421    0.2574    0.9956 H   0  0  0  0  0  0  0  0  0  0  0  0
   -7.5526   -0.1017    0.2102 H   0  0  0  0  0  0  0  0  0  0  0  0
    5.3521   -0.5412   -2.0261 H   0  0  0  0  0  0  0  0  0  0  0  0
   -6.5502   -3.7080    0.3838 H   0  0  0  0  0  0  0  0  0  0  0  0
   -4.7701   -3.2673    0.1620 H   0  0  0  0  0  0  0  0  0  0  0  0
    6.8771   -1.5948    2.5782 H   0  0  0  0  0  0  0  0  0  0  0  0
    5.3565   -0.0915    3.4882 H   0  0  0  0  0  0  0  0  0  0  0  0
    3.8154   -0.0964    2.6487 H   0  0  0  0  0  0  0  0  0  0  0  0
    4.9370    1.2985    2.5068 H   0  0  0  0  0  0  0  0  0  0  0  0
   -8.7278   -2.9052    0.5041 H   0  0  0  0  0  0  0  0  0  0  0  0
   -9.5715   -1.4067    0.1054 H   0  0  0  0  0  0  0  0  0  0  0  0
   -8.4116   -2.0888   -1.0415 H   0  0  0  0  0  0  0  0  0  0  0  0
   -7.0357   -0.2900    2.6472 H   0  0  0  0  0  0  0  0  0  0  0  0
   -8.7632   -0.4938    2.3352 H   0  0  0  0  0  0  0  0  0  0  0  0
   -7.7551   -1.9080    2.6841 H   0  0  0  0  0  0  0  0  0  0  0  0
    7.9479   -2.6804    0.6557 H   0  0  0  0  0  0  0  0  0  0  0  0
    8.0064   -2.8786   -1.5521 H   0  0  0  0  0  0  0  0  0  0  0  0
  1 10  1  0  0  0  0
  1 56  1  0  0  0  0
  2 26  1  0  0  0  0
  2 74  1  0  0  0  0
  3  4  1  0  0  0  0
  3  5  1  0  0  0  0
  3  9  1  0  0  0  0
  3 13  1  0  0  0  0
  4  6  1  0  0  0  0
  4  7  1  0  0  0  0
  4 31  1  0  0  0  0
  5  8  1  0  0  0  0
  5 11  1  0  0  0  0
  5 32  1  0  0  0  0
  6 10  1  0  0  0  0
  6 14  1  0  0  0  0
  6 33  1  0  0  0  0
  7  8  1  0  0  0  0
  7 34  1  0  0  0  0
  7 35  1  0  0  0  0
  8 36  1  0  0  0  0
  8 37  1  0  0  0  0
  9 12  1  0  0  0  0
  9 38  1  0  0  0  0
  9 39  1  0  0  0  0
 10 12  1  0  0  0  0
 10 40  1  0  0  0  0
 11 15  1  0  0  0  0
 11 16  1  0  0  0  0
 11 41  1  0  0  0  0
 12 42  1  0  0  0  0
 12 43  1  0  0  0  0
 13 44  1  0  0  0  0
 13 45  1  0  0  0  0
 13 46  1  0  0  0  0
 14 17  1  0  0  0  0
 14 47  1  0  0  0  0
 14 48  1  0  0  0  0
 15 18  1  0  0  0  0
 15 49  1  0  0  0  0
 15 50  1  0  0  0  0
 16 51  1  0  0  0  0
 16 52  1  0  0  0  0
 16 53  1  0  0  0  0
 17 19  1  0  0  0  0
 17 54  1  0  0  0  0
 17 55  1  0  0  0  0
 18 20  1  0  0  0  0
 18 57  1  0  0  0  0
 18 58  1  0  0  0  0
 19 21  2  0  0  0  0
 19 23  1  0  0  0  0
 20 22  1  0  0  0  0
 20 24  2  0  0  0  0
 21 25  1  0  0  0  0
 21 27  1  0  0  0  0
 22 28  1  0  0  0  0
 22 29  1  0  0  0  0
 22 59  1  0  0  0  0
 23 26  2  0  0  0  0
 23 60  1  0  0  0  0
 24 61  1  0  0  0  0
 24 62  1  0  0  0  0
 25 30  2  0  0  0  0
 25 63  1  0  0  0  0
 26 30  1  0  0  0  0
 27 64  1  0  0  0  0
 27 65  1  0  0  0  0
 27 66  1  0  0  0  0
 28 67  1  0  0  0  0
 28 68  1  0  0  0  0
 28 69  1  0  0  0  0
 29 70  1  0  0  0  0
 29 71  1  0  0  0  0
 29 72  1  0  0  0  0
 30 73  1  0  0  0  0
M  END
> <PUBCHEM_COMPOUND_CID>
10024683

> <PUBCHEM_CONFORMER_RMSD>
1

> <PUBCHEM_CONFORMER_DIVERSEORDER>
3
18
27
39
21
28
17
29
24
25
31
23
13
4
20
35
11
15
10
36
34
22
6
7
19
33
14
30
12
2
38
8
26
37
1
16
5
9
40
32

> <PUBCHEM_MMFF94_PARTIAL_CHARGES>
22
1 -0.68
10 0.28
17 0.14
18 0.14
19 -0.14
2 -0.53
20 -0.28
21 -0.14
22 0.14
23 -0.15
24 -0.3
25 -0.15
26 0.08
27 0.14
30 -0.15
56 0.4
60 0.15
61 0.15
62 0.15
63 0.15
73 0.15
74 0.45

> <PUBCHEM_EFFECTIVE_ROTOR_COUNT>
9.4

> <PUBCHEM_PHARMACOPHORE_FEATURES>
10
1 1 acceptor
1 1 donor
1 16 hydrophobe
1 2 donor
1 24 hydrophobe
3 22 28 29 hydrophobe
5 11 15 18 20 22 hydrophobe
5 3 4 5 7 8 rings
6 19 21 23 25 26 30 rings
6 3 4 6 9 10 12 rings

> <PUBCHEM_HEAVY_ATOM_COUNT>
30

> <PUBCHEM_ATOM_DEF_STEREO_COUNT>
6

> <PUBCHEM_ATOM_UDEF_STEREO_COUNT>
0

> <PUBCHEM_BOND_DEF_STEREO_COUNT>
0

> <PUBCHEM_BOND_UDEF_STEREO_COUNT>
0

> <PUBCHEM_ISOTOPIC_ATOM_COUNT>
0

> <PUBCHEM_COMPONENT_COUNT>
1

> <PUBCHEM_CACTVS_TAUTO_COUNT>
9

> <PUBCHEM_CONFORMER_ID>
0098F6EB00000003

> <PUBCHEM_MMFF94_ENERGY>
92.4389

> <PUBCHEM_FEATURE_SELFOVERLAP>
50.833

> <PUBCHEM_SHAPE_FINGERPRINT>
10 15 15267347340235721699
10692045 39 17203892976296434767
10906281 52 8213880205648358349
11456790 92 16200431351697863586
11646440 116 17847058883212502314
12035758 1 17846492647260868676
12166972 35 17967818253876093140
13540713 5 17271150240302092933
13673619 4 18259983786369945309
13685833 64 18410574002331326828
13690498 29 17095514103026316927
13782708 43 18336256920609599383
13911987 19 11530480017401712789
14123256 34 18408041809920305210
14251764 30 18334290976581263706
14347424 109 17917711356850421304
14675019 173 18040714801435743165
14767858 380 12179838412164760135
14955137 171 18272088335475841933
15183329 4 15502373417722883794
15352257 5 18040152928933719067
15684393 108 17967818258371773758
1577012 14 14117509965807830040
15840311 113 13614255762728451981
16994733 274 10663828455699074847
17492 54 12612748025826059453
18335252 98 18410293632068741484
20105231 36 18130793326760571294
21150785 3 13984662572746047695
21267235 1 18413674595579149892
21304304 249 18335703888501036223
21424621 283 11887681680058656901
21521239 73 15140957344709209088
21585481 104 14563074885237886871
21781051 124 18334862714296794254
21792934 111 17989485200101295073
21859007 373 9583514287922407598
22122407 14 13541888196627286802
23522609 53 17971786387067569965
23559900 14 17677895832882974949
23576562 1 10954043501857541563
255183 313 17203604904645597359
2747138 104 18342737399531648336
2748736 6 10087648091197003299
312425 54 16486965224425823902
3178227 256 18271811250076845279
3383291 50 18411132550076074243
393628 179 9439400190478198403
4107672 100 17168417165703416357
439807 62 17822007610385662707
474113 269 18271517681237244119
5104073 3 17916871188290817011
54039377 194 18410014317392093734
5470011 282 16081092601296449215
56633871 153 17988637523464000734
57527293 21 16701726242737619668
5937810 71 11819260145690284399
59682541 52 14346066504530534322
6081469 158 18261106414344989367
636775 8 18411145702157062750
8863177 126 18263360450797567947
9896288 288 18199753536154548521
999808 66 18409167718860343647

> <PUBCHEM_SHAPE_MULTIPOLES>
605.65
23.22
2.99
1.84
8.14
0.85
-0.52
-24.93
-5.53
1.24
-0.1
-1.34
-0.09
2

> <PUBCHEM_SHAPE_SELFOVERLAP>
1251.616

> <PUBCHEM_SHAPE_VOLUME>
348.9

> <PUBCHEM_COORDINATE_TYPE>
2
5
10

$$$$
