49830927
  -OEChem-10052115183D

 33 35  0     0  0  0  0  0  0999 V2000
    3.9138    1.3127    0.0114 O   0  0  0  0  0  0  0  0  0  0  0  0
    2.0745   -0.1589    0.0133 N   0  0  0  0  0  0  0  0  0  0  0  0
   -0.1857    2.4370   -0.0072 N   0  0  0  0  0  0  0  0  0  0  0  0
   -2.4312    1.5462   -0.0092 N   0  0  0  0  0  0  0  0  0  0  0  0
    1.0921    2.0155   -0.0005 N   0  0  0  0  0  0  0  0  0  0  0  0
   -0.3620    0.2513    0.0033 C   0  0  0  0  0  0  0  0  0  0  0  0
   -1.0959    1.4218   -0.0047 C   0  0  0  0  0  0  0  0  0  0  0  0
    0.9786    0.6831    0.0054 C   0  0  0  0  0  0  0  0  0  0  0  0
   -2.4715   -0.8878    0.0032 C   0  0  0  0  0  0  0  0  0  0  0  0
   -1.0684   -0.9541    0.0073 C   0  0  0  0  0  0  0  0  0  0  0  0
   -3.1012    0.3820   -0.0051 C   0  0  0  0  0  0  0  0  0  0  0  0
    4.3302   -1.0621   -0.0045 C   0  0  0  0  0  0  0  0  0  0  0  0
    5.8266   -0.7564   -0.0026 C   0  0  0  0  0  0  0  0  0  0  0  0
    3.4462    0.1789    0.0158 C   0  0  0  0  0  0  0  0  0  0  0  0
   -3.2434   -2.0610    0.0073 C   0  0  0  0  0  0  0  0  0  0  0  0
   -4.4917    0.4151   -0.0090 C   0  0  0  0  0  0  0  0  0  0  0  0
    6.6800   -2.0168   -0.0228 C   0  0  0  0  0  0  0  0  0  0  0  0
   -4.6333   -1.9932    0.0032 C   0  0  0  0  0  0  0  0  0  0  0  0
   -5.2579   -0.7533   -0.0048 C   0  0  0  0  0  0  0  0  0  0  0  0
   -0.5460   -1.9064    0.0137 H   0  0  0  0  0  0  0  0  0  0  0  0
    4.0734   -1.6437   -0.8982 H   0  0  0  0  0  0  0  0  0  0  0  0
    4.0769   -1.6701    0.8725 H   0  0  0  0  0  0  0  0  0  0  0  0
    1.8458   -1.1504    0.0156 H   0  0  0  0  0  0  0  0  0  0  0  0
    6.0810   -0.1647    0.8850 H   0  0  0  0  0  0  0  0  0  0  0  0
    6.0781   -0.1390   -0.8733 H   0  0  0  0  0  0  0  0  0  0  0  0
   -0.3639    3.4335   -0.0129 H   0  0  0  0  0  0  0  0  0  0  0  0
   -2.7657   -3.0386    0.0137 H   0  0  0  0  0  0  0  0  0  0  0  0
   -5.0100    1.3728   -0.0154 H   0  0  0  0  0  0  0  0  0  0  0  0
    6.4799   -2.6381    0.8559 H   0  0  0  0  0  0  0  0  0  0  0  0
    7.7428   -1.7556   -0.0208 H   0  0  0  0  0  0  0  0  0  0  0  0
    6.4767   -2.6118   -0.9187 H   0  0  0  0  0  0  0  0  0  0  0  0
   -5.2246   -2.9037    0.0063 H   0  0  0  0  0  0  0  0  0  0  0  0
   -6.3422   -0.6899   -0.0080 H   0  0  0  0  0  0  0  0  0  0  0  0
  1 14  2  0  0  0  0
  2  8  1  0  0  0  0
  2 14  1  0  0  0  0
  2 23  1  0  0  0  0
  3  5  1  0  0  0  0
  3  7  1  0  0  0  0
  3 26  1  0  0  0  0
  4  7  2  0  0  0  0
  4 11  1  0  0  0  0
  5  8  2  0  0  0  0
  6  7  1  0  0  0  0
  6  8  1  0  0  0  0
  6 10  2  0  0  0  0
  9 10  1  0  0  0  0
  9 11  1  0  0  0  0
  9 15  2  0  0  0  0
 10 20  1  0  0  0  0
 11 16  2  0  0  0  0
 12 13  1  0  0  0  0
 12 14  1  0  0  0  0
 12 21  1  0  0  0  0
 12 22  1  0  0  0  0
 13 17  1  0  0  0  0
 13 24  1  0  0  0  0
 13 25  1  0  0  0  0
 15 18  1  0  0  0  0
 15 27  1  0  0  0  0
 16 19  1  0  0  0  0
 16 28  1  0  0  0  0
 17 29  1  0  0  0  0
 17 30  1  0  0  0  0
 17 31  1  0  0  0  0
 18 19  2  0  0  0  0
 18 32  1  0  0  0  0
 19 33  1  0  0  0  0
M  END
> <PUBCHEM_COMPOUND_CID>
49830927

> <PUBCHEM_CONFORMER_RMSD>
0.6

> <PUBCHEM_CONFORMER_DIVERSEORDER>
1
7
21
8
28
23
6
24
11
10
27
4
12
25
14
13
16
9
20
17
22
18
3
2
15
26
19
5

> <PUBCHEM_MMFF94_PARTIAL_CHARGES>
22
1 -0.57
10 -0.15
11 0.31
12 0.06
14 0.57
15 -0.15
16 -0.15
18 -0.15
19 -0.15
2 -0.49
20 0.15
23 0.37
26 0.27
27 0.15
28 0.15
3 0.3
32 0.15
33 0.15
4 -0.57
5 -0.71
7 0.11
8 0.35

> <PUBCHEM_EFFECTIVE_ROTOR_COUNT>
4

> <PUBCHEM_PHARMACOPHORE_FEATURES>
8
1 1 acceptor
1 17 hydrophobe
1 2 donor
1 3 donor
3 3 4 7 cation
5 3 5 6 7 8 rings
6 4 6 7 9 10 11 rings
6 9 11 15 16 18 19 rings

> <PUBCHEM_HEAVY_ATOM_COUNT>
19

> <PUBCHEM_ATOM_DEF_STEREO_COUNT>
0

> <PUBCHEM_ATOM_UDEF_STEREO_COUNT>
0

> <PUBCHEM_BOND_DEF_STEREO_COUNT>
0

> <PUBCHEM_BOND_UDEF_STEREO_COUNT>
0

> <PUBCHEM_ISOTOPIC_ATOM_COUNT>
0

> <PUBCHEM_COMPONENT_COUNT>
1

> <PUBCHEM_CACTVS_TAUTO_COUNT>
31

> <PUBCHEM_CONFORMER_ID>
02F85C0F00000001

> <PUBCHEM_MMFF94_ENERGY>
38.9236

> <PUBCHEM_FEATURE_SELFOVERLAP>
40.738

> <PUBCHEM_SHAPE_FINGERPRINT>
106641 1 8934717847528890143
10968037 39 18335141999008482246
11315181 36 18272091591097709584
11458722 379 18333168366667245579
11524674 6 16774076263322939870
12032990 46 18411138064776483185
12236239 1 17967255278194675718
12555020 224 18337943580733355455
12596602 18 13398626139237542054
12760667 363 18341891878957880039
12916754 54 18411139126134669256
13288520 33 18410856551239804615
13690532 89 18410293635751694569
13740256 8 18410576210176697018
13862211 1 18413106177874274487
14251752 14 17676759877539716791
14790565 3 17187853013082274809
15042514 8 18339925904912421624
15196674 1 18410575123323072320
15352361 1 18411138034980704990
15536298 74 18269554021493342577
17492 89 18050848020571904831
17804303 29 18341333374738578753
17857418 61 18335981995954276890
1813 80 17531237404912167332
19141452 34 18131069372254696807
19784866 240 18408610261689818540
200 152 18201718461536864040
20281475 54 18410579517143623172
20374829 77 18410292501943696906
21267235 1 18409173207390697970
221490 88 18046351009370748643
22950370 63 18410015463520380068
2297311 6 18271533001058268020
23198884 109 15213020423003668335
23402539 116 18412259519323408063
23522609 53 18122096202358703284
23559900 14 18411130376896020720
3004659 81 18186237334166466750
335352 9 18410291398675159453
351380 3 18334855009299434578
4214541 1 18410573955155498688
465052 167 18342463693792489230
5104073 3 18272092729032038920
559249 180 18336543824499058767
5718773 13 18270675506496143239
59682541 35 18200861951951006818
59682541 52 13479401722923938466
59755656 215 18337391539680660046
6138700 20 18408885109622266363
76465 3 18271521026394340119
9709674 26 18191025809783350819

> <PUBCHEM_SHAPE_MULTIPOLES>
365.22
13.42
2.26
0.59
16.4
0.2
0
-9.27
-0.06
-0.16
0
-0.02
-0.03
0.03

> <PUBCHEM_SHAPE_SELFOVERLAP>
800.346

> <PUBCHEM_SHAPE_VOLUME>
198.4

> <PUBCHEM_COORDINATE_TYPE>
2
5
10

$$$$
