4306353
  -OEChem-10052120433D

 40 44  0     0  0  0  0  0  0999 V2000
   -0.0572   -2.5984   -1.7478 S   0  0  0  0  0  0  0  0  0  0  0  0
    1.4658   -1.0419    0.0592 N   0  0  0  0  0  0  0  0  0  0  0  0
   -3.1333    0.5786   -0.4602 N   0  0  0  0  0  0  0  0  0  0  0  0
    1.3145   -2.3646    1.8069 N   0  0  0  0  0  0  0  0  0  0  0  0
    0.6217   -2.9396    0.7642 N   0  0  0  0  0  0  0  0  0  0  0  0
   -2.1509   -1.1073    0.6332 N   0  0  0  0  0  0  0  0  0  0  0  0
    1.8410    0.0763   -0.7083 C   0  0  0  0  0  0  0  0  0  0  0  0
    2.6275    1.0557   -0.0639 C   0  0  0  0  0  0  0  0  0  0  0  0
    3.0131    0.8638    1.3621 C   0  0  0  0  0  0  0  0  0  0  0  0
    1.8194   -1.2257    1.3788 C   0  0  0  0  0  0  0  0  0  0  0  0
    2.6072   -0.2409    2.0191 C   0  0  0  0  0  0  0  0  0  0  0  0
    0.7211   -2.1378   -0.2727 C   0  0  0  0  0  0  0  0  0  0  0  0
    1.4515    0.2066   -2.0440 C   0  0  0  0  0  0  0  0  0  0  0  0
    3.0129    2.1780   -0.8100 C   0  0  0  0  0  0  0  0  0  0  0  0
   -1.7899   -2.7029   -1.2155 C   0  0  0  0  0  0  0  0  0  0  0  0
   -2.2816   -1.3939   -0.6904 C   0  0  0  0  0  0  0  0  0  0  0  0
    3.8502    1.9034    2.0500 C   0  0  0  0  0  0  0  0  0  0  0  0
   -2.6726    0.0956    0.7617 C   0  0  0  0  0  0  0  0  0  0  0  0
    1.8495    1.3330   -2.7605 C   0  0  0  0  0  0  0  0  0  0  0  0
   -2.8759   -0.3919   -1.3941 C   0  0  0  0  0  0  0  0  0  0  0  0
    2.6263    2.3141   -2.1470 C   0  0  0  0  0  0  0  0  0  0  0  0
   -3.7320    1.8253   -0.6196 C   0  0  0  0  0  0  0  0  0  0  0  0
   -2.8341    0.9443    1.8962 C   0  0  0  0  0  0  0  0  0  0  0  0
   -3.8814    2.6184    0.4538 C   0  0  0  0  0  0  0  0  0  0  0  0
   -3.4128    2.1517    1.7489 C   0  0  0  0  0  0  0  0  0  0  0  0
    2.8766   -0.4011    3.0583 H   0  0  0  0  0  0  0  0  0  0  0  0
    0.8554   -0.4901   -2.6031 H   0  0  0  0  0  0  0  0  0  0  0  0
    3.6183    2.9680   -0.3737 H   0  0  0  0  0  0  0  0  0  0  0  0
   -1.8926   -3.4814   -0.4518 H   0  0  0  0  0  0  0  0  0  0  0  0
   -2.3936   -3.0133   -2.0750 H   0  0  0  0  0  0  0  0  0  0  0  0
    4.0591    1.6359    3.0919 H   0  0  0  0  0  0  0  0  0  0  0  0
    3.3362    2.8704    2.0628 H   0  0  0  0  0  0  0  0  0  0  0  0
    4.8162    2.0198    1.5475 H   0  0  0  0  0  0  0  0  0  0  0  0
   -3.1342   -0.2742   -2.4377 H   0  0  0  0  0  0  0  0  0  0  0  0
    1.5542    1.4490   -3.7995 H   0  0  0  0  0  0  0  0  0  0  0  0
    2.9337    3.1906   -2.7106 H   0  0  0  0  0  0  0  0  0  0  0  0
   -4.0577    2.1106   -1.6125 H   0  0  0  0  0  0  0  0  0  0  0  0
   -2.4876    0.6071    2.8667 H   0  0  0  0  0  0  0  0  0  0  0  0
   -4.3406    3.5968    0.3827 H   0  0  0  0  0  0  0  0  0  0  0  0
   -3.5439    2.8113    2.5998 H   0  0  0  0  0  0  0  0  0  0  0  0
  1 12  1  0  0  0  0
  1 15  1  0  0  0  0
  2  7  1  0  0  0  0
  2 10  1  0  0  0  0
  2 12  1  0  0  0  0
  3 18  1  0  0  0  0
  3 20  1  0  0  0  0
  3 22  1  0  0  0  0
  4  5  1  0  0  0  0
  4 10  2  0  0  0  0
  5 12  2  0  0  0  0
  6 16  1  0  0  0  0
  6 18  2  0  0  0  0
  7  8  1  0  0  0  0
  7 13  2  0  0  0  0
  8  9  1  0  0  0  0
  8 14  2  0  0  0  0
  9 11  2  0  0  0  0
  9 17  1  0  0  0  0
 10 11  1  0  0  0  0
 11 26  1  0  0  0  0
 13 19  1  0  0  0  0
 13 27  1  0  0  0  0
 14 21  1  0  0  0  0
 14 28  1  0  0  0  0
 15 16  1  0  0  0  0
 15 29  1  0  0  0  0
 15 30  1  0  0  0  0
 16 20  2  0  0  0  0
 17 31  1  0  0  0  0
 17 32  1  0  0  0  0
 17 33  1  0  0  0  0
 18 23  1  0  0  0  0
 19 21  2  0  0  0  0
 19 35  1  0  0  0  0
 20 34  1  0  0  0  0
 21 36  1  0  0  0  0
 22 24  2  0  0  0  0
 22 37  1  0  0  0  0
 23 25  2  0  0  0  0
 23 38  1  0  0  0  0
 24 25  1  0  0  0  0
 24 39  1  0  0  0  0
 25 40  1  0  0  0  0
M  END
> <PUBCHEM_COMPOUND_CID>
4306353

> <PUBCHEM_CONFORMER_RMSD>
0.6

> <PUBCHEM_CONFORMER_DIVERSEORDER>
1
5
11
24
29
25
52
48
51
6
15
26
23
45
53
44
58
30
22
50
55
61
10
43
34
41
21
16
54
8
31
57
33
56
46
14
7
63
2
47
49
13
64
9
32
12
3
19
59
4
62
38
20
60
37
42
40
39
35
18
17
36
27
28

> <PUBCHEM_MMFF94_PARTIAL_CHARGES>
35
1 -0.29
10 0.14
11 -0.11
12 0.24
13 -0.15
14 -0.15
15 0.41
16 0.05
17 0.14
18 0.14
19 -0.15
2 0.33
20 -0.3
21 -0.15
22 -0.18
23 -0.11
24 -0.15
25 -0.15
26 0.15
27 0.15
28 0.15
3 0.33
34 0.15
35 0.15
36 0.15
37 0.15
38 0.15
39 0.15
4 -0.34
40 0.15
5 -0.34
6 -0.57
7 -0.02
8 0.03
9 -0.17

> <PUBCHEM_EFFECTIVE_ROTOR_COUNT>
3

> <PUBCHEM_PHARMACOPHORE_FEATURES>
8
3 2 4 10 cation
3 2 5 12 cation
3 3 6 18 cation
5 2 4 5 10 12 rings
5 3 6 16 18 20 rings
6 2 7 8 9 10 11 rings
6 3 18 22 23 24 25 rings
6 7 8 13 14 19 21 rings

> <PUBCHEM_HEAVY_ATOM_COUNT>
25

> <PUBCHEM_ATOM_DEF_STEREO_COUNT>
0

> <PUBCHEM_ATOM_UDEF_STEREO_COUNT>
0

> <PUBCHEM_BOND_DEF_STEREO_COUNT>
0

> <PUBCHEM_BOND_UDEF_STEREO_COUNT>
0

> <PUBCHEM_ISOTOPIC_ATOM_COUNT>
0

> <PUBCHEM_COMPONENT_COUNT>
1

> <PUBCHEM_CACTVS_TAUTO_COUNT>
1

> <PUBCHEM_CONFORMER_ID>
0041B5B100000001

> <PUBCHEM_MMFF94_ENERGY>
64.7334

> <PUBCHEM_FEATURE_SELFOVERLAP>
43.332

> <PUBCHEM_SHAPE_FINGERPRINT>
10165383 225 17412231746942367087
10291535 26 17327199031129137852
10498660 4 17917990607482172705
10764073 3 17843389697479344038
11244481 83 17243896400749738301
11578080 2 15889330300169253286
11582403 64 15480092935952847178
11640471 11 18337660996990047527
12156800 1 15241549580227675785
12422481 6 18044350779151363114
12788726 201 17975698612589379207
128993 33 18268454419560210645
13009979 54 17757526909925822786
13965767 371 18266169535397426245
14713325 29 17251505292097828878
15403338 16 8533602196789992264
15664445 248 11526217202632032115
18981168 100 18059870441042465175
20291156 8 8358257085522331387
20465049 17 16051863042850216777
20600515 1 17404891158128753623
20715895 44 17902488425971575341
20739085 24 17968640645971889642
20905425 154 16904662244122776537
21315764 21 14691746311351718297
21427221 339 18187633730902608468
21731516 1 8502652606224483719
21756936 100 17681019553643827612
21864079 5 18115319988851483988
22149856 69 17987803996174101921
22749437 52 18270670975030566001
3027735 51 11356548805548319060
35225 105 15725328219601158892
3797600 57 17754203047239963907
469060 322 14495822474566145478
474 4 18186515497248567331
50150288 127 14723339949263673453
539174 4 18118092910237958778
550186 7 17485639670446138200
57527585 21 16271079496488548993
5951187 136 17130984257406948785

> <PUBCHEM_SHAPE_MULTIPOLES>
493.43
6.99
3.51
2.61
3.08
1.14
-0.52
-6.27
1.19
1.14
-0.02
-2.07
-0.63
-1.46

> <PUBCHEM_SHAPE_SELFOVERLAP>
1098.528

> <PUBCHEM_SHAPE_VOLUME>
264.3

> <PUBCHEM_COORDINATE_TYPE>
2
5
10

$$$$
