11294864
  -OEChem-10062121593D

 63 69  0     0  0  0  0  0  0999 V2000
    5.4628   -1.1982    1.5535 O   0  0  0  0  0  0  0  0  0  0  0  0
   -3.3347   -3.7493   -0.1990 O   0  0  0  0  0  0  0  0  0  0  0  0
   -5.9696   -0.1931    0.9857 O   0  0  0  0  0  0  0  0  0  0  0  0
    0.7481   -1.8710    0.7686 N   0  0  0  0  0  0  0  0  0  0  0  0
    3.7115   -1.6055    0.1007 N   0  0  0  0  0  0  0  0  0  0  0  0
    5.0335    0.3895   -0.0518 N   0  0  0  0  0  0  0  0  0  0  0  0
   -4.9746   -2.1994    0.3561 N   0  0  0  0  0  0  0  0  0  0  0  0
   -3.0719    1.8656    0.0638 N   0  0  0  0  0  0  0  0  0  0  0  0
   -2.4772    2.8283    1.9933 N   0  0  0  0  0  0  0  0  0  0  0  0
    0.7521   -1.5110   -0.5689 C   0  0  0  0  0  0  0  0  0  0  0  0
    1.8860   -2.1265    1.6366 C   0  0  0  0  0  0  0  0  0  0  0  0
    3.1372   -2.6470    0.9505 C   0  0  0  0  0  0  0  0  0  0  0  0
    3.2664   -1.6158   -1.2941 C   0  0  0  0  0  0  0  0  0  0  0  0
    1.7942   -1.3515   -1.5144 C   0  0  0  0  0  0  0  0  0  0  0  0
    3.9948    1.3727   -0.3863 C   0  0  0  0  0  0  0  0  0  0  0  0
    6.4020    0.9062   -0.0941 C   0  0  0  0  0  0  0  0  0  0  0  0
   -0.5943   -1.2959   -0.9143 C   0  0  0  0  0  0  0  0  0  0  0  0
    4.1172    2.6138    0.5008 C   0  0  0  0  0  0  0  0  0  0  0  0
    6.5616    2.1141    0.8225 C   0  0  0  0  0  0  0  0  0  0  0  0
    5.5318    3.1895    0.4796 C   0  0  0  0  0  0  0  0  0  0  0  0
    4.7737   -0.8264    0.5949 C   0  0  0  0  0  0  0  0  0  0  0  0
   -1.3870   -1.5454    0.2370 C   0  0  0  0  0  0  0  0  0  0  0  0
   -0.5378   -1.8959    1.2537 C   0  0  0  0  0  0  0  0  0  0  0  0
   -2.8087   -1.4665    0.3641 C   0  0  0  0  0  0  0  0  0  0  0  0
    1.4070   -0.9724   -2.8203 C   0  0  0  0  0  0  0  0  0  0  0  0
   -0.9272   -0.9052   -2.2260 C   0  0  0  0  0  0  0  0  0  0  0  0
    0.0815   -0.7462   -3.1700 C   0  0  0  0  0  0  0  0  0  0  0  0
   -3.5931   -0.4335    0.7149 C   0  0  0  0  0  0  0  0  0  0  0  0
   -3.7005   -2.6322    0.1260 C   0  0  0  0  0  0  0  0  0  0  0  0
   -3.1757    0.8872    1.0262 C   0  0  0  0  0  0  0  0  0  0  0  0
   -5.0020   -0.8845    0.7182 C   0  0  0  0  0  0  0  0  0  0  0  0
   -2.8035    1.5120    2.2009 C   0  0  0  0  0  0  0  0  0  0  0  0
   -2.6438    3.0270    0.7017 C   0  0  0  0  0  0  0  0  0  0  0  0
   -3.3274    1.7865   -1.3024 C   0  0  0  0  0  0  0  0  0  0  0  0
   -2.4649    4.1843   -0.1117 C   0  0  0  0  0  0  0  0  0  0  0  0
   -3.1569    2.8809   -2.0617 C   0  0  0  0  0  0  0  0  0  0  0  0
   -2.7105    4.1146   -1.4344 C   0  0  0  0  0  0  0  0  0  0  0  0
    2.0872   -1.1850    2.1623 H   0  0  0  0  0  0  0  0  0  0  0  0
    1.5612   -2.8666    2.3779 H   0  0  0  0  0  0  0  0  0  0  0  0
    2.9304   -3.5404    0.3497 H   0  0  0  0  0  0  0  0  0  0  0  0
    3.8616   -2.9363    1.7193 H   0  0  0  0  0  0  0  0  0  0  0  0
    3.5065   -2.6061   -1.7018 H   0  0  0  0  0  0  0  0  0  0  0  0
    3.8624   -0.8996   -1.8689 H   0  0  0  0  0  0  0  0  0  0  0  0
    3.0018    0.9399   -0.2429 H   0  0  0  0  0  0  0  0  0  0  0  0
    4.1142    1.6384   -1.4423 H   0  0  0  0  0  0  0  0  0  0  0  0
    6.6148    1.1829   -1.1334 H   0  0  0  0  0  0  0  0  0  0  0  0
    7.1099    0.1201    0.1898 H   0  0  0  0  0  0  0  0  0  0  0  0
    3.8584    2.3453    1.5329 H   0  0  0  0  0  0  0  0  0  0  0  0
    3.3988    3.3744    0.1758 H   0  0  0  0  0  0  0  0  0  0  0  0
    7.5734    2.5233    0.7293 H   0  0  0  0  0  0  0  0  0  0  0  0
    6.4286    1.8051    1.8666 H   0  0  0  0  0  0  0  0  0  0  0  0
    5.6073    4.0179    1.1926 H   0  0  0  0  0  0  0  0  0  0  0  0
    5.7457    3.5989   -0.5152 H   0  0  0  0  0  0  0  0  0  0  0  0
   -0.7347   -2.1540    2.2867 H   0  0  0  0  0  0  0  0  0  0  0  0
    2.1688   -0.8534   -3.5897 H   0  0  0  0  0  0  0  0  0  0  0  0
   -1.9614   -0.7441   -2.5151 H   0  0  0  0  0  0  0  0  0  0  0  0
   -0.1694   -0.4544   -4.1858 H   0  0  0  0  0  0  0  0  0  0  0  0
   -5.7985   -2.7837    0.2705 H   0  0  0  0  0  0  0  0  0  0  0  0
   -2.7541    1.0755    3.1885 H   0  0  0  0  0  0  0  0  0  0  0  0
   -3.6676    0.8473   -1.7198 H   0  0  0  0  0  0  0  0  0  0  0  0
   -2.1323    5.1099    0.3449 H   0  0  0  0  0  0  0  0  0  0  0  0
   -3.3460    2.8725   -3.1281 H   0  0  0  0  0  0  0  0  0  0  0  0
   -2.5803    4.9843   -2.0693 H   0  0  0  0  0  0  0  0  0  0  0  0
  1 21  2  0  0  0  0
  2 29  2  0  0  0  0
  3 31  2  0  0  0  0
  4 10  1  0  0  0  0
  4 11  1  0  0  0  0
  4 23  1  0  0  0  0
  5 12  1  0  0  0  0
  5 13  1  0  0  0  0
  5 21  1  0  0  0  0
  6 15  1  0  0  0  0
  6 16  1  0  0  0  0
  6 21  1  0  0  0  0
  7 29  1  0  0  0  0
  7 31  1  0  0  0  0
  7 58  1  0  0  0  0
  8 30  1  0  0  0  0
  8 33  1  0  0  0  0
  8 34  1  0  0  0  0
  9 32  1  0  0  0  0
  9 33  2  0  0  0  0
 10 14  2  0  0  0  0
 10 17  1  0  0  0  0
 11 12  1  0  0  0  0
 11 38  1  0  0  0  0
 11 39  1  0  0  0  0
 12 40  1  0  0  0  0
 12 41  1  0  0  0  0
 13 14  1  0  0  0  0
 13 42  1  0  0  0  0
 13 43  1  0  0  0  0
 14 25  1  0  0  0  0
 15 18  1  0  0  0  0
 15 44  1  0  0  0  0
 15 45  1  0  0  0  0
 16 19  1  0  0  0  0
 16 46  1  0  0  0  0
 16 47  1  0  0  0  0
 17 22  1  0  0  0  0
 17 26  2  0  0  0  0
 18 20  1  0  0  0  0
 18 48  1  0  0  0  0
 18 49  1  0  0  0  0
 19 20  1  0  0  0  0
 19 50  1  0  0  0  0
 19 51  1  0  0  0  0
 20 52  1  0  0  0  0
 20 53  1  0  0  0  0
 22 23  2  0  0  0  0
 22 24  1  0  0  0  0
 23 54  1  0  0  0  0
 24 28  2  0  0  0  0
 24 29  1  0  0  0  0
 25 27  2  0  0  0  0
 25 55  1  0  0  0  0
 26 27  1  0  0  0  0
 26 56  1  0  0  0  0
 27 57  1  0  0  0  0
 28 30  1  0  0  0  0
 28 31  1  0  0  0  0
 30 32  2  0  0  0  0
 32 59  1  0  0  0  0
 33 35  1  0  0  0  0
 34 36  2  0  0  0  0
 34 60  1  0  0  0  0
 35 37  2  0  0  0  0
 35 61  1  0  0  0  0
 36 37  1  0  0  0  0
 36 62  1  0  0  0  0
 37 63  1  0  0  0  0
M  END
> <PUBCHEM_COMPOUND_CID>
11294864

> <PUBCHEM_CONFORMER_RMSD>
1

> <PUBCHEM_CONFORMER_DIVERSEORDER>
1
46
39
37
75
36
16
15
41
77
53
4
63
62
60
22
26
5
24
59
76
54
72
47
32
17
42
14
67
56
58
65
3
61
28
68
51
23
45
48
66
31
30
52
18
50
19
69
12
25
6
64
44
71
57
55
70
74
13
27
33
9
2
38
43
49
40
10
7
29
20
35
21
11
73
34
8

> <PUBCHEM_MMFF94_PARTIAL_CHARGES>
43
1 -0.57
10 -0.15
11 0.26
12 0.3
13 0.44
14 -0.14
15 0.3
16 0.3
2 -0.57
21 0.69
22 -0.05
23 -0.3
24 0.06
25 -0.15
26 -0.15
27 -0.15
28 0.06
29 0.62
3 -0.57
30 -0.2
31 0.62
32 0.08
33 0.14
34 -0.18
35 -0.11
36 -0.15
37 -0.15
4 0.05
5 -0.66
54 0.15
55 0.15
56 0.15
57 0.15
58 0.37
59 0.15
6 -0.66
60 0.15
61 0.15
62 0.15
63 0.15
7 -0.49
8 0.33
9 -0.57

> <PUBCHEM_EFFECTIVE_ROTOR_COUNT>
6.2

> <PUBCHEM_PHARMACOPHORE_FEATURES>
13
1 1 acceptor
1 2 acceptor
1 3 acceptor
1 4 cation
1 7 donor
3 8 9 33 cation
5 4 10 17 22 23 rings
5 7 24 28 29 31 rings
5 8 9 30 32 33 rings
6 10 14 17 25 26 27 rings
6 6 15 16 18 19 20 rings
6 8 33 34 35 36 37 rings
7 4 5 10 11 12 13 14 rings

> <PUBCHEM_HEAVY_ATOM_COUNT>
37

> <PUBCHEM_ATOM_DEF_STEREO_COUNT>
0

> <PUBCHEM_ATOM_UDEF_STEREO_COUNT>
0

> <PUBCHEM_BOND_DEF_STEREO_COUNT>
0

> <PUBCHEM_BOND_UDEF_STEREO_COUNT>
0

> <PUBCHEM_ISOTOPIC_ATOM_COUNT>
0

> <PUBCHEM_COMPONENT_COUNT>
1

> <PUBCHEM_CACTVS_TAUTO_COUNT>
3

> <PUBCHEM_CONFORMER_ID>
00AC589000000001

> <PUBCHEM_MMFF94_ENERGY>
91.3727

> <PUBCHEM_FEATURE_SELFOVERLAP>
66.22

> <PUBCHEM_SHAPE_FINGERPRINT>
10369192 42 17131843104815316492
11578080 2 17823397358543786583
12107698 1 18343309163080038958
12128747 34 18335987493717910254
12156800 1 16373777099816913317
13560911 43 18187924049233313104
13583140 156 18266454317493732462
13911987 19 16200441272729295486
13965767 371 17247248691549322823
14739800 52 18410571782382088914
15336146 87 18409736140723153732
15419008 145 18335124407545605792
15484559 13 13746040778302312114
15513586 35 18199178675919504240
15961568 22 18341901847719463772
18393751 57 18130519603835754487
19309040 13 16629140757805035737
20511986 3 17676760973421242531
21315764 268 18338802217061078714
21716022 299 15545128219917750031
22956985 138 17038950010387445251
23559900 14 17913504436706307790
24771293 8 18130801053732920313
25019877 29 16628574724180608343
27425 322 17696756558735229341
3459 110 18260828172571531572
3493558 16 18191312786966400664
392239 28 18333454261064648057
4144715 1 18336835204319662050
469060 322 18189058757901860049
5081480 168 17343804594666094324
550186 7 18272379684572180990
57527293 21 17846511330918083431
57527585 21 17345748573942118145
5951187 136 17262999156720675581
6086070 43 18121212078834507222

> <PUBCHEM_SHAPE_MULTIPOLES>
713.95
13.22
4.9
2.22
14.74
4.01
-1.42
5.09
4.62
-2.65
0.13
-0.56
0.01
1.01

> <PUBCHEM_SHAPE_SELFOVERLAP>
1606.23

> <PUBCHEM_SHAPE_VOLUME>
375.6

> <PUBCHEM_COORDINATE_TYPE>
2
5
10

$$$$
