49831034
  -OEChem-10052115183D

 41 44  0     0  0  0  0  0  0999 V2000
   -6.8252    0.1388   -1.7730 Cl  0  0  0  0  0  0  0  0  0  0  0  0
   -4.8312   -4.0996    0.9107 Cl  0  0  0  0  0  0  0  0  0  0  0  0
    1.7954    2.8423    0.5729 O   0  0  0  0  0  0  0  0  0  0  0  0
    7.2205   -2.3539   -0.4495 O   0  5  0  0  0  0  0  0  0  0  0  0
    7.4907   -0.4689   -1.5416 O   0  0  0  0  0  0  0  0  0  0  0  0
   -0.2286    1.7295    0.7708 N   0  0  0  0  0  0  0  0  0  0  0  0
   -4.0145    1.4115   -0.8648 N   0  0  0  0  0  0  0  0  0  0  0  0
    1.8071    0.5671    1.0466 N   0  0  0  0  0  0  0  0  0  0  0  0
    6.8145   -1.2184   -0.7962 N   0  3  0  0  0  0  0  0  0  0  0  0
   -2.3328    0.5489    0.3203 C   0  0  0  0  0  0  0  0  0  0  0  0
   -2.7805    1.6684   -0.3453 C   0  0  0  0  0  0  0  0  0  0  0  0
   -2.0319    2.9392   -0.4767 C   0  0  0  0  0  0  0  0  0  0  0  0
   -1.0116    0.4851    1.0070 C   0  0  0  0  0  0  0  0  0  0  0  0
   -0.9897    2.9951    0.6497 C   0  0  0  0  0  0  0  0  0  0  0  0
   -3.3505   -0.4412    0.2043 C   0  0  0  0  0  0  0  0  0  0  0  0
   -4.3907    0.1248   -0.5421 C   0  0  0  0  0  0  0  0  0  0  0  0
   -3.4903   -1.7674    0.6613 C   0  0  0  0  0  0  0  0  0  0  0  0
    1.1875    1.7884    0.7735 C   0  0  0  0  0  0  0  0  0  0  0  0
   -5.5627   -0.5746   -0.8525 C   0  0  0  0  0  0  0  0  0  0  0  0
   -4.6575   -2.4769    0.3573 C   0  0  0  0  0  0  0  0  0  0  0  0
   -5.6763   -1.8878   -0.3881 C   0  0  0  0  0  0  0  0  0  0  0  0
    3.0684    0.1176    0.5829 C   0  0  0  0  0  0  0  0  0  0  0  0
    3.5404   -1.1411    0.9553 C   0  0  0  0  0  0  0  0  0  0  0  0
    3.8378    0.9335   -0.2467 C   0  0  0  0  0  0  0  0  0  0  0  0
    4.7816   -1.5838    0.4985 C   0  0  0  0  0  0  0  0  0  0  0  0
    5.0791    0.4909   -0.7036 C   0  0  0  0  0  0  0  0  0  0  0  0
    5.5510   -0.7677   -0.3310 C   0  0  0  0  0  0  0  0  0  0  0  0
   -2.6978    3.8063   -0.4171 H   0  0  0  0  0  0  0  0  0  0  0  0
   -1.5283    2.9609   -1.4502 H   0  0  0  0  0  0  0  0  0  0  0  0
   -0.4586   -0.3835    0.6381 H   0  0  0  0  0  0  0  0  0  0  0  0
   -1.1455    0.3886    2.0897 H   0  0  0  0  0  0  0  0  0  0  0  0
   -1.4811    3.1547    1.6182 H   0  0  0  0  0  0  0  0  0  0  0  0
   -0.3204    3.8452    0.4854 H   0  0  0  0  0  0  0  0  0  0  0  0
   -4.5723    2.0605   -1.4031 H   0  0  0  0  0  0  0  0  0  0  0  0
   -2.6952   -2.2274    1.2424 H   0  0  0  0  0  0  0  0  0  0  0  0
   -6.5760   -2.4580   -0.6142 H   0  0  0  0  0  0  0  0  0  0  0  0
    1.2943   -0.1075    1.6066 H   0  0  0  0  0  0  0  0  0  0  0  0
    2.9503   -1.7864    1.6010 H   0  0  0  0  0  0  0  0  0  0  0  0
    3.5130    1.9081   -0.5898 H   0  0  0  0  0  0  0  0  0  0  0  0
    5.1173   -2.5699    0.8090 H   0  0  0  0  0  0  0  0  0  0  0  0
    5.6493    1.1505   -1.3529 H   0  0  0  0  0  0  0  0  0  0  0  0
  1 19  1  0  0  0  0
  2 20  1  0  0  0  0
  3 18  2  0  0  0  0
  4  9  1  0  0  0  0
  5  9  2  0  0  0  0
  6 13  1  0  0  0  0
  6 14  1  0  0  0  0
  6 18  1  0  0  0  0
  7 11  1  0  0  0  0
  7 16  1  0  0  0  0
  7 34  1  0  0  0  0
  8 18  1  0  0  0  0
  8 22  1  0  0  0  0
  8 37  1  0  0  0  0
  9 27  1  0  0  0  0
 10 11  2  0  0  0  0
 10 13  1  0  0  0  0
 10 15  1  0  0  0  0
 11 12  1  0  0  0  0
 12 14  1  0  0  0  0
 12 28  1  0  0  0  0
 12 29  1  0  0  0  0
 13 30  1  0  0  0  0
 13 31  1  0  0  0  0
 14 32  1  0  0  0  0
 14 33  1  0  0  0  0
 15 16  2  0  0  0  0
 15 17  1  0  0  0  0
 16 19  1  0  0  0  0
 17 20  2  0  0  0  0
 17 35  1  0  0  0  0
 19 21  2  0  0  0  0
 20 21  1  0  0  0  0
 21 36  1  0  0  0  0
 22 23  2  0  0  0  0
 22 24  1  0  0  0  0
 23 25  1  0  0  0  0
 23 38  1  0  0  0  0
 24 26  2  0  0  0  0
 24 39  1  0  0  0  0
 25 27  2  0  0  0  0
 25 40  1  0  0  0  0
 26 27  1  0  0  0  0
 26 41  1  0  0  0  0
M  CHG  2   4  -1   9   1
M  END
> <PUBCHEM_COMPOUND_CID>
49831034

> <PUBCHEM_CONFORMER_RMSD>
0.8

> <PUBCHEM_CONFORMER_DIVERSEORDER>
1
19
11
30
35
21
12
32
24
31
13
27
9
34
23
4
6
18
28
29
22
14
8
7
10
15
17
5
36
16
33
25
20
26
2
3

> <PUBCHEM_MMFF94_PARTIAL_CHARGES>
34
1 -0.18
10 -0.18
11 -0.33
12 0.18
13 0.48
14 0.3
16 -0.15
17 -0.15
18 0.69
19 0.18
2 -0.18
20 0.18
21 -0.15
22 0.12
23 -0.15
24 -0.15
25 -0.15
26 -0.15
27 0.13
3 -0.57
34 0.27
35 0.15
36 0.15
37 0.37
38 0.15
39 0.15
4 -0.52
40 0.15
41 0.15
5 -0.52
6 -0.66
7 0.03
8 -0.55
9 0.91

> <PUBCHEM_EFFECTIVE_ROTOR_COUNT>
4.8

> <PUBCHEM_PHARMACOPHORE_FEATURES>
11
1 3 acceptor
1 4 acceptor
1 4 anion
1 5 acceptor
1 7 cation
1 7 donor
1 8 donor
5 7 10 11 15 16 rings
6 15 16 17 19 20 21 rings
6 22 23 24 25 26 27 rings
6 6 10 11 12 13 14 rings

> <PUBCHEM_HEAVY_ATOM_COUNT>
27

> <PUBCHEM_ATOM_DEF_STEREO_COUNT>
0

> <PUBCHEM_ATOM_UDEF_STEREO_COUNT>
0

> <PUBCHEM_BOND_DEF_STEREO_COUNT>
0

> <PUBCHEM_BOND_UDEF_STEREO_COUNT>
0

> <PUBCHEM_ISOTOPIC_ATOM_COUNT>
0

> <PUBCHEM_COMPONENT_COUNT>
1

> <PUBCHEM_CACTVS_TAUTO_COUNT>
2

> <PUBCHEM_CONFORMER_ID>
02F85C7A00000001

> <PUBCHEM_MMFF94_ENERGY>
72.0429

> <PUBCHEM_FEATURE_SELFOVERLAP>
56.083

> <PUBCHEM_SHAPE_FINGERPRINT>
10369192 42 13551193260806731145
10391435 84 18339070588430140682
10554248 39 15792017732571139330
10622 236 17898555485436926922
11135609 201 11169903975550360813
11273773 46 18410855465294125863
117089 54 18046355398949781587
12124843 1 18186800292177736006
12633257 1 15267336353572221800
12643181 29 18408879642344955643
12760667 363 18273213093274694929
12954195 1 18338791226962922409
13402501 40 18342175587491878743
1361 4 18269277860072075014
1361 87 18335983159721726099
13631057 29 18341613673105156248
13673619 4 17775846809321581496
13690498 29 18259703419610575039
13782708 43 17560242406596057846
14123256 34 18272375290751681566
14420673 8 18411422843421899139
14790565 3 17690838961585396641
14866123 147 18342459180684129825
14910302 57 18187911902944369917
14930077 153 16805603638478899133
14931854 50 18187639176636543443
14950920 106 13973667460399121974
15183329 4 18187079525048849667
15250474 111 18115297865870685626
15519825 34 14117217508510177629
16992828 155 16808133493943396380
16994733 274 14490458761199947581
17909252 39 18341614849783848912
21033650 10 17240756255792399173
21054139 6 18260833662230760826
21196832 93 18335990873715104522
21267235 1 18410575107040021593
21279426 13 18262784260256356597
21307412 95 18410283745133297311
21315764 119 18040709247831493389
21344244 246 18263935513456199548
21682296 61 18131351938374458271
2215653 11 18339910598408120885
22393880 68 18261948570788772248
23379529 103 18192995039836370083
23522609 53 18055385571388574376
23559900 14 18337099190046903993
23576562 1 17386560406225078325
25025965 108 17630023997910215262
2748736 6 8285933336524688383
2838139 119 14201384010766180428
3004659 81 18260824904148619080
329604 57 18410858763511965380
335352 9 18409442575983437405
3459 39 8790608056960834910
4107672 100 17821442444656112101
437815 12 18202278117815086209
439807 62 18407763646405870187
44062 13 18410288099591636541
465052 167 18059578030925901988
474144 1 17460007631503231227
484985 159 18342747286847122385
57307002 29 17603856837272163527
58902169 19 17240205413409431398
6201460 15 16911417566250258719
6823239 73 18339348768755492273
7970288 3 18342739619935379198
86090 222 16773530905845414734
9980921 52 17339834584786880479

> <PUBCHEM_SHAPE_MULTIPOLES>
521.85
19.08
3.6
1.19
20.32
0.85
0.22
14.86
9.17
-3.27
-0.92
-0.15
0.01
1.8

> <PUBCHEM_SHAPE_SELFOVERLAP>
1132.485

> <PUBCHEM_SHAPE_VOLUME>
287.4

> <PUBCHEM_COORDINATE_TYPE>
2
5
10

$$$$
