11620410
  -OEChem-10052120443D

 62 66  0     1  0  0  0  0  0999 V2000
   -7.0282   -0.5292    0.3186 Cl  0  0  0  0  0  0  0  0  0  0  0  0
   -4.2934   -0.9432   -0.8694 O   0  0  0  0  0  0  0  0  0  0  0  0
   -0.3185    4.1021    0.5956 O   0  0  0  0  0  0  0  0  0  0  0  0
    4.1664    1.8477   -1.5119 O   0  0  0  0  0  0  0  0  0  0  0  0
    4.1095   -0.9241    2.7325 O   0  0  0  0  0  0  0  0  0  0  0  0
   -1.8259   -3.7168   -0.9281 N   0  0  1  0  0  0  0  0  0  0  0  0
   -2.4371    3.1919    0.7441 N   0  0  0  0  0  0  0  0  0  0  0  0
   -0.5686    2.0098   -0.2386 N   0  0  0  0  0  0  0  0  0  0  0  0
    4.8809   -2.1381   -0.4789 N   0  0  0  0  0  0  0  0  0  0  0  0
    4.7014   -3.0530    2.0294 N   0  0  0  0  0  0  0  0  0  0  0  0
   -3.1168   -3.0183   -0.9994 C   0  0  1  0  0  0  0  0  0  0  0  0
   -3.8905   -3.6184    0.1768 C   0  0  0  0  0  0  0  0  0  0  0  0
   -3.2599   -4.9855    0.4181 C   0  0  0  0  0  0  0  0  0  0  0  0
   -2.1670   -5.1101   -0.6302 C   0  0  0  0  0  0  0  0  0  0  0  0
   -2.9928   -1.5046   -0.8810 C   0  0  0  0  0  0  0  0  0  0  0  0
   -1.0428   -3.6092   -2.1531 C   0  0  0  0  0  0  0  0  0  0  0  0
   -4.4611    0.2257   -0.1697 C   0  0  0  0  0  0  0  0  0  0  0  0
   -3.3841    1.1060   -0.0656 C   0  0  0  0  0  0  0  0  0  0  0  0
   -5.6798    0.5408    0.4313 C   0  0  0  0  0  0  0  0  0  0  0  0
   -3.5258    2.3012    0.6395 C   0  0  0  0  0  0  0  0  0  0  0  0
   -5.8216    1.7359    1.1363 C   0  0  0  0  0  0  0  0  0  0  0  0
   -4.7446    2.6161    1.2404 C   0  0  0  0  0  0  0  0  0  0  0  0
   -1.1360    3.0408    0.3479 C   0  0  0  0  0  0  0  0  0  0  0  0
    0.7349    2.4137   -0.3968 C   0  0  0  0  0  0  0  0  0  0  0  0
    0.8920    3.6942    0.1127 C   0  0  0  0  0  0  0  0  0  0  0  0
    1.8455    1.7665   -0.9571 C   0  0  0  0  0  0  0  0  0  0  0  0
    2.0857    4.4049    0.1142 C   0  0  0  0  0  0  0  0  0  0  0  0
    3.0687    2.4523   -0.9738 C   0  0  0  0  0  0  0  0  0  0  0  0
    3.1838    3.7452   -0.4482 C   0  0  0  0  0  0  0  0  0  0  0  0
    4.4037    0.5283   -1.1694 C   0  0  0  0  0  0  0  0  0  0  0  0
    4.2927    0.1196    0.1550 C   0  0  0  0  0  0  0  0  0  0  0  0
    4.7531   -0.3946   -2.1490 C   0  0  0  0  0  0  0  0  0  0  0  0
    4.5394   -1.2125    0.4455 C   0  0  0  0  0  0  0  0  0  0  0  0
    4.9793   -1.7037   -1.7554 C   0  0  0  0  0  0  0  0  0  0  0  0
    4.4379   -1.6948    1.8121 C   0  0  0  0  0  0  0  0  0  0  0  0
    4.6194   -3.6864    3.3259 C   0  0  0  0  0  0  0  0  0  0  0  0
   -3.6547   -3.2744   -1.9236 H   0  0  0  0  0  0  0  0  0  0  0  0
   -3.8028   -3.0116    1.0862 H   0  0  0  0  0  0  0  0  0  0  0  0
   -4.9567   -3.7115   -0.0575 H   0  0  0  0  0  0  0  0  0  0  0  0
   -3.9942   -5.7929    0.3330 H   0  0  0  0  0  0  0  0  0  0  0  0
   -2.8344   -5.0234    1.4279 H   0  0  0  0  0  0  0  0  0  0  0  0
   -1.3079   -5.6722   -0.2505 H   0  0  0  0  0  0  0  0  0  0  0  0
   -2.5604   -5.6289   -1.5140 H   0  0  0  0  0  0  0  0  0  0  0  0
   -2.4365   -1.2772    0.0391 H   0  0  0  0  0  0  0  0  0  0  0  0
   -2.4439   -1.1010   -1.7394 H   0  0  0  0  0  0  0  0  0  0  0  0
   -0.1166   -4.1881   -2.0639 H   0  0  0  0  0  0  0  0  0  0  0  0
   -0.7442   -2.5722   -2.3366 H   0  0  0  0  0  0  0  0  0  0  0  0
   -1.5890   -3.9714   -3.0315 H   0  0  0  0  0  0  0  0  0  0  0  0
   -2.4690    0.8770   -0.5912 H   0  0  0  0  0  0  0  0  0  0  0  0
   -6.7649    1.9956    1.6101 H   0  0  0  0  0  0  0  0  0  0  0  0
   -4.8691    3.5439    1.7931 H   0  0  0  0  0  0  0  0  0  0  0  0
   -2.6767    4.0627    1.2119 H   0  0  0  0  0  0  0  0  0  0  0  0
    1.7314    0.7736   -1.3794 H   0  0  0  0  0  0  0  0  0  0  0  0
    2.1641    5.4043    0.5234 H   0  0  0  0  0  0  0  0  0  0  0  0
    4.1456    4.2530   -0.4742 H   0  0  0  0  0  0  0  0  0  0  0  0
    4.0431    0.8258    0.9405 H   0  0  0  0  0  0  0  0  0  0  0  0
    4.8462   -0.1038   -3.1894 H   0  0  0  0  0  0  0  0  0  0  0  0
    5.2540   -2.4622   -2.4810 H   0  0  0  0  0  0  0  0  0  0  0  0
    4.9838   -3.6284    1.2411 H   0  0  0  0  0  0  0  0  0  0  0  0
    3.9264   -3.1478    3.9766 H   0  0  0  0  0  0  0  0  0  0  0  0
    4.2796   -4.7153    3.1869 H   0  0  0  0  0  0  0  0  0  0  0  0
    5.6176   -3.6863    3.7706 H   0  0  0  0  0  0  0  0  0  0  0  0
  1 19  1  0  0  0  0
  2 15  1  0  0  0  0
  2 17  1  0  0  0  0
  3 23  1  0  0  0  0
  3 25  1  0  0  0  0
  4 28  1  0  0  0  0
  4 30  1  0  0  0  0
  5 35  2  0  0  0  0
  6 11  1  0  0  0  0
  6 14  1  0  0  0  0
  6 16  1  0  0  0  0
  7 20  1  0  0  0  0
  7 23  1  0  0  0  0
  7 52  1  0  0  0  0
  8 23  2  0  0  0  0
  8 24  1  0  0  0  0
  9 33  2  0  0  0  0
  9 34  1  0  0  0  0
 10 35  1  0  0  0  0
 10 36  1  0  0  0  0
 10 59  1  0  0  0  0
 11 12  1  0  0  0  0
 11 15  1  0  0  0  0
 11 37  1  0  0  0  0
 12 13  1  0  0  0  0
 12 38  1  0  0  0  0
 12 39  1  0  0  0  0
 13 14  1  0  0  0  0
 13 40  1  0  0  0  0
 13 41  1  0  0  0  0
 14 42  1  0  0  0  0
 14 43  1  0  0  0  0
 15 44  1  0  0  0  0
 15 45  1  0  0  0  0
 16 46  1  0  0  0  0
 16 47  1  0  0  0  0
 16 48  1  0  0  0  0
 17 18  1  0  0  0  0
 17 19  2  0  0  0  0
 18 20  2  0  0  0  0
 18 49  1  0  0  0  0
 19 21  1  0  0  0  0
 20 22  1  0  0  0  0
 21 22  2  0  0  0  0
 21 50  1  0  0  0  0
 22 51  1  0  0  0  0
 24 25  2  0  0  0  0
 24 26  1  0  0  0  0
 25 27  1  0  0  0  0
 26 28  2  0  0  0  0
 26 53  1  0  0  0  0
 27 29  2  0  0  0  0
 27 54  1  0  0  0  0
 28 29  1  0  0  0  0
 29 55  1  0  0  0  0
 30 31  2  0  0  0  0
 30 32  1  0  0  0  0
 31 33  1  0  0  0  0
 31 56  1  0  0  0  0
 32 34  2  0  0  0  0
 32 57  1  0  0  0  0
 33 35  1  0  0  0  0
 34 58  1  0  0  0  0
 36 60  1  0  0  0  0
 36 61  1  0  0  0  0
 36 62  1  0  0  0  0
M  END
> <PUBCHEM_COMPOUND_CID>
11620410

> <PUBCHEM_CONFORMER_RMSD>
1.4

> <PUBCHEM_CONFORMER_DIVERSEORDER>
1
50
89
45
37
108
103
94
98
133
51
131
15
10
86
76
35
139
128
134
71
99
116
113
24
132
6
25
13
72
100
95
126
39
140
55
120
73
112
130
18
127
135
57
91
21
68
121
12
53
19
34
79
138
111
136
124
88
46
52
74
2
26
63
137
65
90
106
78
7
17
75
67
110
33
114
129
102
49
104
27
59
47
115
96
70
36
56
109
125
54
30
28
101
83
97
123
43
40
64
42
11
32
29
38
118
41
60
20
69
44
107
105
22
62
58
85
87
81
117
31
77
48
23
14
93
92
82
5
122
16
4
8
66
119
9
61
3
84
80

> <PUBCHEM_MMFF94_PARTIAL_CHARGES>
45
1 -0.18
10 -0.73
11 0.27
14 0.27
15 0.28
16 0.27
17 0.08
18 -0.15
19 0.18
2 -0.36
20 0.1
21 -0.15
22 -0.15
23 0.56
24 0.23
25 0.14
26 -0.15
27 -0.15
28 0.08
29 -0.15
3 -0.28
30 0.08
31 -0.15
32 -0.15
33 0.4
34 0.16
35 0.54
36 0.3
4 -0.17
49 0.15
5 -0.57
50 0.15
51 0.15
52 0.4
53 0.15
54 0.15
55 0.15
56 0.15
57 0.15
58 0.15
59 0.37
6 -0.81
7 -0.58
8 -0.57
9 -0.62

> <PUBCHEM_EFFECTIVE_ROTOR_COUNT>
10

> <PUBCHEM_PHARMACOPHORE_FEATURES>
13
1 10 donor
1 2 acceptor
1 4 acceptor
1 5 acceptor
1 6 cation
1 7 donor
1 9 acceptor
3 7 8 23 cation
5 3 8 23 24 25 rings
5 6 11 12 13 14 rings
6 17 18 19 20 21 22 rings
6 24 25 26 27 28 29 rings
6 9 30 31 32 33 34 rings

> <PUBCHEM_HEAVY_ATOM_COUNT>
36

> <PUBCHEM_ATOM_DEF_STEREO_COUNT>
1

> <PUBCHEM_ATOM_UDEF_STEREO_COUNT>
0

> <PUBCHEM_BOND_DEF_STEREO_COUNT>
0

> <PUBCHEM_BOND_UDEF_STEREO_COUNT>
0

> <PUBCHEM_ISOTOPIC_ATOM_COUNT>
0

> <PUBCHEM_COMPONENT_COUNT>
1

> <PUBCHEM_CACTVS_TAUTO_COUNT>
4

> <PUBCHEM_CONFORMER_ID>
00B1503A00000001

> <PUBCHEM_MMFF94_ENERGY>
104.8976

> <PUBCHEM_FEATURE_SELFOVERLAP>
66.091

> <PUBCHEM_SHAPE_FINGERPRINT>
10254770 206 18337380535631290146
10462674 125 13538479800384930148
10462674 296 16620393417125137374
10622 236 17607244256271236120
10908659 184 18265626376980164995
10928967 22 18260269624917214916
11186622 123 18266179628681134004
12218070 45 18121481476800778578
14508693 111 18336817697768764770
14705955 166 17130703860661630312
15001296 14 18336546130875326325
15250474 111 18339922748100825477
15264996 55 17689443689476449107
15320291 9 18266733773841322422
15320294 125 18116709612793412918
15320467 1 18341624676447696791
15351339 4 18122057865026341155
15776043 110 18334018289308393555
16628084 112 18269831082040063711
19958102 18 18338792433959470733
21133410 171 17121930006574425246
21703447 108 17696750335105753065
229767 44 18268134367050461467
3383291 50 18342181081467245795
3882209 13 17626913681578510031
4073 2 18053951928716964933
42767 46 18337958874294387450
4394409 98 18046606937861156965
44344687 77 17542796751714458083
463206 1 18410300215457144636
4756261 7 17906419450797998384
50677037 204 18121749825561302642

> <PUBCHEM_SHAPE_MULTIPOLES>
694.35
15.21
7.87
2.04
4.31
3.87
1.18
5.42
2.93
1.79
0.88
-3.82
2.43
-5.08

> <PUBCHEM_SHAPE_SELFOVERLAP>
1508.671

> <PUBCHEM_SHAPE_VOLUME>
381

> <PUBCHEM_COORDINATE_TYPE>
2
5
10

$$$$
