57395116
  -OEChem-10052115173D

 61 66  0     1  0  0  0  0  0999 V2000
    3.8909    2.0022    0.4671 O   0  0  0  0  0  0  0  0  0  0  0  0
   -2.4585    0.0289   -0.5534 N   0  0  2  0  0  0  0  0  0  0  0  0
    1.5967    1.6357    0.1363 N   0  0  0  0  0  0  0  0  0  0  0  0
   -5.5240   -2.0980   -0.8703 N   0  0  0  0  0  0  0  0  0  0  0  0
    2.7042   -1.1325    0.9573 N   0  0  0  0  0  0  0  0  0  0  0  0
   -0.7772    1.6153   -0.4320 C   0  0  2  0  0  0  0  0  0  0  0  0
   -2.0407    1.1494    0.2919 C   0  0  0  0  0  0  0  0  0  0  0  0
   -1.1730    1.4981   -1.9139 C   0  0  0  0  0  0  0  0  0  0  0  0
   -2.3412    0.5082   -1.9334 C   0  0  0  0  0  0  0  0  0  0  0  0
    0.4527    0.7266   -0.1027 C   0  0  0  0  0  0  0  0  0  0  0  0
   -3.7975   -0.4435   -0.2369 C   0  0  2  0  0  0  0  0  0  0  0  0
   -0.2693    2.9774   -0.0545 C   0  0  0  0  0  0  0  0  0  0  0  0
   -3.8491   -0.9277    1.2146 C   0  0  0  0  0  0  0  0  0  0  0  0
    1.1003    2.9529    0.2274 C   0  0  0  0  0  0  0  0  0  0  0  0
   -4.1990   -1.5672   -1.1992 C   0  0  0  0  0  0  0  0  0  0  0  0
   -5.2132   -1.5444    1.5186 C   0  0  0  0  0  0  0  0  0  0  0  0
   -5.5707   -2.6319    0.4966 C   0  0  1  0  0  0  0  0  0  0  0  0
   -0.9801    4.1709   -0.0124 C   0  0  0  0  0  0  0  0  0  0  0  0
    1.7820    4.1180    0.5514 C   0  0  0  0  0  0  0  0  0  0  0  0
    2.9286    1.2655    0.2690 C   0  0  0  0  0  0  0  0  0  0  0  0
   -0.3040    5.3452    0.3186 C   0  0  0  0  0  0  0  0  0  0  0  0
   -6.9685   -3.1847    0.7690 C   0  0  0  0  0  0  0  0  0  0  0  0
    1.0681    5.3184    0.5971 C   0  0  0  0  0  0  0  0  0  0  0  0
    3.2294   -0.1684    0.1393 C   0  0  0  0  0  0  0  0  0  0  0  0
    4.0493   -0.7893   -0.7747 C   0  0  0  0  0  0  0  0  0  0  0  0
    3.1710   -2.3740    0.5886 C   0  0  0  0  0  0  0  0  0  0  0  0
    4.0221   -2.1858   -0.5025 C   0  0  0  0  0  0  0  0  0  0  0  0
    2.9076   -3.6365    1.1319 C   0  0  0  0  0  0  0  0  0  0  0  0
    4.6416   -3.3110   -1.0815 C   0  0  0  0  0  0  0  0  0  0  0  0
    3.5338   -4.7379    0.5414 C   0  0  0  0  0  0  0  0  0  0  0  0
    4.3878   -4.5799   -0.5483 C   0  0  0  0  0  0  0  0  0  0  0  0
   -1.8164    0.8533    1.3219 H   0  0  0  0  0  0  0  0  0  0  0  0
   -2.8043    1.9378    0.3189 H   0  0  0  0  0  0  0  0  0  0  0  0
   -0.3444    1.1545   -2.5432 H   0  0  0  0  0  0  0  0  0  0  0  0
   -1.5106    2.4584   -2.3230 H   0  0  0  0  0  0  0  0  0  0  0  0
   -2.1315   -0.3128   -2.6269 H   0  0  0  0  0  0  0  0  0  0  0  0
   -3.2434    1.0329   -2.2732 H   0  0  0  0  0  0  0  0  0  0  0  0
    0.2989    0.1607    0.8237 H   0  0  0  0  0  0  0  0  0  0  0  0
    0.7010    0.0149   -0.8976 H   0  0  0  0  0  0  0  0  0  0  0  0
   -4.5204    0.3787   -0.3483 H   0  0  0  0  0  0  0  0  0  0  0  0
   -3.6890   -0.1081    1.9236 H   0  0  0  0  0  0  0  0  0  0  0  0
   -3.0665   -1.6758    1.3982 H   0  0  0  0  0  0  0  0  0  0  0  0
   -4.2508   -1.2104   -2.2334 H   0  0  0  0  0  0  0  0  0  0  0  0
   -3.4644   -2.3829   -1.1843 H   0  0  0  0  0  0  0  0  0  0  0  0
   -5.2019   -1.9692    2.5295 H   0  0  0  0  0  0  0  0  0  0  0  0
   -5.9763   -0.7548    1.5148 H   0  0  0  0  0  0  0  0  0  0  0  0
   -4.8574   -3.4618    0.5813 H   0  0  0  0  0  0  0  0  0  0  0  0
   -2.0400    4.2015   -0.2426 H   0  0  0  0  0  0  0  0  0  0  0  0
   -6.2145   -1.3526   -0.9642 H   0  0  0  0  0  0  0  0  0  0  0  0
    2.8404    4.1325    0.7803 H   0  0  0  0  0  0  0  0  0  0  0  0
   -0.8431    6.2877    0.3555 H   0  0  0  0  0  0  0  0  0  0  0  0
   -7.7337   -2.4036    0.6968 H   0  0  0  0  0  0  0  0  0  0  0  0
   -7.0230   -3.6165    1.7742 H   0  0  0  0  0  0  0  0  0  0  0  0
   -7.2233   -3.9748    0.0539 H   0  0  0  0  0  0  0  0  0  0  0  0
    1.5822    6.2413    0.8523 H   0  0  0  0  0  0  0  0  0  0  0  0
    2.0771   -0.9618    1.7313 H   0  0  0  0  0  0  0  0  0  0  0  0
    4.6097   -0.2952   -1.5571 H   0  0  0  0  0  0  0  0  0  0  0  0
    2.2427   -3.7603    1.9800 H   0  0  0  0  0  0  0  0  0  0  0  0
    5.3095   -3.2023   -1.9313 H   0  0  0  0  0  0  0  0  0  0  0  0
    3.3506   -5.7327    0.9394 H   0  0  0  0  0  0  0  0  0  0  0  0
    4.8630   -5.4515   -0.9907 H   0  0  0  0  0  0  0  0  0  0  0  0
  1 20  2  0  0  0  0
  2  7  1  0  0  0  0
  2  9  1  0  0  0  0
  2 11  1  0  0  0  0
  3 10  1  0  0  0  0
  3 14  1  0  0  0  0
  3 20  1  0  0  0  0
  4 15  1  0  0  0  0
  4 17  1  0  0  0  0
  4 49  1  0  0  0  0
  5 24  1  0  0  0  0
  5 26  1  0  0  0  0
  5 56  1  0  0  0  0
  6  7  1  0  0  0  0
  6  8  1  0  0  0  0
  6 10  1  0  0  0  0
  6 12  1  0  0  0  0
  7 32  1  0  0  0  0
  7 33  1  0  0  0  0
  8  9  1  0  0  0  0
  8 34  1  0  0  0  0
  8 35  1  0  0  0  0
  9 36  1  0  0  0  0
  9 37  1  0  0  0  0
 10 38  1  0  0  0  0
 10 39  1  0  0  0  0
 11 13  1  0  0  0  0
 11 15  1  0  0  0  0
 11 40  1  0  0  0  0
 12 14  1  0  0  0  0
 12 18  2  0  0  0  0
 13 16  1  0  0  0  0
 13 41  1  0  0  0  0
 13 42  1  0  0  0  0
 14 19  2  0  0  0  0
 15 43  1  0  0  0  0
 15 44  1  0  0  0  0
 16 17  1  0  0  0  0
 16 45  1  0  0  0  0
 16 46  1  0  0  0  0
 17 22  1  0  0  0  0
 17 47  1  0  0  0  0
 18 21  1  0  0  0  0
 18 48  1  0  0  0  0
 19 23  1  0  0  0  0
 19 50  1  0  0  0  0
 20 24  1  0  0  0  0
 21 23  2  0  0  0  0
 21 51  1  0  0  0  0
 22 52  1  0  0  0  0
 22 53  1  0  0  0  0
 22 54  1  0  0  0  0
 23 55  1  0  0  0  0
 24 25  2  0  0  0  0
 25 27  1  0  0  0  0
 25 57  1  0  0  0  0
 26 27  1  0  0  0  0
 26 28  2  0  0  0  0
 27 29  2  0  0  0  0
 28 30  1  0  0  0  0
 28 58  1  0  0  0  0
 29 31  1  0  0  0  0
 29 59  1  0  0  0  0
 30 31  2  0  0  0  0
 30 60  1  0  0  0  0
 31 61  1  0  0  0  0
M  END
> <PUBCHEM_COMPOUND_CID>
57395116

> <PUBCHEM_CONFORMER_RMSD>
0.8

> <PUBCHEM_CONFORMER_DIVERSEORDER>
1
114
35
127
63
130
133
71
48
31
82
46
51
80
66
128
15
104
131
116
118
21
64
27
13
68
62
11
92
125
28
111
110
42
123
73
24
129
5
115
83
56
112
103
14
61
98
47
94
17
121
12
67
74
22
95
90
113
72
23
126
99
117
100
60
18
55
96
2
76
120
65
88
119
30
85
9
40
132
81
45
79
19
59
37
50
57
107
6
10
109
58
102
122
43
44
49
16
108
20
77
86
36
84
29
52
101
38
105
124
32
54
87
69
93
75
70
25
97
106
34
39
41
78
33
53
89
91
26
8
4
7
3

> <PUBCHEM_MMFF94_PARTIAL_CHARGES>
37
1 -0.57
10 0.3
11 0.27
12 -0.14
14 0.12
15 0.27
17 0.27
18 -0.15
19 -0.15
2 -0.81
20 0.71
21 -0.15
23 -0.15
24 -0.24
25 -0.15
26 -0.15
28 -0.15
29 -0.15
3 -0.48
30 -0.15
31 -0.15
4 -0.9
48 0.15
49 0.36
5 0.03
50 0.15
51 0.15
55 0.15
56 0.27
57 0.15
58 0.15
59 0.15
6 0.14
60 0.15
61 0.15
7 0.27
9 0.27

> <PUBCHEM_EFFECTIVE_ROTOR_COUNT>
5.4

> <PUBCHEM_PHARMACOPHORE_FEATURES>
12
1 1 acceptor
1 2 cation
1 4 cation
1 4 donor
1 5 cation
1 5 donor
5 2 6 7 8 9 rings
5 3 6 10 12 14 rings
5 5 24 25 26 27 rings
6 12 14 18 19 21 23 rings
6 26 27 28 29 30 31 rings
6 4 11 13 15 16 17 rings

> <PUBCHEM_HEAVY_ATOM_COUNT>
31

> <PUBCHEM_ATOM_DEF_STEREO_COUNT>
2

> <PUBCHEM_ATOM_UDEF_STEREO_COUNT>
1

> <PUBCHEM_BOND_DEF_STEREO_COUNT>
0

> <PUBCHEM_BOND_UDEF_STEREO_COUNT>
0

> <PUBCHEM_ISOTOPIC_ATOM_COUNT>
0

> <PUBCHEM_COMPONENT_COUNT>
1

> <PUBCHEM_CACTVS_TAUTO_COUNT>
6

> <PUBCHEM_CONFORMER_ID>
036BC7AC00000001

> <PUBCHEM_MMFF94_ENERGY>
80.3949

> <PUBCHEM_FEATURE_SELFOVERLAP>
61.089

> <PUBCHEM_SHAPE_FINGERPRINT>
10439779 11 13079438424615786099
10928967 22 18342735178654813966
11014199 57 18266177228163459634
11049842 53 14854374003027468171
11103572 95 17829065543957712243
11227688 84 18412535505817133566
114674 6 18189049965860770587
11763715 3 18193019074135742116
11991303 11 17681560230049956133
12107183 9 18271261426250492937
12633046 712 18408318870356744045
12788726 201 17903629679847897849
13533116 47 18194126446334189827
1361 2 18194403513999696051
13690498 29 18126299545148442366
13692114 37 17333079236182453928
13726171 33 17699869323898951620
13785724 45 18342188739013749807
13911852 28 18411420601069129927
13911987 19 18045520839844072868
13955234 65 18125158492375439353
14863182 85 18265050426424878452
14866123 147 17763743191944051561
14910700 183 18051959601321150864
15320294 125 16674716404235507226
15400415 2 17474669933330648905
16628084 112 17182489599920234005
16719943 64 17043446441702984944
17492 89 18266458716088875974
17859628 70 18266459991298108145
17909252 39 18411137992337344850
19301676 85 18049996698303922215
19319366 153 18192438678578708566
20028762 73 17910105055837414278
20505436 4 17197711698594095157
20775530 9 18188213074472307738
21133410 171 17324027682933550139
21133410 38 17477500058870438859
21133410 58 18196909215770478631
21133410 62 16247392914849630278
21315759 227 18116983408801296814
22033318 11 17913243982010863105
22440779 20 17387156203630085537
22849339 104 17549558305552153878
23466295 7 18051135791674570752
23559900 14 17337290989431294034
23569914 152 17906413729896110031
23845131 108 17187842563558628153
24893989 43 17483970637154230831
3117164 225 18341060649085264065
3383291 50 17545878231222721681
345986 75 17917716816133305459
3737641 26 18411141324835866062
404807 14 18338242544848803859
44880168 125 17059214726851859902
4616759 239 17407370570446356786
463206 1 18335143102404426291
5309563 4 18411421695768968590
5912855 24 18267315235557242596
613672 6 18194655147300709214
6376802 90 17753869650915958340
6697151 62 18270098181455116925
7970288 3 18411702049833470831
86090 222 17604435231606157267
9658208 31 17388502031827518997
9831232 110 17970349429087428799

> <PUBCHEM_SHAPE_MULTIPOLES>
612.17
12.09
8.27
1.3
12.38
5.59
0.35
-22.24
-0.97
-4.72
-1.83
0.85
-0.43
1.46

> <PUBCHEM_SHAPE_SELFOVERLAP>
1357.154

> <PUBCHEM_SHAPE_VOLUME>
330.2

> <PUBCHEM_COORDINATE_TYPE>
2
5
10

$$$$
