162883
  -OEChem-10062122043D

 21 23  0     0  0  0  0  0  0999 V2000
   -4.3811    1.6186   -0.0006 Br  0  0  0  0  0  0  0  0  0  0  0  0
    0.6111   -1.7287    0.0000 N   0  0  0  0  0  0  0  0  0  0  0  0
    3.7472    0.2131   -0.0006 N   0  0  0  0  0  0  0  0  0  0  0  0
   -0.4438    0.2369    0.0002 C   0  0  0  0  0  0  0  0  0  0  0  0
    0.9675    0.4733    0.0004 C   0  0  0  0  0  0  0  0  0  0  0  0
   -0.6345   -1.1455    0.0002 C   0  0  0  0  0  0  0  0  0  0  0  0
    1.5962   -0.7714   -0.0001 C   0  0  0  0  0  0  0  0  0  0  0  0
   -1.5790    1.0743   -0.0001 C   0  0  0  0  0  0  0  0  0  0  0  0
   -1.9042   -1.7344    0.0003 C   0  0  0  0  0  0  0  0  0  0  0  0
    1.7681    1.6262    0.0006 C   0  0  0  0  0  0  0  0  0  0  0  0
    2.9790   -0.9007   -0.0007 C   0  0  0  0  0  0  0  0  0  0  0  0
   -2.8551    0.5000   -0.0002 C   0  0  0  0  0  0  0  0  0  0  0  0
   -3.0130   -0.8838    0.0003 C   0  0  0  0  0  0  0  0  0  0  0  0
    3.1414    1.4219    0.0003 C   0  0  0  0  0  0  0  0  0  0  0  0
    0.7781   -2.7254   -0.0002 H   0  0  0  0  0  0  0  0  0  0  0  0
   -1.4541    2.1540   -0.0003 H   0  0  0  0  0  0  0  0  0  0  0  0
   -2.0278   -2.8122    0.0004 H   0  0  0  0  0  0  0  0  0  0  0  0
    1.3462    2.6248    0.0011 H   0  0  0  0  0  0  0  0  0  0  0  0
    3.4894   -1.8549   -0.0013 H   0  0  0  0  0  0  0  0  0  0  0  0
   -4.0065   -1.3270    0.0003 H   0  0  0  0  0  0  0  0  0  0  0  0
    3.8195    2.2702    0.0005 H   0  0  0  0  0  0  0  0  0  0  0  0
  1 12  1  0  0  0  0
  2  6  1  0  0  0  0
  2  7  1  0  0  0  0
  2 15  1  0  0  0  0
  3 11  2  0  0  0  0
  3 14  1  0  0  0  0
  4  5  1  0  0  0  0
  4  6  2  0  0  0  0
  4  8  1  0  0  0  0
  5  7  2  0  0  0  0
  5 10  1  0  0  0  0
  6  9  1  0  0  0  0
  7 11  1  0  0  0  0
  8 12  2  0  0  0  0
  8 16  1  0  0  0  0
  9 13  2  0  0  0  0
  9 17  1  0  0  0  0
 10 14  2  0  0  0  0
 10 18  1  0  0  0  0
 11 19  1  0  0  0  0
 12 13  1  0  0  0  0
 13 20  1  0  0  0  0
 14 21  1  0  0  0  0
M  END
> <PUBCHEM_COMPOUND_CID>
162883

> <PUBCHEM_CONFORMER_RMSD>
0.4

> <PUBCHEM_CONFORMER_DIVERSEORDER>
1

> <PUBCHEM_MMFF94_PARTIAL_CHARGES>
19
1 -0.11
10 -0.15
11 0.16
12 0.11
13 -0.15
14 0.16
15 0.27
16 0.15
17 0.15
18 0.15
19 0.15
2 0.03
20 0.15
21 0.15
3 -0.62
6 -0.15
7 -0.15
8 -0.15
9 -0.15

> <PUBCHEM_EFFECTIVE_ROTOR_COUNT>
0

> <PUBCHEM_PHARMACOPHORE_FEATURES>
7
1 1 hydrophobe
1 2 cation
1 2 donor
1 3 acceptor
5 2 4 5 6 7 rings
6 3 5 7 10 11 14 rings
6 4 6 8 9 12 13 rings

> <PUBCHEM_HEAVY_ATOM_COUNT>
14

> <PUBCHEM_ATOM_DEF_STEREO_COUNT>
0

> <PUBCHEM_ATOM_UDEF_STEREO_COUNT>
0

> <PUBCHEM_BOND_DEF_STEREO_COUNT>
0

> <PUBCHEM_BOND_UDEF_STEREO_COUNT>
0

> <PUBCHEM_ISOTOPIC_ATOM_COUNT>
0

> <PUBCHEM_COMPONENT_COUNT>
1

> <PUBCHEM_CACTVS_TAUTO_COUNT>
2

> <PUBCHEM_CONFORMER_ID>
00027C4300000001

> <PUBCHEM_MMFF94_ENERGY>
29.2669

> <PUBCHEM_FEATURE_SELFOVERLAP>
35.706

> <PUBCHEM_SHAPE_FINGERPRINT>
10608611 8 18411697729016736505
10967382 1 18338797784491155973
11132069 177 18411414016409362120
11471102 20 18339357466122288141
11543360 7 15697704995814037265
12491281 212 18410020939492964921
13140716 1 18409162216574389736
13380535 76 18411981330334457647
13571099 22 18131073692986144854
13922767 16 18341045242203915256
14144814 61 18410011056841691010
14325111 11 18410855494530273568
14897335 6 18411979144238087605
14911166 2 18340494348423978694
15196674 1 18410855468733946628
15219456 202 18411704291842529975
15442244 35 18266739086952685666
15536298 74 18343021103654355574
15775835 57 18335706030882289845
16945 1 18338516330989353254
18186145 218 18412829057740960485
193761 8 17257933689307240966
19591789 44 15533074707332892478
200 152 17917985092659671263
20510252 161 18270686488399490595
20645477 70 18200312113272216959
21267235 1 18410302440171193103
21501502 16 18410007775344381870
21524375 3 18411698743187830253
2334 1 18338517572229542593
23402539 116 18201710747770546732
23402655 69 18271233912526567997
23463225 33 18407757041035864466
23559900 14 18273213093633261080
25 1 18337669715915959821
2748010 2 18338801220470293646
335352 9 18266458711276586998
5104073 3 18409728473615699770
528886 8 18411695482737927546
53812653 166 18411979143879482552
6430166 295 18409163281810973593
69090 78 18411976949662741263
7364860 26 18268993081389618782
7832392 63 18411416219722342604
9709674 26 18412549837691106799

> <PUBCHEM_SHAPE_MULTIPOLES>
284.09
6.75
1.95
0.62
1.86
0.09
0
-2.73
0
0.41
0
0.07
-0.02
0

> <PUBCHEM_SHAPE_SELFOVERLAP>
628.051

> <PUBCHEM_SHAPE_VOLUME>
157.2

> <PUBCHEM_COORDINATE_TYPE>
2
5
10

$$$$
