49830941
  -OEChem-10062121543D

 27 29  0     0  0  0  0  0  0999 V2000
   -1.1769    0.2168    0.0000 N   0  0  0  0  0  0  0  0  0  0  0  0
   -2.2928    2.1560    0.0045 N   0  0  0  0  0  0  0  0  0  0  0  0
    0.0934    2.2244   -0.0208 N   0  0  0  0  0  0  0  0  0  0  0  0
   -0.1630   -0.7559   -0.0081 C   0  0  0  0  0  0  0  0  0  0  0  0
   -2.5313   -0.0932    0.0065 C   0  0  0  0  0  0  0  0  0  0  0  0
    1.2677   -0.4136   -0.0020 C   0  0  0  0  0  0  0  0  0  0  0  0
   -1.1047    1.5912   -0.0067 C   0  0  0  0  0  0  0  0  0  0  0  0
   -0.5331   -2.0549   -0.0102 C   0  0  0  0  0  0  0  0  0  0  0  0
   -2.9060   -1.4617    0.0046 C   0  0  0  0  0  0  0  0  0  0  0  0
   -3.1853    1.1156    0.0126 C   0  0  0  0  0  0  0  0  0  0  0  0
   -1.9457   -2.4046   -0.0051 C   0  0  0  0  0  0  0  0  0  0  0  0
    1.9509   -0.2507   -1.2070 C   0  0  0  0  0  0  0  0  0  0  0  0
    1.9409   -0.2518    1.2088 C   0  0  0  0  0  0  0  0  0  0  0  0
    3.3076    0.0739   -1.2014 C   0  0  0  0  0  0  0  0  0  0  0  0
    3.2974    0.0729    1.2147 C   0  0  0  0  0  0  0  0  0  0  0  0
    3.9808    0.2357    0.0095 C   0  0  0  0  0  0  0  0  0  0  0  0
    0.1851   -2.8684   -0.0125 H   0  0  0  0  0  0  0  0  0  0  0  0
   -3.9553   -1.7356    0.0092 H   0  0  0  0  0  0  0  0  0  0  0  0
   -4.2513    1.2922    0.0203 H   0  0  0  0  0  0  0  0  0  0  0  0
   -2.2032   -3.4583   -0.0076 H   0  0  0  0  0  0  0  0  0  0  0  0
    1.4398   -0.3724   -2.1590 H   0  0  0  0  0  0  0  0  0  0  0  0
    1.4219   -0.3742    2.1564 H   0  0  0  0  0  0  0  0  0  0  0  0
    3.8395    0.2012   -2.1397 H   0  0  0  0  0  0  0  0  0  0  0  0
    3.8215    0.1994    2.1574 H   0  0  0  0  0  0  0  0  0  0  0  0
    0.1171    3.2402   -0.0241 H   0  0  0  0  0  0  0  0  0  0  0  0
    1.0093    1.8074   -0.0299 H   0  0  0  0  0  0  0  0  0  0  0  0
    5.0370    0.4888    0.0141 H   0  0  0  0  0  0  0  0  0  0  0  0
  1  4  1  0  0  0  0
  1  5  1  0  0  0  0
  1  7  1  0  0  0  0
  2  7  2  0  0  0  0
  2 10  1  0  0  0  0
  3  7  1  0  0  0  0
  3 25  1  0  0  0  0
  3 26  1  0  0  0  0
  4  6  1  0  0  0  0
  4  8  2  0  0  0  0
  5  9  1  0  0  0  0
  5 10  2  0  0  0  0
  6 12  2  0  0  0  0
  6 13  1  0  0  0  0
  8 11  1  0  0  0  0
  8 17  1  0  0  0  0
  9 11  2  0  0  0  0
  9 18  1  0  0  0  0
 10 19  1  0  0  0  0
 11 20  1  0  0  0  0
 12 14  1  0  0  0  0
 12 21  1  0  0  0  0
 13 15  2  0  0  0  0
 13 22  1  0  0  0  0
 14 16  2  0  0  0  0
 14 23  1  0  0  0  0
 15 16  1  0  0  0  0
 15 24  1  0  0  0  0
 16 27  1  0  0  0  0
M  END
> <PUBCHEM_COMPOUND_CID>
49830941

> <PUBCHEM_CONFORMER_RMSD>
0.6

> <PUBCHEM_CONFORMER_DIVERSEORDER>
1

> <PUBCHEM_MMFF94_PARTIAL_CHARGES>
27
1 0.33
10 0.08
11 -0.15
12 -0.15
13 -0.15
14 -0.15
15 -0.15
16 -0.15
17 0.15
18 0.15
19 0.15
2 -0.57
20 0.15
21 0.15
22 0.15
23 0.15
24 0.15
25 0.4
26 0.4
27 0.15
3 -0.88
4 -0.06
5 -0.2
6 0.03
7 0.27
8 -0.15
9 -0.11

> <PUBCHEM_EFFECTIVE_ROTOR_COUNT>
1

> <PUBCHEM_PHARMACOPHORE_FEATURES>
5
1 3 donor
4 1 2 3 7 cation
5 1 2 5 7 10 rings
6 1 4 5 8 9 11 rings
6 6 12 13 14 15 16 rings

> <PUBCHEM_HEAVY_ATOM_COUNT>
16

> <PUBCHEM_ATOM_DEF_STEREO_COUNT>
0

> <PUBCHEM_ATOM_UDEF_STEREO_COUNT>
0

> <PUBCHEM_BOND_DEF_STEREO_COUNT>
0

> <PUBCHEM_BOND_UDEF_STEREO_COUNT>
0

> <PUBCHEM_ISOTOPIC_ATOM_COUNT>
0

> <PUBCHEM_COMPONENT_COUNT>
1

> <PUBCHEM_CACTVS_TAUTO_COUNT>
2

> <PUBCHEM_CONFORMER_ID>
02F85C1D00000001

> <PUBCHEM_MMFF94_ENERGY>
48.8537

> <PUBCHEM_FEATURE_SELFOVERLAP>
25.47

> <PUBCHEM_SHAPE_FINGERPRINT>
10608611 8 18273492394834345576
10989021 7 18051976110784857227
11132069 177 18411699880810955169
11640471 11 17604166881806311972
12236239 1 17676486155416857442
12403814 3 17530683187049173901
12553582 1 18121222244790293427
13140716 1 18266464402662148651
13538477 17 18186798088995954450
13764800 53 18411145701349401721
13878862 14 16752970832907556417
14614273 12 18188484662655375237
15219456 202 17775004596331073118
15669948 3 18408321107427867494
15775835 57 18187366489204930152
16752209 62 18335973242552406239
16945 1 18410574011259085895
17357779 13 17986092214491758975
17846911 113 18339637850230131017
18175812 5 17846779632865216708
18186145 218 17845942827175451786
19049666 15 17917158173937395670
19868273 325 18336828683730384319
20510252 161 18343024397551413097
20645476 183 17894919520251922431
20871998 184 18272090534562446775
21524375 3 18196367014186033567
22112679 90 18040715883297541508
22802520 49 17986969469872333014
23175994 123 16988574493838513752
2334 1 17906171012012790883
23402539 116 18341883113035046294
23419403 2 17544149077299532005
23557571 272 18272097149186342884
23559900 14 18271811177695423750
2748010 2 18122354475842134823
350125 39 17762345708248744657
43471831 8 18334572404409046435
474 4 16952545830021981036
6333449 129 18342737416416170055
7097593 13 17898550009237339514
7364860 26 17693935198490896407
77492 1 17676205784178202566
81228 2 18411706525383968043
90316 7 18115009832378731888

> <PUBCHEM_SHAPE_MULTIPOLES>
314.33
5.98
2.18
0.98
3.12
0.1
0
0.34
0.02
-2.27
-0.01
1
-0.05
0

> <PUBCHEM_SHAPE_SELFOVERLAP>
702.992

> <PUBCHEM_SHAPE_VOLUME>
164

> <PUBCHEM_COORDINATE_TYPE>
2
5
10

$$$$
