24859296
  -OEChem-10052120433D

 31 33  0     0  0  0  0  0  0999 V2000
   -5.9538   -0.2459    0.0018 F   0  0  0  0  0  0  0  0  0  0  0  0
    1.5442   -1.6336   -0.0012 O   0  0  0  0  0  0  0  0  0  0  0  0
    0.0796    0.1938   -0.0013 N   0  0  0  0  0  0  0  0  0  0  0  0
   -3.6454   -1.7064    0.0007 N   0  0  0  0  0  0  0  0  0  0  0  0
    2.3559    0.5597   -0.0017 N   0  0  0  0  0  0  0  0  0  0  0  0
    4.2610   -0.8794    0.0000 N   0  0  0  0  0  0  0  0  0  0  0  0
    5.9146    1.3860    0.0013 N   0  0  0  0  0  0  0  0  0  0  0  0
   -2.3660    0.3357   -0.0004 C   0  0  0  0  0  0  0  0  0  0  0  0
   -1.1816   -0.4136   -0.0011 C   0  0  0  0  0  0  0  0  0  0  0  0
   -3.5924   -0.3610    0.0005 C   0  0  0  0  0  0  0  0  0  0  0  0
   -2.3478    1.7408   -0.0006 C   0  0  0  0  0  0  0  0  0  0  0  0
   -1.2329   -1.8000   -0.0008 C   0  0  0  0  0  0  0  0  0  0  0  0
   -4.7686    0.3838    0.0010 C   0  0  0  0  0  0  0  0  0  0  0  0
   -3.5393    2.4604    0.0000 C   0  0  0  0  0  0  0  0  0  0  0  0
   -4.7511    1.7807    0.0008 C   0  0  0  0  0  0  0  0  0  0  0  0
   -2.4794   -2.3924    0.0001 C   0  0  0  0  0  0  0  0  0  0  0  0
    1.3519   -0.4219   -0.0013 C   0  0  0  0  0  0  0  0  0  0  0  0
    3.7581    0.3712   -0.0018 C   0  0  0  0  0  0  0  0  0  0  0  0
    4.5704    1.4838   -0.0010 C   0  0  0  0  0  0  0  0  0  0  0  0
    5.6052   -0.9773    0.0021 C   0  0  0  0  0  0  0  0  0  0  0  0
    6.4174    0.1354    0.0029 C   0  0  0  0  0  0  0  0  0  0  0  0
   -1.4322    2.3226   -0.0013 H   0  0  0  0  0  0  0  0  0  0  0  0
   -0.3935   -2.4749   -0.0013 H   0  0  0  0  0  0  0  0  0  0  0  0
    0.1062    1.2063   -0.0014 H   0  0  0  0  0  0  0  0  0  0  0  0
   -3.5224    3.5461   -0.0002 H   0  0  0  0  0  0  0  0  0  0  0  0
   -5.6856    2.3339    0.0013 H   0  0  0  0  0  0  0  0  0  0  0  0
   -2.5834   -3.4727    0.0003 H   0  0  0  0  0  0  0  0  0  0  0  0
    2.0464    1.5284   -0.0020 H   0  0  0  0  0  0  0  0  0  0  0  0
    4.1791    2.4948   -0.0016 H   0  0  0  0  0  0  0  0  0  0  0  0
    6.0099   -1.9818    0.0034 H   0  0  0  0  0  0  0  0  0  0  0  0
    7.4975    0.0559    0.0048 H   0  0  0  0  0  0  0  0  0  0  0  0
  1 13  1  0  0  0  0
  2 17  2  0  0  0  0
  3  9  1  0  0  0  0
  3 17  1  0  0  0  0
  3 24  1  0  0  0  0
  4 10  2  0  0  0  0
  4 16  1  0  0  0  0
  5 17  1  0  0  0  0
  5 18  1  0  0  0  0
  5 28  1  0  0  0  0
  6 18  2  0  0  0  0
  6 20  1  0  0  0  0
  7 19  2  0  0  0  0
  7 21  1  0  0  0  0
  8  9  2  0  0  0  0
  8 10  1  0  0  0  0
  8 11  1  0  0  0  0
  9 12  1  0  0  0  0
 10 13  1  0  0  0  0
 11 14  2  0  0  0  0
 11 22  1  0  0  0  0
 12 16  2  0  0  0  0
 12 23  1  0  0  0  0
 13 15  2  0  0  0  0
 14 15  1  0  0  0  0
 14 25  1  0  0  0  0
 15 26  1  0  0  0  0
 16 27  1  0  0  0  0
 18 19  1  0  0  0  0
 19 29  1  0  0  0  0
 20 21  2  0  0  0  0
 20 30  1  0  0  0  0
 21 31  1  0  0  0  0
M  END
> <PUBCHEM_COMPOUND_CID>
24859296

> <PUBCHEM_CONFORMER_RMSD>
0.6

> <PUBCHEM_CONFORMER_DIVERSEORDER>
1
15
24
21
20
9
11
10
8
23
17
12
2
22
16
6
18
19
13
7
4
3
14
5

> <PUBCHEM_MMFF94_PARTIAL_CHARGES>
30
1 -0.19
10 0.31
11 -0.15
12 -0.15
13 0.19
14 -0.15
15 -0.15
16 0.16
17 0.69
18 0.43
19 0.16
2 -0.57
20 0.16
21 0.16
22 0.15
23 0.15
24 0.37
25 0.15
26 0.15
27 0.15
28 0.37
29 0.15
3 -0.55
30 0.15
31 0.15
4 -0.62
5 -0.55
6 -0.62
7 -0.62
9 0.12

> <PUBCHEM_EFFECTIVE_ROTOR_COUNT>
4

> <PUBCHEM_PHARMACOPHORE_FEATURES>
8
1 2 acceptor
1 3 donor
1 4 acceptor
1 5 donor
1 7 acceptor
6 4 8 9 10 12 16 rings
6 6 7 18 19 20 21 rings
6 8 10 11 13 14 15 rings

> <PUBCHEM_HEAVY_ATOM_COUNT>
21

> <PUBCHEM_ATOM_DEF_STEREO_COUNT>
0

> <PUBCHEM_ATOM_UDEF_STEREO_COUNT>
0

> <PUBCHEM_BOND_DEF_STEREO_COUNT>
0

> <PUBCHEM_BOND_UDEF_STEREO_COUNT>
0

> <PUBCHEM_ISOTOPIC_ATOM_COUNT>
0

> <PUBCHEM_COMPONENT_COUNT>
1

> <PUBCHEM_CACTVS_TAUTO_COUNT>
11

> <PUBCHEM_CONFORMER_ID>
017B52A000000001

> <PUBCHEM_MMFF94_ENERGY>
67.9616

> <PUBCHEM_FEATURE_SELFOVERLAP>
40.678

> <PUBCHEM_SHAPE_FINGERPRINT>
10411042 1 18050287270174540963
10595046 47 18336264647783298302
10730089 173 18411419505303752281
11315181 36 18113620113936498708
11578080 2 13756700741302848361
12107183 9 17831574280648989314
12236239 1 17894910724074257368
12390115 104 18128550284084274913
12403259 415 18060412547435054104
12596602 18 17240484744796528056
13167823 11 18408038529172160498
13785724 45 17834392316504979178
14341114 176 18409453591762161508
14508225 48 18125425657006234895
14933364 13 18411704292354375820
15042514 8 18264494065146610851
15183329 4 18410857634046401378
15196674 1 18410575098043872460
15250474 111 18336248112054701362
17844677 252 18338805606217666576
1813 80 16660368047980382070
19489759 90 18342174466341384001
20281389 69 18335137592251042016
20645477 56 18410857646525062765
20645477 70 16916516852608856110
21033648 29 17845640552094217800
21065198 57 18339360868163550450
21236236 1 18413388752626090551
21267235 1 18336552694023152531
21279426 13 18197500628022685414
21315764 268 18408598176079758828
23402539 116 18412821408646734711
23536379 177 18409448072945210874
23559900 14 18342731966176830136
245318 6 16737782694824773492
300161 21 18412258454788657930
3004659 81 18409168780297403898
335352 9 18410855482273210509
34797466 226 17846788433527850836
3545911 37 18411983554963772244
4073 2 18041565840741994226
4214541 1 18410575089380214756
441001 317 18412262830822496257
474 4 17603872229875217844
5104073 3 18407757041231096146
542803 24 18413106165194665524
559249 180 18337668625200423730
59755656 215 18341056220810347606
59755656 520 17095522902908326587
6327066 14 18044648699458480797
633830 44 17749108924502011498
77779 3 18410293631815364942
9965369 4 18336542716671660362
9981440 41 18334301946429534779
9996256 80 18341894099666929607

> <PUBCHEM_SHAPE_MULTIPOLES>
394.12
15.18
2.24
0.59
16.39
0.03
0
-3.92
-0.01
-2.01
0
-0.01
-0.01
0

> <PUBCHEM_SHAPE_SELFOVERLAP>
869.826

> <PUBCHEM_SHAPE_VOLUME>
209.9

> <PUBCHEM_COORDINATE_TYPE>
2
5
10

$$$$
