15745966
  -OEChem-10052115193D

 26 28  0     0  0  0  0  0  0999 V2000
   -1.4730   -2.9464    0.3827 Cl  0  0  0  0  0  0  0  0  0  0  0  0
   -4.6368   -0.1885   -0.1007 S   0  0  0  0  0  0  0  0  0  0  0  0
    4.9864   -1.5357   -0.7348 O   0  0  0  0  0  0  0  0  0  0  0  0
    0.3844   -0.4133    0.1348 N   0  0  0  0  0  0  0  0  0  0  0  0
   -0.6637    1.6839   -0.1758 N   0  0  0  0  0  0  0  0  0  0  0  0
   -3.0693    1.9557   -0.3105 N   0  0  0  0  0  0  0  0  0  0  0  0
   -2.0581   -0.2397    0.0127 C   0  0  0  0  0  0  0  0  0  0  0  0
   -0.7900    0.3499   -0.0102 C   0  0  0  0  0  0  0  0  0  0  0  0
   -3.1374    0.6207   -0.1423 C   0  0  0  0  0  0  0  0  0  0  0  0
    1.7519   -0.0704    0.1482 C   0  0  0  0  0  0  0  0  0  0  0  0
   -2.5019   -1.5907    0.1673 C   0  0  0  0  0  0  0  0  0  0  0  0
    2.7045   -0.9833   -0.3058 C   0  0  0  0  0  0  0  0  0  0  0  0
    2.1536    1.1814    0.6151 C   0  0  0  0  0  0  0  0  0  0  0  0
   -3.8747   -1.7033    0.1246 C   0  0  0  0  0  0  0  0  0  0  0  0
    4.0575   -0.6444   -0.2930 C   0  0  0  0  0  0  0  0  0  0  0  0
    3.5067    1.5201    0.6281 C   0  0  0  0  0  0  0  0  0  0  0  0
   -1.7988    2.3969   -0.3143 C   0  0  0  0  0  0  0  0  0  0  0  0
    4.4587    0.6072    0.1739 C   0  0  0  0  0  0  0  0  0  0  0  0
    0.2237   -1.4160    0.1155 H   0  0  0  0  0  0  0  0  0  0  0  0
    2.3987   -1.9608   -0.6717 H   0  0  0  0  0  0  0  0  0  0  0  0
    1.4504    1.9052    1.0136 H   0  0  0  0  0  0  0  0  0  0  0  0
   -4.4723   -2.6000    0.2144 H   0  0  0  0  0  0  0  0  0  0  0  0
    3.8203    2.4912    1.0003 H   0  0  0  0  0  0  0  0  0  0  0  0
   -1.6701    3.4656   -0.4457 H   0  0  0  0  0  0  0  0  0  0  0  0
    5.5098    0.8826    0.1913 H   0  0  0  0  0  0  0  0  0  0  0  0
    5.8696   -1.1362   -0.6545 H   0  0  0  0  0  0  0  0  0  0  0  0
  1 11  1  0  0  0  0
  2  9  1  0  0  0  0
  2 14  1  0  0  0  0
  3 15  1  0  0  0  0
  3 26  1  0  0  0  0
  4  8  1  0  0  0  0
  4 10  1  0  0  0  0
  4 19  1  0  0  0  0
  5  8  1  0  0  0  0
  5 17  2  0  0  0  0
  6  9  2  0  0  0  0
  6 17  1  0  0  0  0
  7  8  2  0  0  0  0
  7  9  1  0  0  0  0
  7 11  1  0  0  0  0
 10 12  2  0  0  0  0
 10 13  1  0  0  0  0
 11 14  2  0  0  0  0
 12 15  1  0  0  0  0
 12 20  1  0  0  0  0
 13 16  2  0  0  0  0
 13 21  1  0  0  0  0
 14 22  1  0  0  0  0
 15 18  2  0  0  0  0
 16 18  1  0  0  0  0
 16 23  1  0  0  0  0
 17 24  1  0  0  0  0
 18 25  1  0  0  0  0
M  END
> <PUBCHEM_COMPOUND_CID>
15745966

> <PUBCHEM_CONFORMER_RMSD>
0.6

> <PUBCHEM_CONFORMER_DIVERSEORDER>
1
7
10
4
9
8
3
6
5
2

> <PUBCHEM_MMFF94_PARTIAL_CHARGES>
25
1 -0.12
10 0.1
11 0.12
12 -0.15
13 -0.15
14 -0.11
15 0.08
16 -0.15
17 0.47
18 -0.15
19 0.4
2 -0.08
20 0.15
21 0.15
22 0.15
23 0.15
24 0.15
25 0.15
26 0.45
3 -0.53
4 -0.6
5 -0.62
6 -0.57
8 0.41
9 0.3

> <PUBCHEM_EFFECTIVE_ROTOR_COUNT>
2

> <PUBCHEM_PHARMACOPHORE_FEATURES>
8
1 3 donor
1 4 cation
1 4 donor
1 6 acceptor
3 5 6 17 cation
5 2 7 9 11 14 rings
6 10 12 13 15 16 18 rings
6 5 6 7 8 9 17 rings

> <PUBCHEM_HEAVY_ATOM_COUNT>
18

> <PUBCHEM_ATOM_DEF_STEREO_COUNT>
0

> <PUBCHEM_ATOM_UDEF_STEREO_COUNT>
0

> <PUBCHEM_BOND_DEF_STEREO_COUNT>
0

> <PUBCHEM_BOND_UDEF_STEREO_COUNT>
0

> <PUBCHEM_ISOTOPIC_ATOM_COUNT>
0

> <PUBCHEM_COMPONENT_COUNT>
1

> <PUBCHEM_CACTVS_TAUTO_COUNT>
21

> <PUBCHEM_CONFORMER_ID>
00F043AE00000001

> <PUBCHEM_MMFF94_ENERGY>
48.8442

> <PUBCHEM_FEATURE_SELFOVERLAP>
40.677

> <PUBCHEM_SHAPE_FINGERPRINT>
10608611 8 18413102875139278384
10616163 171 18410294717936260326
11132069 177 18337104665576000193
11458722 379 18335421248891868955
11552529 35 17416125220511368983
12173636 292 18335976459440635389
12236239 1 17168142338439013819
12916754 54 18343587347399501584
14866123 147 16833202235076882450
15042514 8 18263369247487130891
15196674 1 18411699902243450705
15219456 202 18343862225517422496
15375358 24 18341330075781825719
15961568 22 17969501683815372300
17804303 29 18412267233063546493
17834074 16 18412544323179386730
1813 80 17458340892150027805
18186145 218 18261385629108592324
19141452 34 18200597016197266839
200 152 17489584558629835649
20510252 161 18341611499635686561
20645477 70 17632581522528081486
21029758 11 18341324596089273761
21065198 57 18413387627091535840
21065201 7 18261386728846976256
21267235 1 18408893948938852379
221490 88 18412831308984091152
22943178 12 18342731923427441576
2297311 6 18410867563382957959
23175994 123 17346601854630032272
23402539 116 18412536639836426303
23557571 272 18342464742022939756
23559900 14 18411696595503845592
2871803 45 18408316696380357994
3545911 37 18341331171557590480
4028521 119 18261101963925264773
4214541 1 18411419479718519280
43471831 8 18187922820877914971
474 4 16733839738768631860
5104073 3 18341610400049965944
5281201 14 18413111654242303100
559249 180 18117552934354962146
59755656 215 18336547110497460031
69090 78 18341890814016987127
77779 3 18412826889056769464
8809292 202 18410858763053172458
9709674 26 18412263982026803270

> <PUBCHEM_SHAPE_MULTIPOLES>
355.34
9.65
2.54
0.71
5.65
0.37
-0.02
1.6
0.63
-1.4
-0.02
0.22
0.02
1.02

> <PUBCHEM_SHAPE_SELFOVERLAP>
763.577

> <PUBCHEM_SHAPE_VOLUME>
197.9

> <PUBCHEM_COORDINATE_TYPE>
2
5
10

$$$$
