11710853
  -OEChem-10062122003D

 48 51  0     0  0  0  0  0  0999 V2000
    6.2837    1.8975   -1.5991 F   0  0  0  0  0  0  0  0  0  0  0  0
    2.7017   -0.7450    0.7822 O   0  0  0  0  0  0  0  0  0  0  0  0
   -6.4959   -1.0661   -0.7679 N   0  0  0  0  0  0  0  0  0  0  0  0
   -5.6215   -1.5084   -1.6875 N   0  0  0  0  0  0  0  0  0  0  0  0
   -5.6589    1.1060    2.0894 N   0  0  0  0  0  0  0  0  0  0  0  0
   -3.2746   -1.1483   -1.9303 N   0  0  0  0  0  0  0  0  0  0  0  0
    1.7666    1.0518   -0.3953 N   0  0  0  0  0  0  0  0  0  0  0  0
    4.0508    0.7131   -0.4519 N   0  0  0  0  0  0  0  0  0  0  0  0
   -4.5892   -0.1918   -0.1254 C   0  0  0  0  0  0  0  0  0  0  0  0
   -3.7387    0.5638    0.6876 C   0  0  0  0  0  0  0  0  0  0  0  0
   -5.9390   -0.2719    0.1956 C   0  0  0  0  0  0  0  0  0  0  0  0
   -2.3316    0.6881    0.4102 C   0  0  0  0  0  0  0  0  0  0  0  0
   -4.4629   -0.9744   -1.2932 C   0  0  0  0  0  0  0  0  0  0  0  0
   -4.3429    1.1834    1.7752 C   0  0  0  0  0  0  0  0  0  0  0  0
   -6.4783    0.3727    1.2983 C   0  0  0  0  0  0  0  0  0  0  0  0
   -1.4230   -0.2266    0.9521 C   0  0  0  0  0  0  0  0  0  0  0  0
   -1.8622    1.7250   -0.4027 C   0  0  0  0  0  0  0  0  0  0  0  0
    0.4027    0.9305   -0.1273 C   0  0  0  0  0  0  0  0  0  0  0  0
   -7.8841   -1.4524   -0.8730 C   0  0  0  0  0  0  0  0  0  0  0  0
   -0.0594   -0.1056    0.6842 C   0  0  0  0  0  0  0  0  0  0  0  0
   -0.4986    1.8458   -0.6707 C   0  0  0  0  0  0  0  0  0  0  0  0
    5.3476    0.1875   -0.2426 C   0  0  0  0  0  0  0  0  0  0  0  0
    2.8320    0.2348    0.0555 C   0  0  0  0  0  0  0  0  0  0  0  0
    6.7786   -1.4569    0.7596 C   0  0  0  0  0  0  0  0  0  0  0  0
    5.5008   -0.9377    0.5508 C   0  0  0  0  0  0  0  0  0  0  0  0
    6.4362    0.8081   -0.8328 C   0  0  0  0  0  0  0  0  0  0  0  0
    7.8851   -0.8436    0.1722 C   0  0  0  0  0  0  0  0  0  0  0  0
    7.7139    0.2889   -0.6239 C   0  0  0  0  0  0  0  0  0  0  0  0
    6.9613   -2.6683    1.6103 C   0  0  0  0  0  0  0  0  0  0  0  0
   -3.7613    1.7920    2.4634 H   0  0  0  0  0  0  0  0  0  0  0  0
   -7.5237    0.3284    1.5722 H   0  0  0  0  0  0  0  0  0  0  0  0
   -1.7670   -1.0407    1.5864 H   0  0  0  0  0  0  0  0  0  0  0  0
   -2.5507    2.4474   -0.8353 H   0  0  0  0  0  0  0  0  0  0  0  0
   -8.4832   -0.5482   -1.0056 H   0  0  0  0  0  0  0  0  0  0  0  0
   -8.0167   -2.1160   -1.7315 H   0  0  0  0  0  0  0  0  0  0  0  0
   -8.1677   -1.9730    0.0451 H   0  0  0  0  0  0  0  0  0  0  0  0
    0.5728   -0.8532    1.1414 H   0  0  0  0  0  0  0  0  0  0  0  0
   -0.1525    2.6581   -1.3049 H   0  0  0  0  0  0  0  0  0  0  0  0
   -2.3962   -0.7428   -1.6313 H   0  0  0  0  0  0  0  0  0  0  0  0
   -3.2083   -1.7157   -2.7699 H   0  0  0  0  0  0  0  0  0  0  0  0
    2.0265    1.8315   -0.9943 H   0  0  0  0  0  0  0  0  0  0  0  0
    4.0077    1.5393   -1.0435 H   0  0  0  0  0  0  0  0  0  0  0  0
    4.6912   -1.4639    1.0340 H   0  0  0  0  0  0  0  0  0  0  0  0
    8.8863   -1.2377    0.3247 H   0  0  0  0  0  0  0  0  0  0  0  0
    8.5752    0.7666   -1.0815 H   0  0  0  0  0  0  0  0  0  0  0  0
    6.3981   -2.5714    2.5447 H   0  0  0  0  0  0  0  0  0  0  0  0
    6.6149   -3.5589    1.0763 H   0  0  0  0  0  0  0  0  0  0  0  0
    8.0120   -2.8193    1.8801 H   0  0  0  0  0  0  0  0  0  0  0  0
  1 26  1  0  0  0  0
  2 23  2  0  0  0  0
  3  4  1  0  0  0  0
  3 11  1  0  0  0  0
  3 19  1  0  0  0  0
  4 13  2  0  0  0  0
  5 14  1  0  0  0  0
  5 15  2  0  0  0  0
  6 13  1  0  0  0  0
  6 39  1  0  0  0  0
  6 40  1  0  0  0  0
  7 18  1  0  0  0  0
  7 23  1  0  0  0  0
  7 41  1  0  0  0  0
  8 22  1  0  0  0  0
  8 23  1  0  0  0  0
  8 42  1  0  0  0  0
  9 10  1  0  0  0  0
  9 11  2  0  0  0  0
  9 13  1  0  0  0  0
 10 12  1  0  0  0  0
 10 14  2  0  0  0  0
 11 15  1  0  0  0  0
 12 16  2  0  0  0  0
 12 17  1  0  0  0  0
 14 30  1  0  0  0  0
 15 31  1  0  0  0  0
 16 20  1  0  0  0  0
 16 32  1  0  0  0  0
 17 21  2  0  0  0  0
 17 33  1  0  0  0  0
 18 20  2  0  0  0  0
 18 21  1  0  0  0  0
 19 34  1  0  0  0  0
 19 35  1  0  0  0  0
 19 36  1  0  0  0  0
 20 37  1  0  0  0  0
 21 38  1  0  0  0  0
 22 25  1  0  0  0  0
 22 26  2  0  0  0  0
 24 25  2  0  0  0  0
 24 27  1  0  0  0  0
 24 29  1  0  0  0  0
 25 43  1  0  0  0  0
 26 28  1  0  0  0  0
 27 28  2  0  0  0  0
 27 44  1  0  0  0  0
 28 45  1  0  0  0  0
 29 46  1  0  0  0  0
 29 47  1  0  0  0  0
 29 48  1  0  0  0  0
M  END
> <PUBCHEM_COMPOUND_CID>
11710853

> <PUBCHEM_CONFORMER_RMSD>
0.8

> <PUBCHEM_CONFORMER_DIVERSEORDER>
1
9
10
8
16
13
5
15
6
7
14
11
4
12
3
2

> <PUBCHEM_MMFF94_PARTIAL_CHARGES>
39
1 -0.19
11 -0.15
13 0.37
14 0.16
15 0.16
16 -0.15
17 -0.15
18 0.12
19 0.26
2 -0.57
20 -0.15
21 -0.15
22 0.12
23 0.69
24 -0.14
25 -0.15
26 0.19
27 -0.15
28 -0.15
29 0.14
3 0.31
30 0.15
31 0.15
32 0.15
33 0.15
37 0.15
38 0.15
39 0.4
4 -0.71
40 0.4
41 0.37
42 0.37
43 0.15
44 0.15
45 0.15
5 -0.62
6 -0.88
7 -0.55
8 -0.55

> <PUBCHEM_EFFECTIVE_ROTOR_COUNT>
5

> <PUBCHEM_PHARMACOPHORE_FEATURES>
10
1 2 acceptor
1 5 acceptor
1 6 donor
1 7 donor
1 8 donor
3 4 6 13 cation
5 3 4 9 11 13 rings
6 12 16 17 18 20 21 rings
6 22 24 25 26 27 28 rings
6 5 9 10 11 14 15 rings

> <PUBCHEM_HEAVY_ATOM_COUNT>
29

> <PUBCHEM_ATOM_DEF_STEREO_COUNT>
0

> <PUBCHEM_ATOM_UDEF_STEREO_COUNT>
0

> <PUBCHEM_BOND_DEF_STEREO_COUNT>
0

> <PUBCHEM_BOND_UDEF_STEREO_COUNT>
0

> <PUBCHEM_ISOTOPIC_ATOM_COUNT>
0

> <PUBCHEM_COMPONENT_COUNT>
1

> <PUBCHEM_CACTVS_TAUTO_COUNT>
12

> <PUBCHEM_CONFORMER_ID>
00B2B18500000001

> <PUBCHEM_MMFF94_ENERGY>
87.1635

> <PUBCHEM_FEATURE_SELFOVERLAP>
50.892

> <PUBCHEM_SHAPE_FINGERPRINT>
10 15 15123502615040675178
10076449 9 15068627094038025185
10299344 5 18343586239572083234
10319926 262 16917343744859817755
11315181 36 18060702806094781369
11524674 6 15697998552554598357
11991303 11 16733277836302350194
12082328 90 17822008701502235805
12166972 35 18411982473091774944
12236239 1 18343023311368058401
13533116 47 18187646886967633104
14068700 675 18131071541150248432
14251764 18 18413110563267543946
14840074 17 18334575750050913223
14856354 85 17846782923031841733
150020 25 16153423948017606534
15021287 119 18412271644507247097
15119646 104 18410293580260426906
15183329 4 18260828202878973586
15198563 99 16805878494510080356
15326921 28 17485658052843389145
15348495 7 15625928889795841122
15352257 5 17203333291019423174
15419008 47 15936407862144798332
15419008 91 16200141054984440936
15510794 2 16081089286119137042
15716309 27 18409732841655708136
1577012 14 18412550894648297680
15849732 13 16008752424396317926
17093844 174 15697997419068288185
2026 5 18121501251279497986
21315759 40 18342178847767253872
21792961 116 16226044470454959121
23035841 295 18131070441400437711
23081809 10 18411422804313447856
23516275 137 17844273764304640158
23522609 53 18196681594924545816
23559900 14 17822577234259741656
23569943 247 18262511481660694978
23576562 1 16588871338343939399
397830 11 15625926695136150746
4325135 7 18342459240317149998
44389302 135 18128531580119535330
44880568 143 15068341198564171414
5219985 9 18412826888820016401
5364581 5 15768625733235534010
54039377 194 18339644564272122503
58260988 114 18043546095828551451
59682541 35 14045739357221438791
5969126 39 18113894940520717789
6691757 9 17417819431640279307
9831232 110 17845102758033612710
9953998 17 14261350285073118055
9962374 69 18186793683251410066

> <PUBCHEM_SHAPE_MULTIPOLES>
553.78
25.97
1.81
1.54
21.34
0.32
-0.09
10.03
1.13
1.66
0.07
-2.11
0.19
-4.23

> <PUBCHEM_SHAPE_SELFOVERLAP>
1228.29

> <PUBCHEM_SHAPE_VOLUME>
298.1

> <PUBCHEM_COORDINATE_TYPE>
2
5
10

$$$$
