9863367
  -OEChem-10062122043D

 46 49  0     0  0  0  0  0  0999 V2000
   -6.2554   -0.4720   -0.0846 F   0  0  0  0  0  0  0  0  0  0  0  0
    0.0616    3.9697    0.9802 O   0  0  0  0  0  0  0  0  0  0  0  0
    1.3682   -1.2531    0.1631 N   0  0  0  0  0  0  0  0  0  0  0  0
    5.6462   -1.0154    0.0713 N   0  0  0  0  0  0  0  0  0  0  0  0
   -0.2679   -2.6689    0.6532 N   0  0  0  0  0  0  0  0  0  0  0  0
    0.1372    1.7188    0.4433 N   0  0  0  0  0  0  0  0  0  0  0  0
    0.0553    3.4142   -1.2672 N   0  0  0  0  0  0  0  0  0  0  0  0
    2.7368   -0.7556   -0.0108 C   0  0  0  0  0  0  0  0  0  0  0  0
    3.5193   -1.5329   -1.0810 C   0  0  0  0  0  0  0  0  0  0  0  0
    3.5250   -0.7138    1.3079 C   0  0  0  0  0  0  0  0  0  0  0  0
    4.9444   -0.9960   -1.2128 C   0  0  0  0  0  0  0  0  0  0  0  0
    4.9498   -0.2112    1.0762 C   0  0  0  0  0  0  0  0  0  0  0  0
    0.2073   -0.5730   -0.0669 C   0  0  0  0  0  0  0  0  0  0  0  0
    1.0351   -2.5057    0.5934 C   0  0  0  0  0  0  0  0  0  0  0  0
   -0.7899   -1.4679    0.2424 C   0  0  0  0  0  0  0  0  0  0  0  0
    0.1560    0.7929   -0.5346 C   0  0  0  0  0  0  0  0  0  0  0  0
   -2.1963   -1.2116    0.1582 C   0  0  0  0  0  0  0  0  0  0  0  0
    0.1276    1.0874   -1.8794 C   0  0  0  0  0  0  0  0  0  0  0  0
   -2.8879   -1.4777   -1.0257 C   0  0  0  0  0  0  0  0  0  0  0  0
   -2.8820   -0.6944    1.2598 C   0  0  0  0  0  0  0  0  0  0  0  0
    0.0769    2.4309   -2.1908 C   0  0  0  0  0  0  0  0  0  0  0  0
   -4.2579   -1.2281   -1.1076 C   0  0  0  0  0  0  0  0  0  0  0  0
   -4.2520   -0.4449    1.1777 C   0  0  0  0  0  0  0  0  0  0  0  0
    0.0873    2.9934    0.0116 C   0  0  0  0  0  0  0  0  0  0  0  0
   -4.9399   -0.7117   -0.0059 C   0  0  0  0  0  0  0  0  0  0  0  0
    0.0952    3.5268    2.3292 C   0  0  0  0  0  0  0  0  0  0  0  0
    2.6540    0.2794   -0.3643 H   0  0  0  0  0  0  0  0  0  0  0  0
    3.0073   -1.4582   -2.0482 H   0  0  0  0  0  0  0  0  0  0  0  0
    3.5564   -2.6006   -0.8286 H   0  0  0  0  0  0  0  0  0  0  0  0
    3.5624   -1.7116    1.7637 H   0  0  0  0  0  0  0  0  0  0  0  0
    3.0169   -0.0603    2.0277 H   0  0  0  0  0  0  0  0  0  0  0  0
    5.5001   -1.6097   -1.9302 H   0  0  0  0  0  0  0  0  0  0  0  0
    4.9324    0.0239   -1.6157 H   0  0  0  0  0  0  0  0  0  0  0  0
    4.9382    0.8414    0.7687 H   0  0  0  0  0  0  0  0  0  0  0  0
    5.5095   -0.2565    2.0169 H   0  0  0  0  0  0  0  0  0  0  0  0
    5.7037   -1.9791    0.4015 H   0  0  0  0  0  0  0  0  0  0  0  0
    1.7717   -3.2553    0.8486 H   0  0  0  0  0  0  0  0  0  0  0  0
    0.1436    0.3283   -2.6514 H   0  0  0  0  0  0  0  0  0  0  0  0
   -2.3716   -1.8803   -1.8941 H   0  0  0  0  0  0  0  0  0  0  0  0
   -2.3608   -0.4802    2.1900 H   0  0  0  0  0  0  0  0  0  0  0  0
    0.0514    2.7637   -3.2230 H   0  0  0  0  0  0  0  0  0  0  0  0
   -4.7939   -1.4355   -2.0291 H   0  0  0  0  0  0  0  0  0  0  0  0
   -4.7832   -0.0426    2.0352 H   0  0  0  0  0  0  0  0  0  0  0  0
    1.0207    2.9808    2.5418 H   0  0  0  0  0  0  0  0  0  0  0  0
   -0.7815    2.9141    2.5647 H   0  0  0  0  0  0  0  0  0  0  0  0
    0.0708    4.4099    2.9746 H   0  0  0  0  0  0  0  0  0  0  0  0
  1 25  1  0  0  0  0
  2 24  1  0  0  0  0
  2 26  1  0  0  0  0
  3  8  1  0  0  0  0
  3 13  1  0  0  0  0
  3 14  1  0  0  0  0
  4 11  1  0  0  0  0
  4 12  1  0  0  0  0
  4 36  1  0  0  0  0
  5 14  2  0  0  0  0
  5 15  1  0  0  0  0
  6 16  2  0  0  0  0
  6 24  1  0  0  0  0
  7 21  1  0  0  0  0
  7 24  2  0  0  0  0
  8  9  1  0  0  0  0
  8 10  1  0  0  0  0
  8 27  1  0  0  0  0
  9 11  1  0  0  0  0
  9 28  1  0  0  0  0
  9 29  1  0  0  0  0
 10 12  1  0  0  0  0
 10 30  1  0  0  0  0
 10 31  1  0  0  0  0
 11 32  1  0  0  0  0
 11 33  1  0  0  0  0
 12 34  1  0  0  0  0
 12 35  1  0  0  0  0
 13 15  2  0  0  0  0
 13 16  1  0  0  0  0
 14 37  1  0  0  0  0
 15 17  1  0  0  0  0
 16 18  1  0  0  0  0
 17 19  2  0  0  0  0
 17 20  1  0  0  0  0
 18 21  2  0  0  0  0
 18 38  1  0  0  0  0
 19 22  1  0  0  0  0
 19 39  1  0  0  0  0
 20 23  2  0  0  0  0
 20 40  1  0  0  0  0
 21 41  1  0  0  0  0
 22 25  2  0  0  0  0
 22 42  1  0  0  0  0
 23 25  1  0  0  0  0
 23 43  1  0  0  0  0
 26 44  1  0  0  0  0
 26 45  1  0  0  0  0
 26 46  1  0  0  0  0
M  END
> <PUBCHEM_COMPOUND_CID>
9863367

> <PUBCHEM_CONFORMER_RMSD>
0.8

> <PUBCHEM_CONFORMER_DIVERSEORDER>
1
14
20
7
18
8
13
3
15
6
9
16
19
4
17
12
5
10
11
2

> <PUBCHEM_MMFF94_PARTIAL_CHARGES>
32
1 -0.19
11 0.27
12 0.27
13 -0.2
14 0.04
15 0.17
16 0.36
17 0.05
18 -0.15
19 -0.15
2 -0.36
20 -0.15
21 0.16
22 -0.15
23 -0.15
24 0.7
25 0.19
26 0.28
3 0.05
36 0.36
37 0.15
38 0.15
39 0.15
4 -0.9
40 0.15
41 0.15
42 0.15
43 0.15
5 -0.57
6 -0.62
7 -0.62
8 0.26

> <PUBCHEM_EFFECTIVE_ROTOR_COUNT>
5.2

> <PUBCHEM_PHARMACOPHORE_FEATURES>
9
1 4 cation
1 4 donor
1 6 acceptor
3 3 5 14 cation
3 6 7 24 cation
5 3 5 13 14 15 rings
6 17 19 20 22 23 25 rings
6 4 8 9 10 11 12 rings
6 6 7 16 18 21 24 rings

> <PUBCHEM_HEAVY_ATOM_COUNT>
26

> <PUBCHEM_ATOM_DEF_STEREO_COUNT>
0

> <PUBCHEM_ATOM_UDEF_STEREO_COUNT>
0

> <PUBCHEM_BOND_DEF_STEREO_COUNT>
0

> <PUBCHEM_BOND_UDEF_STEREO_COUNT>
0

> <PUBCHEM_ISOTOPIC_ATOM_COUNT>
0

> <PUBCHEM_COMPONENT_COUNT>
1

> <PUBCHEM_CACTVS_TAUTO_COUNT>
1

> <PUBCHEM_CONFORMER_ID>
009680C700000001

> <PUBCHEM_MMFF94_ENERGY>
57.3902

> <PUBCHEM_FEATURE_SELFOVERLAP>
45.672

> <PUBCHEM_SHAPE_FINGERPRINT>
10006869 2 17979070484107338745
10165383 225 17179166236010243897
104564 63 18262521364569573359
10764073 3 16269420101154855852
11582403 64 15764139906225480377
11646440 116 18411149030128742211
12166972 35 18338519746179417899
12236239 1 18060137635511795243
12516196 113 18341612628747874347
12788726 201 18334575690417106930
12954195 1 18054518997954901958
13132413 78 18409454652645464101
13134695 92 18270965751399764189
13140716 1 18117279370697428787
13294875 104 17980491379200377581
133893 2 17610323214740004326
13899415 154 18335993033445071738
13911987 19 17968676985200220398
14170010 4 18336825394481839235
14347332 77 18192713341817337206
14955137 171 18339940297648634523
15131766 46 15839835626375027378
15849732 13 18130787859066372879
1601671 61 18334011666563800663
17357779 13 18337096913017417951
17980427 23 16988848302230237329
17980427 26 17483381298689406117
1813 80 18409173211812168742
18336668 15 18408609154074053193
18681886 176 18201711903829444843
18785283 64 17824274915015254223
20197701 30 9223227429701211335
20510252 161 18335976468373285610
20600515 1 18337122249451795326
20642791 239 17461188662000148820
21033648 29 17703497827664998395
21285901 2 18270127816265800990
21641784 216 17896333436665788292
229495 10 16342576124741808054
23175994 123 18040721368008013471
23419403 2 18196342983591272924
23557571 272 18339646638102562150
23558518 356 17463967956401166034
23845131 108 17333091927569071752
283562 15 18263927644421387730
3178227 256 18115323258255507075
3493558 16 17417245579909913586
469060 322 17968387727652747232
5171179 24 18198882842624672569
58260988 647 13262945244950223360
5895379 119 16987466194755493625
70251023 43 18047752590186359571
7399639 24 17917138430532080718
7495541 125 17168717443714820651
81228 2 18190758435490149842

> <PUBCHEM_SHAPE_MULTIPOLES>
497.02
9.54
3.84
1.74
0.73
5.2
0.13
-6.94
-0.28
-0.36
-0.71
-0.24
1.29
0.03

> <PUBCHEM_SHAPE_SELFOVERLAP>
1084.189

> <PUBCHEM_SHAPE_VOLUME>
271.4

> <PUBCHEM_COORDINATE_TYPE>
2
5
10

$$$$
