16109036
  -OEChem-10062122003D

 64 67  0     1  0  0  0  0  0999 V2000
   -6.6620    0.3831    2.1091 F   0  0  0  0  0  0  0  0  0  0  0  0
   -7.6403   -1.1448    0.9206 F   0  0  0  0  0  0  0  0  0  0  0  0
   -7.1831    0.7890    0.0373 F   0  0  0  0  0  0  0  0  0  0  0  0
   -1.8310    4.7010   -0.6848 F   0  0  0  0  0  0  0  0  0  0  0  0
   -2.9150    2.6735    0.4517 O   0  0  0  0  0  0  0  0  0  0  0  0
   -1.5947   -2.1228   -0.8539 N   0  0  1  0  0  0  0  0  0  0  0  0
    1.6830   -3.1085    0.6714 N   0  0  0  0  0  0  0  0  0  0  0  0
   -1.9598    0.6290   -0.2061 N   0  0  0  0  0  0  0  0  0  0  0  0
    6.6167   -0.8237    1.5634 N   0  0  0  0  0  0  0  0  0  0  0  0
    7.3868    0.0223   -0.5575 N   0  0  0  0  0  0  0  0  0  0  0  0
    8.7343   -1.4006    0.7335 N   0  0  0  0  0  0  0  0  0  0  0  0
    0.7793   -2.5259   -0.3186 C   0  0  1  0  0  0  0  0  0  0  0  0
    0.9384   -3.2520   -1.6565 C   0  0  0  0  0  0  0  0  0  0  0  0
   -0.6685   -2.6081    0.1816 C   0  0  0  0  0  0  0  0  0  0  0  0
   -0.0412   -2.6844   -2.6783 C   0  0  0  0  0  0  0  0  0  0  0  0
   -1.4819   -2.7506   -2.1749 C   0  0  0  0  0  0  0  0  0  0  0  0
   -2.8343   -1.6288   -0.4303 C   0  0  0  0  0  0  0  0  0  0  0  0
    3.0675   -3.0392    0.2043 C   0  0  0  0  0  0  0  0  0  0  0  0
    1.5434   -2.4253    1.9572 C   0  0  0  0  0  0  0  0  0  0  0  0
   -3.0262   -0.2695   -0.1090 C   0  0  0  0  0  0  0  0  0  0  0  0
   -3.9383   -2.4972   -0.3165 C   0  0  0  0  0  0  0  0  0  0  0  0
   -4.2711    0.2012    0.3086 C   0  0  0  0  0  0  0  0  0  0  0  0
   -5.1830   -2.0265    0.1012 C   0  0  0  0  0  0  0  0  0  0  0  0
   -5.3495   -0.6772    0.4139 C   0  0  0  0  0  0  0  0  0  0  0  0
   -6.6800   -0.1750    0.8625 C   0  0  0  0  0  0  0  0  0  0  0  0
   -1.9634    2.0010    0.0698 C   0  0  0  0  0  0  0  0  0  0  0  0
   -0.6701    2.6978   -0.1572 C   0  0  0  0  0  0  0  0  0  0  0  0
    0.5023    1.9907    0.0089 C   0  0  0  0  0  0  0  0  0  0  0  0
   -0.6834    4.0266   -0.5259 C   0  0  0  0  0  0  0  0  0  0  0  0
    1.7171    2.6424   -0.2037 C   0  0  0  0  0  0  0  0  0  0  0  0
    0.5314    4.6783   -0.7384 C   0  0  0  0  0  0  0  0  0  0  0  0
    1.7317    3.9862   -0.5773 C   0  0  0  0  0  0  0  0  0  0  0  0
    2.9473    1.9339   -0.0388 C   0  0  0  0  0  0  0  0  0  0  0  0
    3.9826    1.3378    0.0998 C   0  0  0  0  0  0  0  0  0  0  0  0
    5.2139    0.6289    0.2645 C   0  0  0  0  0  0  0  0  0  0  0  0
    5.4675   -0.1420    1.3761 C   0  0  0  0  0  0  0  0  0  0  0  0
    6.2140    0.6780   -0.6798 C   0  0  0  0  0  0  0  0  0  0  0  0
    7.5194   -0.6989    0.5719 C   0  0  0  0  0  0  0  0  0  0  0  0
    1.0257   -1.4654   -0.4785 H   0  0  0  0  0  0  0  0  0  0  0  0
    1.9395   -3.1260   -2.0817 H   0  0  0  0  0  0  0  0  0  0  0  0
    0.7618   -4.3289   -1.5380 H   0  0  0  0  0  0  0  0  0  0  0  0
   -0.9374   -3.6382    0.4508 H   0  0  0  0  0  0  0  0  0  0  0  0
   -0.8047   -1.9847    1.0722 H   0  0  0  0  0  0  0  0  0  0  0  0
    0.0446   -3.2339   -3.6225 H   0  0  0  0  0  0  0  0  0  0  0  0
    0.2219   -1.6399   -2.8894 H   0  0  0  0  0  0  0  0  0  0  0  0
   -1.8110   -3.7954   -2.1179 H   0  0  0  0  0  0  0  0  0  0  0  0
   -2.1287   -2.2384   -2.8978 H   0  0  0  0  0  0  0  0  0  0  0  0
    3.2664   -3.7634   -0.5916 H   0  0  0  0  0  0  0  0  0  0  0  0
    3.3454   -2.0365   -0.1389 H   0  0  0  0  0  0  0  0  0  0  0  0
    3.7606   -3.3173    1.0079 H   0  0  0  0  0  0  0  0  0  0  0  0
    2.3204   -2.7598    2.6558 H   0  0  0  0  0  0  0  0  0  0  0  0
    1.6301   -1.3362    1.8661 H   0  0  0  0  0  0  0  0  0  0  0  0
    0.6017   -2.6756    2.4553 H   0  0  0  0  0  0  0  0  0  0  0  0
   -3.8297   -3.5540   -0.5505 H   0  0  0  0  0  0  0  0  0  0  0  0
   -4.4777    1.2292    0.5681 H   0  0  0  0  0  0  0  0  0  0  0  0
   -6.0105   -2.7262    0.1784 H   0  0  0  0  0  0  0  0  0  0  0  0
   -1.1060    0.2104   -0.5647 H   0  0  0  0  0  0  0  0  0  0  0  0
    0.5187    0.9560    0.3389 H   0  0  0  0  0  0  0  0  0  0  0  0
    0.5423    5.7245   -1.0295 H   0  0  0  0  0  0  0  0  0  0  0  0
    2.6704    4.5082   -0.7467 H   0  0  0  0  0  0  0  0  0  0  0  0
    4.7421   -0.2476    2.1771 H   0  0  0  0  0  0  0  0  0  0  0  0
    6.1119    1.2577   -1.5922 H   0  0  0  0  0  0  0  0  0  0  0  0
    9.4435   -1.3380    0.0162 H   0  0  0  0  0  0  0  0  0  0  0  0
    8.8806   -1.9558    1.5652 H   0  0  0  0  0  0  0  0  0  0  0  0
  1 25  1  0  0  0  0
  2 25  1  0  0  0  0
  3 25  1  0  0  0  0
  4 29  1  0  0  0  0
  5 26  2  0  0  0  0
  6 14  1  0  0  0  0
  6 16  1  0  0  0  0
  6 17  1  0  0  0  0
  7 12  1  0  0  0  0
  7 18  1  0  0  0  0
  7 19  1  0  0  0  0
  8 20  1  0  0  0  0
  8 26  1  0  0  0  0
  8 57  1  0  0  0  0
  9 36  2  0  0  0  0
  9 38  1  0  0  0  0
 10 37  1  0  0  0  0
 10 38  2  0  0  0  0
 11 38  1  0  0  0  0
 11 63  1  0  0  0  0
 11 64  1  0  0  0  0
 12 13  1  0  0  0  0
 12 14  1  0  0  0  0
 12 39  1  0  0  0  0
 13 15  1  0  0  0  0
 13 40  1  0  0  0  0
 13 41  1  0  0  0  0
 14 42  1  0  0  0  0
 14 43  1  0  0  0  0
 15 16  1  0  0  0  0
 15 44  1  0  0  0  0
 15 45  1  0  0  0  0
 16 46  1  0  0  0  0
 16 47  1  0  0  0  0
 17 20  2  0  0  0  0
 17 21  1  0  0  0  0
 18 48  1  0  0  0  0
 18 49  1  0  0  0  0
 18 50  1  0  0  0  0
 19 51  1  0  0  0  0
 19 52  1  0  0  0  0
 19 53  1  0  0  0  0
 20 22  1  0  0  0  0
 21 23  2  0  0  0  0
 21 54  1  0  0  0  0
 22 24  2  0  0  0  0
 22 55  1  0  0  0  0
 23 24  1  0  0  0  0
 23 56  1  0  0  0  0
 24 25  1  0  0  0  0
 26 27  1  0  0  0  0
 27 28  1  0  0  0  0
 27 29  2  0  0  0  0
 28 30  2  0  0  0  0
 28 58  1  0  0  0  0
 29 31  1  0  0  0  0
 30 32  1  0  0  0  0
 30 33  1  0  0  0  0
 31 32  2  0  0  0  0
 31 59  1  0  0  0  0
 32 60  1  0  0  0  0
 33 34  3  0  0  0  0
 34 35  1  0  0  0  0
 35 36  1  0  0  0  0
 35 37  2  0  0  0  0
 36 61  1  0  0  0  0
 37 62  1  0  0  0  0
M  END
> <PUBCHEM_COMPOUND_CID>
16109036

> <PUBCHEM_CONFORMER_RMSD>
1

> <PUBCHEM_CONFORMER_DIVERSEORDER>
1
53
31
27
51
2
54
22
23
49
11
15
36
16
24
40
56
29
50
7
14
30
43
57
52
28
42
37
6
60
33
38
45
25
21
5
13
39
17
41
20
58
35
18
46
59
8
48
26
32
44
12
9
3
47
19
34
10
55
4

> <PUBCHEM_MMFF94_PARTIAL_CHARGES>
47
1 -0.34
10 -0.62
11 -0.9
12 0.27
14 0.37
16 0.37
17 0.1
18 0.27
19 0.27
2 -0.34
20 0.12
21 -0.15
22 -0.15
23 -0.15
24 -0.14
25 1.16
26 0.54
27 0.09
28 -0.15
29 0.19
3 -0.34
30 0.07
31 -0.15
32 -0.15
33 -0.07
34 -0.07
35 0.07
36 0.16
37 0.16
38 0.72
4 -0.19
5 -0.57
54 0.15
55 0.15
56 0.15
57 0.37
58 0.15
59 0.15
6 -0.84
60 0.15
61 0.15
62 0.15
63 0.4
64 0.4
7 -0.81
8 -0.55
9 -0.62

> <PUBCHEM_EFFECTIVE_ROTOR_COUNT>
7.2

> <PUBCHEM_PHARMACOPHORE_FEATURES>
11
1 11 donor
1 5 acceptor
1 6 cation
1 7 cation
1 8 donor
1 9 acceptor
4 9 10 11 38 cation
6 17 20 21 22 23 24 rings
6 27 28 29 30 31 32 rings
6 6 12 13 14 15 16 rings
6 9 10 35 36 37 38 rings

> <PUBCHEM_HEAVY_ATOM_COUNT>
38

> <PUBCHEM_ATOM_DEF_STEREO_COUNT>
1

> <PUBCHEM_ATOM_UDEF_STEREO_COUNT>
0

> <PUBCHEM_BOND_DEF_STEREO_COUNT>
0

> <PUBCHEM_BOND_UDEF_STEREO_COUNT>
0

> <PUBCHEM_ISOTOPIC_ATOM_COUNT>
0

> <PUBCHEM_COMPONENT_COUNT>
1

> <PUBCHEM_CACTVS_TAUTO_COUNT>
4

> <PUBCHEM_CONFORMER_ID>
00F5CDEC00000001

> <PUBCHEM_MMFF94_ENERGY>
112.0959

> <PUBCHEM_FEATURE_SELFOVERLAP>
55.822

> <PUBCHEM_SHAPE_FINGERPRINT>
10622 236 17625808745143262671
10939801 23 18339359794907568756
1100329 8 18266178524742488135
12107183 9 18268998746815310089
12788726 201 18336270128631144716
13111901 25 18337391534910172904
14068700 675 18343302608337817288
14117953 113 18413390934353660317
14279260 333 18114731639653867410
14394314 77 18338515364843894552
14415361 192 17748830713094064796
14725015 67 18409444800059156216
14840074 17 18413106169099463819
15001296 14 18044646727819883280
15274700 256 18409441502853264000
15274700 259 17678152942826877125
15297060 5 17418096537438524195
15419008 145 18263912260703336130
15444296 9 18131355177138593558
15961568 22 18411419488182100343
15968369 153 18339353189115499138
16112460 7 18270689787088082424
16628084 112 18260268577346453156
19311894 1 18196638808597259486
19611394 137 18042134326312752771
20721686 56 18337113375880842667
21779490 27 16556476461683417487
21796203 349 18046099118145370776
229767 44 18272930561530288326
24771293 8 18202005387903285235
24893992 56 18337676425404508139
4093350 32 16558480690284986814
44880168 125 17775562023415715966
9896288 288 18129103308120647656

> <PUBCHEM_SHAPE_MULTIPOLES>
717.17
17.87
5.87
1.48
10.97
4.98
-0.33
-5.76
8.29
0.01
-2.17
-0.08
-1.33
-1.38

> <PUBCHEM_SHAPE_SELFOVERLAP>
1550.828

> <PUBCHEM_SHAPE_VOLUME>
393.4

> <PUBCHEM_COORDINATE_TYPE>
2
5
10

$$$$
