135947978
  -OEChem-10052115143D

 39 41  0     0  0  0  0  0  0999 V2000
    4.1227    0.3475   -1.5694 O   0  0  0  0  0  0  0  0  0  0  0  0
    5.1797    0.2137    0.9974 O   0  0  0  0  0  0  0  0  0  0  0  0
   -2.3039    1.0153    0.0162 N   0  0  0  0  0  0  0  0  0  0  0  0
   -1.0260    1.3902    0.2112 N   0  0  0  0  0  0  0  0  0  0  0  0
   -3.6194   -0.9971   -0.2705 N   0  0  0  0  0  0  0  0  0  0  0  0
   -2.2317   -3.0015   -0.1863 N   0  0  0  0  0  0  0  0  0  0  0  0
    0.1310   -2.9216    0.1423 N   0  0  0  0  0  0  0  0  0  0  0  0
   -3.3350    2.0217   -0.0758 C   0  0  0  0  0  0  0  0  0  0  0  0
   -2.4677   -0.3348   -0.0776 C   0  0  0  0  0  0  0  0  0  0  0  0
   -1.2054   -0.8835    0.0663 C   0  0  0  0  0  0  0  0  0  0  0  0
   -0.3620    0.2294    0.2408 C   0  0  0  0  0  0  0  0  0  0  0  0
   -3.4586    2.8217    1.2231 C   0  0  0  0  0  0  0  0  0  0  0  0
   -3.1084    2.9523   -1.2698 C   0  0  0  0  0  0  0  0  0  0  0  0
    1.0664    0.2260    0.4324 C   0  0  0  0  0  0  0  0  0  0  0  0
   -1.1079   -2.2698    0.0064 C   0  0  0  0  0  0  0  0  0  0  0  0
    1.9181    0.2892   -0.6702 C   0  0  0  0  0  0  0  0  0  0  0  0
    1.5970    0.1587    1.7207 C   0  0  0  0  0  0  0  0  0  0  0  0
    3.3007    0.2853   -0.4849 C   0  0  0  0  0  0  0  0  0  0  0  0
   -3.4009   -2.3292   -0.3109 C   0  0  0  0  0  0  0  0  0  0  0  0
    2.9796    0.1544    1.9061 C   0  0  0  0  0  0  0  0  0  0  0  0
    3.8314    0.2179    0.8034 C   0  0  0  0  0  0  0  0  0  0  0  0
    3.5004    0.4142   -2.8511 C   0  0  0  0  0  0  0  0  0  0  0  0
   -4.2866    1.5008   -0.2368 H   0  0  0  0  0  0  0  0  0  0  0  0
   -2.5520    3.4012    1.4301 H   0  0  0  0  0  0  0  0  0  0  0  0
   -4.2993    3.5214    1.1677 H   0  0  0  0  0  0  0  0  0  0  0  0
   -3.6295    2.1558    2.0762 H   0  0  0  0  0  0  0  0  0  0  0  0
   -3.0281    2.3797   -2.2005 H   0  0  0  0  0  0  0  0  0  0  0  0
   -3.9423    3.6541   -1.3764 H   0  0  0  0  0  0  0  0  0  0  0  0
   -2.1887    3.5374   -1.1589 H   0  0  0  0  0  0  0  0  0  0  0  0
    1.4510    0.3395   -1.6489 H   0  0  0  0  0  0  0  0  0  0  0  0
    0.9465    0.1082    2.5907 H   0  0  0  0  0  0  0  0  0  0  0  0
   -4.2805   -2.9453   -0.4639 H   0  0  0  0  0  0  0  0  0  0  0  0
    3.3796    0.1013    2.9151 H   0  0  0  0  0  0  0  0  0  0  0  0
    0.9850   -2.4032    0.2864 H   0  0  0  0  0  0  0  0  0  0  0  0
    0.1572   -3.9313    0.0925 H   0  0  0  0  0  0  0  0  0  0  0  0
    5.3622    0.1629    1.9514 H   0  0  0  0  0  0  0  0  0  0  0  0
    4.3019    0.4580   -3.5960 H   0  0  0  0  0  0  0  0  0  0  0  0
    2.9101    1.3297   -2.9664 H   0  0  0  0  0  0  0  0  0  0  0  0
    2.9180   -0.4886   -3.0648 H   0  0  0  0  0  0  0  0  0  0  0  0
  1 18  1  0  0  0  0
  1 22  1  0  0  0  0
  2 21  1  0  0  0  0
  2 36  1  0  0  0  0
  3  4  1  0  0  0  0
  3  8  1  0  0  0  0
  3  9  1  0  0  0  0
  4 11  2  0  0  0  0
  5  9  2  0  0  0  0
  5 19  1  0  0  0  0
  6 15  1  0  0  0  0
  6 19  2  0  0  0  0
  7 15  1  0  0  0  0
  7 34  1  0  0  0  0
  7 35  1  0  0  0  0
  8 12  1  0  0  0  0
  8 13  1  0  0  0  0
  8 23  1  0  0  0  0
  9 10  1  0  0  0  0
 10 11  1  0  0  0  0
 10 15  2  0  0  0  0
 11 14  1  0  0  0  0
 12 24  1  0  0  0  0
 12 25  1  0  0  0  0
 12 26  1  0  0  0  0
 13 27  1  0  0  0  0
 13 28  1  0  0  0  0
 13 29  1  0  0  0  0
 14 16  2  0  0  0  0
 14 17  1  0  0  0  0
 16 18  1  0  0  0  0
 16 30  1  0  0  0  0
 17 20  2  0  0  0  0
 17 31  1  0  0  0  0
 18 21  2  0  0  0  0
 19 32  1  0  0  0  0
 20 21  1  0  0  0  0
 20 33  1  0  0  0  0
 22 37  1  0  0  0  0
 22 38  1  0  0  0  0
 22 39  1  0  0  0  0
M  END
> <PUBCHEM_COMPOUND_CID>
135947978

> <PUBCHEM_CONFORMER_RMSD>
0.6

> <PUBCHEM_CONFORMER_DIVERSEORDER>
1
7
6
9
5
3
8
10
4
2

> <PUBCHEM_MMFF94_PARTIAL_CHARGES>
26
1 -0.36
11 0.23
14 0.05
15 0.41
16 -0.15
17 -0.15
18 0.08
19 0.47
2 -0.53
20 -0.15
21 0.08
22 0.28
3 0.31
30 0.15
31 0.15
32 0.15
33 0.15
34 0.4
35 0.4
36 0.45
4 -0.71
5 -0.57
6 -0.62
7 -0.9
8 0.26
9 0.11

> <PUBCHEM_EFFECTIVE_ROTOR_COUNT>
3

> <PUBCHEM_PHARMACOPHORE_FEATURES>
11
1 1 acceptor
1 2 donor
1 4 acceptor
1 7 cation
1 7 donor
3 3 5 9 cation
3 5 6 19 cation
3 8 12 13 hydrophobe
5 3 4 9 10 11 rings
6 14 16 17 18 20 21 rings
6 5 6 9 10 15 19 rings

> <PUBCHEM_HEAVY_ATOM_COUNT>
22

> <PUBCHEM_ATOM_DEF_STEREO_COUNT>
0

> <PUBCHEM_ATOM_UDEF_STEREO_COUNT>
0

> <PUBCHEM_BOND_DEF_STEREO_COUNT>
0

> <PUBCHEM_BOND_UDEF_STEREO_COUNT>
0

> <PUBCHEM_ISOTOPIC_ATOM_COUNT>
0

> <PUBCHEM_COMPONENT_COUNT>
1

> <PUBCHEM_CACTVS_TAUTO_COUNT>
-1

> <PUBCHEM_CONFORMER_ID>
081A66CA00000001

> <PUBCHEM_MMFF94_ENERGY>
62.16

> <PUBCHEM_FEATURE_SELFOVERLAP>
56.099

> <PUBCHEM_SHAPE_FINGERPRINT>
10165383 225 18124616205451890433
10319926 262 18199162102278337616
11582403 64 16407816797979394520
11640471 11 17676496050858023012
11725454 13 16841022197532441248
11796584 16 18199756860781287998
12173636 292 18338511929038486245
12236239 1 17749099019890630626
12500047 106 18340756066556343992
12553582 1 18192714672866555371
12714826 92 18341624762135766579
12788726 201 18190470535137057875
13140716 1 18122904493802125907
14022347 108 18047753986087069251
15042514 8 18265612268240041491
15842332 3 17822007627396486378
16752209 62 18337100246202436507
16945 1 18339353162987148155
16988056 13 16028151837952909885
18186145 218 17917720062875542032
19049666 15 17846785078815351682
20510252 161 18272081747191007393
20645477 70 16200155361573237676
20693207 138 17631473287599940924
20871999 31 18341345464908000036
21065201 7 18341893000461179122
22112679 90 18040713684137467116
22182313 1 17632582664735953470
22907989 373 18260819432571365717
23366157 5 17826513267186778163
23402539 116 18269822259470407495
23419403 2 17039008945769886739
23526113 38 17203041890119765080
23557571 272 18202003269930877744
23559900 14 18130510726475307686
23598291 2 17676205775646128140
2748010 2 18194968440122992975
312423 11 17749395892309162570
312425 83 18046101274471479356
350125 39 18195530294807077891
458136 41 17980775835459079953
474 4 16516251885163285988
57527295 17 17130712664880174532
6049 1 17775009037000287856
633830 44 17630884911192980177
7615 1 17822285820970898492
77492 1 17749102314109337170
81228 2 18339077215633107339
88987 49 18410007741290631068
9862522 239 17896589588405090589

> <PUBCHEM_SHAPE_MULTIPOLES>
416.11
8.36
3.02
1.68
5.43
0.9
0.68
-2.88
0.76
-5.36
0.24
2.4
-0.72
-0.43

> <PUBCHEM_SHAPE_SELFOVERLAP>
909.694

> <PUBCHEM_SHAPE_VOLUME>
225.9

> <PUBCHEM_COORDINATE_TYPE>
2
5
10

$$$$
