44352816
  -OEChem-10062121583D

 83 90  0     1  0  0  0  0  0999 V2000
    0.9615   -0.8225    2.4500 O   0  0  0  0  0  0  0  0  0  0  0  0
   -0.6623   -0.1781   -0.3909 O   0  0  0  0  0  0  0  0  0  0  0  0
    6.8103    0.0770   -1.9176 O   0  0  0  0  0  0  0  0  0  0  0  0
   -3.9721   -0.7561    1.3878 O   0  0  0  0  0  0  0  0  0  0  0  0
   -7.6581   -0.1724   -0.3961 O   0  0  0  0  0  0  0  0  0  0  0  0
   -5.7816   -0.0796   -1.7169 O   0  0  0  0  0  0  0  0  0  0  0  0
    1.0441    1.1250    1.1812 N   0  0  0  0  0  0  0  0  0  0  0  0
    2.2706   -1.5667    0.6770 N   0  0  0  0  0  0  0  0  0  0  0  0
   -2.4075   -2.2683    0.5375 N   0  0  0  0  0  0  0  0  0  0  0  0
    6.2012    2.3289   -1.7359 N   0  0  0  0  0  0  0  0  0  0  0  0
   -6.0135   -1.6724   -0.0439 N   0  0  0  0  0  0  0  0  0  0  0  0
    0.1546    0.2179    1.8908 C   0  0  1  0  0  0  0  0  0  0  0  0
   -1.0080   -0.2981    0.9961 C   0  0  2  0  0  0  0  0  0  0  0  0
    1.2280   -1.9207    1.6128 C   0  0  2  0  0  0  0  0  0  0  0  0
   -1.2852   -1.7690    1.2939 C   0  0  2  0  0  0  0  0  0  0  0  0
   -0.0207   -2.5713    1.0003 C   0  0  0  0  0  0  0  0  0  0  0  0
    2.2516    0.9055    0.5600 C   0  0  0  0  0  0  0  0  0  0  0  0
    2.8301   -0.3738    0.3110 C   0  0  0  0  0  0  0  0  0  0  0  0
    3.0068    2.0188    0.0316 C   0  0  0  0  0  0  0  0  0  0  0  0
    4.0841   -0.3517   -0.4244 C   0  0  0  0  0  0  0  0  0  0  0  0
    0.8518    2.4913    0.9294 C   0  0  0  0  0  0  0  0  0  0  0  0
   -0.4230    0.8253    3.1910 C   0  0  0  0  0  0  0  0  0  0  0  0
    3.1621   -2.4860    0.1147 C   0  0  0  0  0  0  0  0  0  0  0  0
    2.0280    3.0533    0.3464 C   0  0  0  0  0  0  0  0  0  0  0  0
    4.2413    2.0238   -0.6096 C   0  0  0  0  0  0  0  0  0  0  0  0
    4.7915    0.7730   -0.8434 C   0  0  0  0  0  0  0  0  0  0  0  0
    4.2396   -1.8077   -0.5286 C   0  0  0  0  0  0  0  0  0  0  0  0
    5.1059    3.0965   -1.1819 C   0  0  0  0  0  0  0  0  0  0  0  0
   -0.2754    3.3103    1.1495 C   0  0  0  0  0  0  0  0  0  0  0  0
    6.0520    0.9567   -1.5596 C   0  0  0  0  0  0  0  0  0  0  0  0
    3.1055   -3.8955    0.1454 C   0  0  0  0  0  0  0  0  0  0  0  0
    2.0537    4.4481    0.0910 C   0  0  0  0  0  0  0  0  0  0  0  0
   -2.1269   -3.3968   -0.3545 C   0  0  0  0  0  0  0  0  0  0  0  0
    5.2347   -2.6110   -1.1422 C   0  0  0  0  0  0  0  0  0  0  0  0
   -3.6954   -1.7052    0.6495 C   0  0  0  0  0  0  0  0  0  0  0  0
   -1.8168   -0.1848   -1.2206 C   0  0  0  0  0  0  0  0  0  0  0  0
   -0.2115    4.6785    0.8742 C   0  0  0  0  0  0  0  0  0  0  0  0
    0.9442    5.2465    0.3665 C   0  0  0  0  0  0  0  0  0  0  0  0
    4.1100   -4.6397   -0.4712 C   0  0  0  0  0  0  0  0  0  0  0  0
    5.1627   -4.0066   -1.1090 C   0  0  0  0  0  0  0  0  0  0  0  0
   -4.7609   -2.3500   -0.2194 C   0  0  0  0  0  0  0  0  0  0  0  0
   -6.4239   -0.5919   -0.8060 C   0  0  0  0  0  0  0  0  0  0  0  0
   -8.2047    0.9455   -1.1048 C   0  0  0  0  0  0  0  0  0  0  0  0
   -9.5758    1.2459   -0.5033 C   0  0  0  0  0  0  0  0  0  0  0  0
   -8.3354    0.5693   -2.5800 C   0  0  0  0  0  0  0  0  0  0  0  0
   -7.2672    2.1391   -0.9280 C   0  0  0  0  0  0  0  0  0  0  0  0
   -1.8720    0.3480    1.1820 H   0  0  0  0  0  0  0  0  0  0  0  0
    1.6892   -2.6641    2.2759 H   0  0  0  0  0  0  0  0  0  0  0  0
   -1.5532   -1.8742    2.3532 H   0  0  0  0  0  0  0  0  0  0  0  0
    0.1828   -2.7019   -0.0667 H   0  0  0  0  0  0  0  0  0  0  0  0
   -0.1152   -3.5786    1.4267 H   0  0  0  0  0  0  0  0  0  0  0  0
    0.3614    1.3245    3.7732 H   0  0  0  0  0  0  0  0  0  0  0  0
   -0.8304    0.0375    3.8379 H   0  0  0  0  0  0  0  0  0  0  0  0
   -1.2312    1.5389    3.0275 H   0  0  0  0  0  0  0  0  0  0  0  0
    4.6135    3.6440   -1.9891 H   0  0  0  0  0  0  0  0  0  0  0  0
    5.4943    3.7721   -0.4161 H   0  0  0  0  0  0  0  0  0  0  0  0
   -1.2114    2.9030    1.5125 H   0  0  0  0  0  0  0  0  0  0  0  0
    2.2882   -4.4118    0.6407 H   0  0  0  0  0  0  0  0  0  0  0  0
    2.9356    4.9078   -0.3481 H   0  0  0  0  0  0  0  0  0  0  0  0
   -1.4187   -3.1269   -1.1406 H   0  0  0  0  0  0  0  0  0  0  0  0
   -3.0098   -3.7680   -0.8741 H   0  0  0  0  0  0  0  0  0  0  0  0
   -1.7634   -4.2473    0.2299 H   0  0  0  0  0  0  0  0  0  0  0  0
    6.0759   -2.1598   -1.6560 H   0  0  0  0  0  0  0  0  0  0  0  0
    6.9968    2.7472   -2.2076 H   0  0  0  0  0  0  0  0  0  0  0  0
   -2.0317   -1.1638   -1.6402 H   0  0  0  0  0  0  0  0  0  0  0  0
   -2.6919    0.2874   -0.7666 H   0  0  0  0  0  0  0  0  0  0  0  0
   -1.5661    0.4367   -2.0882 H   0  0  0  0  0  0  0  0  0  0  0  0
   -1.0832    5.3014    1.0568 H   0  0  0  0  0  0  0  0  0  0  0  0
    0.9798    6.3116    0.1561 H   0  0  0  0  0  0  0  0  0  0  0  0
    4.0642   -5.7251   -0.4498 H   0  0  0  0  0  0  0  0  0  0  0  0
    5.9398   -4.5960   -1.5878 H   0  0  0  0  0  0  0  0  0  0  0  0
   -4.4767   -2.2848   -1.2737 H   0  0  0  0  0  0  0  0  0  0  0  0
   -4.9135   -3.3892    0.0851 H   0  0  0  0  0  0  0  0  0  0  0  0
   -6.6338   -1.9941    0.6931 H   0  0  0  0  0  0  0  0  0  0  0  0
  -10.0604    2.0952   -0.9957 H   0  0  0  0  0  0  0  0  0  0  0  0
  -10.2355    0.3745   -0.5863 H   0  0  0  0  0  0  0  0  0  0  0  0
   -9.4902    1.4682    0.5666 H   0  0  0  0  0  0  0  0  0  0  0  0
   -9.0004    1.2724   -3.0959 H   0  0  0  0  0  0  0  0  0  0  0  0
   -8.7582   -0.4358   -2.6931 H   0  0  0  0  0  0  0  0  0  0  0  0
   -7.3971    0.5897   -3.1400 H   0  0  0  0  0  0  0  0  0  0  0  0
   -7.7718    3.0681   -1.2192 H   0  0  0  0  0  0  0  0  0  0  0  0
   -6.3570    2.0966   -1.5313 H   0  0  0  0  0  0  0  0  0  0  0  0
   -6.9554    2.2405    0.1181 H   0  0  0  0  0  0  0  0  0  0  0  0
  1 12  1  0  0  0  0
  1 14  1  0  0  0  0
  2 13  1  0  0  0  0
  2 36  1  0  0  0  0
  3 30  2  0  0  0  0
  4 35  2  0  0  0  0
  5 42  1  0  0  0  0
  5 43  1  0  0  0  0
  6 42  2  0  0  0  0
  7 12  1  0  0  0  0
  7 17  1  0  0  0  0
  7 21  1  0  0  0  0
  8 14  1  0  0  0  0
  8 18  1  0  0  0  0
  8 23  1  0  0  0  0
  9 15  1  0  0  0  0
  9 33  1  0  0  0  0
  9 35  1  0  0  0  0
 10 28  1  0  0  0  0
 10 30  1  0  0  0  0
 10 64  1  0  0  0  0
 11 41  1  0  0  0  0
 11 42  1  0  0  0  0
 11 74  1  0  0  0  0
 12 13  1  0  0  0  0
 12 22  1  0  0  0  0
 13 15  1  0  0  0  0
 13 47  1  0  0  0  0
 14 16  1  0  0  0  0
 14 48  1  0  0  0  0
 15 16  1  0  0  0  0
 15 49  1  0  0  0  0
 16 50  1  0  0  0  0
 16 51  1  0  0  0  0
 17 18  2  0  0  0  0
 17 19  1  0  0  0  0
 18 20  1  0  0  0  0
 19 24  1  0  0  0  0
 19 25  2  0  0  0  0
 20 26  2  0  0  0  0
 20 27  1  0  0  0  0
 21 24  1  0  0  0  0
 21 29  2  0  0  0  0
 22 52  1  0  0  0  0
 22 53  1  0  0  0  0
 22 54  1  0  0  0  0
 23 27  1  0  0  0  0
 23 31  2  0  0  0  0
 24 32  2  0  0  0  0
 25 26  1  0  0  0  0
 25 28  1  0  0  0  0
 26 30  1  0  0  0  0
 27 34  2  0  0  0  0
 28 55  1  0  0  0  0
 28 56  1  0  0  0  0
 29 37  1  0  0  0  0
 29 57  1  0  0  0  0
 31 39  1  0  0  0  0
 31 58  1  0  0  0  0
 32 38  1  0  0  0  0
 32 59  1  0  0  0  0
 33 60  1  0  0  0  0
 33 61  1  0  0  0  0
 33 62  1  0  0  0  0
 34 40  1  0  0  0  0
 34 63  1  0  0  0  0
 35 41  1  0  0  0  0
 36 65  1  0  0  0  0
 36 66  1  0  0  0  0
 36 67  1  0  0  0  0
 37 38  2  0  0  0  0
 37 68  1  0  0  0  0
 38 69  1  0  0  0  0
 39 40  2  0  0  0  0
 39 70  1  0  0  0  0
 40 71  1  0  0  0  0
 41 72  1  0  0  0  0
 41 73  1  0  0  0  0
 43 44  1  0  0  0  0
 43 45  1  0  0  0  0
 43 46  1  0  0  0  0
 44 75  1  0  0  0  0
 44 76  1  0  0  0  0
 44 77  1  0  0  0  0
 45 78  1  0  0  0  0
 45 79  1  0  0  0  0
 45 80  1  0  0  0  0
 46 81  1  0  0  0  0
 46 82  1  0  0  0  0
 46 83  1  0  0  0  0
M  END
> <PUBCHEM_COMPOUND_CID>
44352816

> <PUBCHEM_CONFORMER_RMSD>
1.2

> <PUBCHEM_CONFORMER_DIVERSEORDER>
1
15
12
19
11
9
16
21
27
20
5
17
4
18
6
8
25
7
2
22
13
3
23
14
26

> <PUBCHEM_MMFF94_PARTIAL_CHARGES>
49
1 -0.56
10 -0.73
11 -0.73
12 0.54
13 0.28
14 0.54
15 0.3
17 -0.05
18 -0.05
19 -0.01
2 -0.56
20 -0.01
21 -0.15
23 -0.15
25 -0.14
26 0.09
28 0.44
29 -0.15
3 -0.57
30 0.54
31 -0.15
32 -0.15
33 0.3
34 -0.15
35 0.57
36 0.28
37 -0.15
38 -0.15
39 -0.15
4 -0.57
40 -0.15
41 0.36
42 0.78
43 0.28
5 -0.43
57 0.15
58 0.15
59 0.15
6 -0.57
63 0.15
64 0.37
68 0.15
69 0.15
7 -0.04
70 0.15
71 0.15
74 0.37
8 -0.04
9 -0.66

> <PUBCHEM_EFFECTIVE_ROTOR_COUNT>
9.2

> <PUBCHEM_PHARMACOPHORE_FEATURES>
18
1 1 acceptor
1 10 donor
1 11 donor
1 2 acceptor
1 3 acceptor
1 4 acceptor
1 6 acceptor
1 7 cation
1 8 cation
4 43 44 45 46 hydrophobe
5 10 25 26 28 30 rings
5 7 17 19 21 24 rings
5 8 18 20 23 27 rings
6 1 12 13 14 15 16 rings
6 17 18 19 20 25 26 rings
6 21 24 29 32 37 38 rings
6 23 27 31 34 39 40 rings
7 1 7 8 12 14 17 18 rings

> <PUBCHEM_HEAVY_ATOM_COUNT>
46

> <PUBCHEM_ATOM_DEF_STEREO_COUNT>
4

> <PUBCHEM_ATOM_UDEF_STEREO_COUNT>
0

> <PUBCHEM_BOND_DEF_STEREO_COUNT>
0

> <PUBCHEM_BOND_UDEF_STEREO_COUNT>
0

> <PUBCHEM_ISOTOPIC_ATOM_COUNT>
0

> <PUBCHEM_COMPONENT_COUNT>
1

> <PUBCHEM_CACTVS_TAUTO_COUNT>
4

> <PUBCHEM_CONFORMER_ID>
02A4C53000000001

> <PUBCHEM_MMFF94_ENERGY>
206.4768

> <PUBCHEM_FEATURE_SELFOVERLAP>
92.305

> <PUBCHEM_SHAPE_FINGERPRINT>
10483366 6 18410858762974324041
10675989 125 18407760331044156026
10721379 63 17386555865511593266
10816530 90 18261103076295433729
11115154 58 17847067675179765777
11621639 179 18188479200032377749
11720765 8 18273208711997006041
13911987 19 17975721660006167772
13944108 23 18334010618323008668
14068700 686 17688024632635044051
14537116 161 18338223896073872301
15082195 135 18412825780897029481
15183329 4 18342460352871915539
15198563 99 18124604080410489532
15351339 4 18334856069892528552
15444296 9 17894900846277367612
15484559 13 18341896355047512934
15530120 55 17628337579686236269
15950262 2 15504639679467077756
19311894 1 17400080777898870670
21987483 16 10087340241638544493
23559900 14 18055920045707641027
24771750 20 17686074076799089124
3882209 13 18190728744988479170
4066623 53 18268986501303977252
4144715 1 18188777266557618251
4353968 344 18269855146947636102
508180 173 18337392763677631825
5776283 40 18261958556588222517
6086070 43 18271524303754729283

> <PUBCHEM_SHAPE_MULTIPOLES>
886.54
19.38
6.18
1.94
48.22
2.78
-0.49
0.1
16.56
-7.7
-0.2
0.49
0.28
0.51

> <PUBCHEM_SHAPE_SELFOVERLAP>
1995.112

> <PUBCHEM_SHAPE_VOLUME>
466.2

> <PUBCHEM_COORDINATE_TYPE>
2
5
10

$$$$
