49830537
  -OEChem-10052120443D

 53 57  0     0  0  0  0  0  0999 V2000
  -10.3145    0.7824   -0.4114 Cl  0  0  0  0  0  0  0  0  0  0  0  0
    5.1738    1.5944   -0.8954 O   0  0  0  0  0  0  0  0  0  0  0  0
    5.6174   -3.7345   -0.4904 O   0  0  0  0  0  0  0  0  0  0  0  0
   -5.4882    0.5175    1.4107 O   0  0  0  0  0  0  0  0  0  0  0  0
    3.3560   -3.9207    0.1331 N   0  0  0  0  0  0  0  0  0  0  0  0
   -3.1558    0.2869    1.4682 N   0  0  0  0  0  0  0  0  0  0  0  0
   -4.4874    0.1663   -0.5922 N   0  0  0  0  0  0  0  0  0  0  0  0
    9.0250    4.2779    0.3161 N   0  0  0  0  0  0  0  0  0  0  0  0
    2.8472   -1.6918    0.0514 C   0  0  0  0  0  0  0  0  0  0  0  0
    2.2689   -0.4371    0.0833 C   0  0  0  0  0  0  0  0  0  0  0  0
    4.1913   -1.8388   -0.2947 C   0  0  0  0  0  0  0  0  0  0  0  0
    2.2389   -3.0195    0.3444 C   0  0  0  0  0  0  0  0  0  0  0  0
    4.5220   -3.2660   -0.2437 C   0  0  0  0  0  0  0  0  0  0  0  0
    0.8799   -0.2514    0.4375 C   0  0  0  0  0  0  0  0  0  0  0  0
    3.0677    0.6652   -0.2391 C   0  0  0  0  0  0  0  0  0  0  0  0
    5.0017   -0.7683   -0.6172 C   0  0  0  0  0  0  0  0  0  0  0  0
    4.4217    0.5008   -0.5863 C   0  0  0  0  0  0  0  0  0  0  0  0
   -0.1021   -0.2758   -0.5530 C   0  0  0  0  0  0  0  0  0  0  0  0
    0.5212   -0.0486    1.7702 C   0  0  0  0  0  0  0  0  0  0  0  0
    6.5677    1.5255   -0.6018 C   0  0  0  0  0  0  0  0  0  0  0  0
   -1.8009    0.1058    1.1218 C   0  0  0  0  0  0  0  0  0  0  0  0
   -1.4424   -0.0971   -0.2109 C   0  0  0  0  0  0  0  0  0  0  0  0
   -0.8191    0.1300    2.1123 C   0  0  0  0  0  0  0  0  0  0  0  0
    7.0802    2.9301   -0.3135 C   0  0  0  0  0  0  0  0  0  0  0  0
    8.5674    2.9248    0.0246 C   0  0  0  0  0  0  0  0  0  0  0  0
   -4.3402    0.3129    0.7061 C   0  0  0  0  0  0  0  0  0  0  0  0
   -6.4606    0.4973    0.4522 C   0  0  0  0  0  0  0  0  0  0  0  0
   -5.8445    0.2822   -0.7718 C   0  0  0  0  0  0  0  0  0  0  0  0
   -7.8287    0.6591    0.6324 C   0  0  0  0  0  0  0  0  0  0  0  0
   -6.6364    0.2191   -1.9273 C   0  0  0  0  0  0  0  0  0  0  0  0
   -8.6045    0.5935   -0.5301 C   0  0  0  0  0  0  0  0  0  0  0  0
   -8.0226    0.3780   -1.7855 C   0  0  0  0  0  0  0  0  0  0  0  0
    1.9081   -3.1121    1.3819 H   0  0  0  0  0  0  0  0  0  0  0  0
    1.4421   -3.2822   -0.3560 H   0  0  0  0  0  0  0  0  0  0  0  0
    3.2932   -4.9272    0.2488 H   0  0  0  0  0  0  0  0  0  0  0  0
    2.6474    1.6696   -0.2248 H   0  0  0  0  0  0  0  0  0  0  0  0
    6.0321   -0.9435   -0.9033 H   0  0  0  0  0  0  0  0  0  0  0  0
    0.1611   -0.4335   -1.5964 H   0  0  0  0  0  0  0  0  0  0  0  0
    1.2741   -0.0275    2.5546 H   0  0  0  0  0  0  0  0  0  0  0  0
    6.7625    0.9081    0.2849 H   0  0  0  0  0  0  0  0  0  0  0  0
    7.0942    1.1019   -1.4649 H   0  0  0  0  0  0  0  0  0  0  0  0
   -2.1667   -0.1245   -1.0161 H   0  0  0  0  0  0  0  0  0  0  0  0
   -1.0837    0.2871    3.1549 H   0  0  0  0  0  0  0  0  0  0  0  0
    6.5011    3.3626    0.5129 H   0  0  0  0  0  0  0  0  0  0  0  0
    6.8849    3.5710   -1.1831 H   0  0  0  0  0  0  0  0  0  0  0  0
   -3.2852    0.4245    2.4685 H   0  0  0  0  0  0  0  0  0  0  0  0
    8.7540    2.2907    0.8979 H   0  0  0  0  0  0  0  0  0  0  0  0
    9.1451    2.5181   -0.8127 H   0  0  0  0  0  0  0  0  0  0  0  0
   10.0293    4.2653    0.4888 H   0  0  0  0  0  0  0  0  0  0  0  0
    8.8829    4.8718   -0.5000 H   0  0  0  0  0  0  0  0  0  0  0  0
   -8.2572    0.8249    1.6137 H   0  0  0  0  0  0  0  0  0  0  0  0
   -6.1962    0.0526   -2.9048 H   0  0  0  0  0  0  0  0  0  0  0  0
   -8.6442    0.3303   -2.6774 H   0  0  0  0  0  0  0  0  0  0  0  0
  1 31  1  0  0  0  0
  2 17  1  0  0  0  0
  2 20  1  0  0  0  0
  3 13  2  0  0  0  0
  4 26  1  0  0  0  0
  4 27  1  0  0  0  0
  5 12  1  0  0  0  0
  5 13  1  0  0  0  0
  5 35  1  0  0  0  0
  6 21  1  0  0  0  0
  6 26  1  0  0  0  0
  6 46  1  0  0  0  0
  7 26  2  0  0  0  0
  7 28  1  0  0  0  0
  8 25  1  0  0  0  0
  8 49  1  0  0  0  0
  8 50  1  0  0  0  0
  9 10  2  0  0  0  0
  9 11  1  0  0  0  0
  9 12  1  0  0  0  0
 10 14  1  0  0  0  0
 10 15  1  0  0  0  0
 11 13  1  0  0  0  0
 11 16  2  0  0  0  0
 12 33  1  0  0  0  0
 12 34  1  0  0  0  0
 14 18  2  0  0  0  0
 14 19  1  0  0  0  0
 15 17  2  0  0  0  0
 15 36  1  0  0  0  0
 16 17  1  0  0  0  0
 16 37  1  0  0  0  0
 18 22  1  0  0  0  0
 18 38  1  0  0  0  0
 19 23  2  0  0  0  0
 19 39  1  0  0  0  0
 20 24  1  0  0  0  0
 20 40  1  0  0  0  0
 20 41  1  0  0  0  0
 21 22  2  0  0  0  0
 21 23  1  0  0  0  0
 22 42  1  0  0  0  0
 23 43  1  0  0  0  0
 24 25  1  0  0  0  0
 24 44  1  0  0  0  0
 24 45  1  0  0  0  0
 25 47  1  0  0  0  0
 25 48  1  0  0  0  0
 27 28  2  0  0  0  0
 27 29  1  0  0  0  0
 28 30  1  0  0  0  0
 29 31  2  0  0  0  0
 29 51  1  0  0  0  0
 30 32  2  0  0  0  0
 30 52  1  0  0  0  0
 31 32  1  0  0  0  0
 32 53  1  0  0  0  0
M  END
> <PUBCHEM_COMPOUND_CID>
49830537

> <PUBCHEM_CONFORMER_RMSD>
1

> <PUBCHEM_CONFORMER_DIVERSEORDER>
1
41
63
6
44
54
33
4
12
23
53
36
34
40
32
48
10
47
9
51
3
21
5
18
56
37
35
20
16
43
62
15
2
8
30
42
45
22
39
28
61
58
7
25
57
49
52
17
31
27
60
59
26
24
11
50
13
65
19
64
38
29
46
55
14
66

> <PUBCHEM_MMFF94_PARTIAL_CHARGES>
42
1 -0.18
11 0.09
12 0.44
13 0.54
15 -0.15
16 -0.15
17 0.08
18 -0.15
19 -0.15
2 -0.36
20 0.28
21 0.1
22 -0.15
23 -0.15
25 0.27
26 0.56
27 0.14
28 0.23
29 -0.15
3 -0.57
30 -0.15
31 0.18
32 -0.15
35 0.37
36 0.15
37 0.15
38 0.15
39 0.15
4 -0.28
42 0.15
43 0.15
46 0.4
49 0.36
5 -0.73
50 0.36
51 0.15
52 0.15
53 0.15
6 -0.58
7 -0.57
8 -0.99
9 -0.14

> <PUBCHEM_EFFECTIVE_ROTOR_COUNT>
7.4

> <PUBCHEM_PHARMACOPHORE_FEATURES>
12
1 2 acceptor
1 3 acceptor
1 5 donor
1 6 donor
1 8 cation
1 8 donor
3 6 7 26 cation
5 4 7 26 27 28 rings
5 5 9 11 12 13 rings
6 14 18 19 21 22 23 rings
6 27 28 29 30 31 32 rings
6 9 10 11 15 16 17 rings

> <PUBCHEM_HEAVY_ATOM_COUNT>
32

> <PUBCHEM_ATOM_DEF_STEREO_COUNT>
0

> <PUBCHEM_ATOM_UDEF_STEREO_COUNT>
0

> <PUBCHEM_BOND_DEF_STEREO_COUNT>
0

> <PUBCHEM_BOND_UDEF_STEREO_COUNT>
0

> <PUBCHEM_ISOTOPIC_ATOM_COUNT>
0

> <PUBCHEM_COMPONENT_COUNT>
1

> <PUBCHEM_CACTVS_TAUTO_COUNT>
4

> <PUBCHEM_CONFORMER_ID>
02F85A8900000001

> <PUBCHEM_MMFF94_ENERGY>
91.4215

> <PUBCHEM_FEATURE_SELFOVERLAP>
61.104

> <PUBCHEM_SHAPE_FINGERPRINT>
10299344 5 18059572452544158023
10595046 47 18270967843080583377
10835480 77 18335144214889762921
11181472 205 17986120613237792345
11456790 92 13190339067556147925
11607047 191 18040993004137627136
11607047 74 17274814767430467058
11638347 137 10159694708163497685
12082328 90 18409730618149668709
12144603 126 17989212530103070553
12838862 33 18341044229510129032
13008946 282 18340193143064408312
13150687 139 17988095469507312222
13533116 47 18271525299496539386
14117953 113 18336838580601975852
14118638 360 18272374139758800201
14400156 350 17749680705219950588
14415360 78 18124869316966121444
14675020 138 16153423948386612496
15183329 4 18115871807104184003
15419008 145 13190324769620101551
15510794 2 17894918417263083323
1577012 14 17917436393735039201
15890870 6 18339365296866657208
20105231 36 10880002354325501332
20157964 124 18335423448109991446
20554085 129 16443063906676735088
21057603 11 18188204434132830522
21150785 3 17775850129057098173
23081809 10 17988366970995065291
23522609 53 17630912450707652449
23528521 120 18187638134146277829
3178227 256 9583522006162904068
34797466 226 18113337479930430887
3633792 109 18335704871700056131
4073 2 18334581273790741403
4098825 35 18265331699970343861
4149490 64 18334017185417941746
4403749 210 18119817060956583986
44249763 50 17168147866795543411
4516262 110 18341331180379796348
45270241 37 18410296869762069727
45377200 153 15482100704746673671
5470011 282 18411980252819795663
57634706 306 18196650912200065352
6058803 2 17556880026327251042
6700243 42 16414096100296441705

> <PUBCHEM_SHAPE_MULTIPOLES>
622.88
30.15
3.47
1.39
34.89
1.26
0.27
-23.77
-8.76
-15.52
-0.24
2.19
-0.15
0.29

> <PUBCHEM_SHAPE_SELFOVERLAP>
1374.328

> <PUBCHEM_SHAPE_VOLUME>
338

> <PUBCHEM_COORDINATE_TYPE>
2
5
10

$$$$
