24894992
  -OEChem-10062122023D

 63 66  0     0  0  0  0  0  0999 V2000
    2.1951    2.4134   -0.7034 O   0  0  0  0  0  0  0  0  0  0  0  0
   -3.4142   -3.3322   -1.0877 O   0  0  0  0  0  0  0  0  0  0  0  0
   -4.2772    1.8006   -0.9977 O   0  0  0  0  0  0  0  0  0  0  0  0
   -1.8739    1.0019    3.0671 O   0  0  0  0  0  0  0  0  0  0  0  0
   -3.6290    2.5521    1.5879 O   0  0  0  0  0  0  0  0  0  0  0  0
    2.5136    0.1053   -0.6878 N   0  0  0  0  0  0  0  0  0  0  0  0
   -1.3014   -4.2035   -1.5763 N   0  0  0  0  0  0  0  0  0  0  0  0
    1.0830   -1.5893   -0.5956 C   0  0  0  0  0  0  0  0  0  0  0  0
   -0.1058   -2.4139   -0.8616 C   0  0  0  0  0  0  0  0  0  0  0  0
    2.1772   -1.8837    0.2651 C   0  0  0  0  0  0  0  0  0  0  0  0
    3.0604   -0.8045    0.1889 C   0  0  0  0  0  0  0  0  0  0  0  0
    1.3185   -0.3601   -1.1670 C   0  0  0  0  0  0  0  0  0  0  0  0
    0.0609   -3.7856   -1.4382 C   0  0  0  0  0  0  0  0  0  0  0  0
   -1.3969   -2.0928   -0.6443 C   0  0  0  0  0  0  0  0  0  0  0  0
    3.1021    1.3739   -1.0596 C   0  0  0  0  0  0  0  0  0  0  0  0
    2.7019    3.6943   -1.0527 C   0  0  0  0  0  0  0  0  0  0  0  0
   -2.1971   -3.2545   -1.1182 C   0  0  0  0  0  0  0  0  0  0  0  0
    2.5022   -2.9679    1.1042 C   0  0  0  0  0  0  0  0  0  0  0  0
   -1.9780   -0.8828   -0.0629 C   0  0  0  0  0  0  0  0  0  0  0  0
    4.2571   -0.7554    0.9127 C   0  0  0  0  0  0  0  0  0  0  0  0
    2.9278    3.7324   -2.5635 C   0  0  0  0  0  0  0  0  0  0  0  0
    1.6589    4.7303   -0.6390 C   0  0  0  0  0  0  0  0  0  0  0  0
    4.0122    3.9209   -0.3001 C   0  0  0  0  0  0  0  0  0  0  0  0
    3.6958   -2.9326    1.8343 C   0  0  0  0  0  0  0  0  0  0  0  0
    4.5582   -1.8422    1.7385 C   0  0  0  0  0  0  0  0  0  0  0  0
   -1.6490   -0.5074    1.2395 C   0  0  0  0  0  0  0  0  0  0  0  0
   -2.8614   -0.1045   -0.8110 C   0  0  0  0  0  0  0  0  0  0  0  0
   -3.4158    1.0492   -0.2566 C   0  0  0  0  0  0  0  0  0  0  0  0
   -2.2034    0.6463    1.7939 C   0  0  0  0  0  0  0  0  0  0  0  0
   -3.0869    1.4245    1.0459 C   0  0  0  0  0  0  0  0  0  0  0  0
   -4.5604    1.3468   -2.3198 C   0  0  0  0  0  0  0  0  0  0  0  0
   -0.9641    0.1518    3.7626 C   0  0  0  0  0  0  0  0  0  0  0  0
   -2.9101    3.7693    1.4022 C   0  0  0  0  0  0  0  0  0  0  0  0
    0.7396    0.2201   -1.8743 H   0  0  0  0  0  0  0  0  0  0  0  0
    0.5314   -3.7760   -2.4252 H   0  0  0  0  0  0  0  0  0  0  0  0
    0.5758   -4.4803   -0.7709 H   0  0  0  0  0  0  0  0  0  0  0  0
    4.0612    1.4653   -0.5528 H   0  0  0  0  0  0  0  0  0  0  0  0
    3.2558    1.3023   -2.1404 H   0  0  0  0  0  0  0  0  0  0  0  0
   -1.5821   -5.1027   -1.9547 H   0  0  0  0  0  0  0  0  0  0  0  0
    1.8409   -3.8242    1.1986 H   0  0  0  0  0  0  0  0  0  0  0  0
    4.9407    0.0839    0.8531 H   0  0  0  0  0  0  0  0  0  0  0  0
    3.8157    3.1747   -2.8798 H   0  0  0  0  0  0  0  0  0  0  0  0
    2.0686    3.3194   -3.1042 H   0  0  0  0  0  0  0  0  0  0  0  0
    3.0800    4.7627   -2.9056 H   0  0  0  0  0  0  0  0  0  0  0  0
    1.4602    4.6731    0.4374 H   0  0  0  0  0  0  0  0  0  0  0  0
    0.7027    4.5406   -1.1402 H   0  0  0  0  0  0  0  0  0  0  0  0
    1.9792    5.7495   -0.8785 H   0  0  0  0  0  0  0  0  0  0  0  0
    3.9225    3.6276    0.7522 H   0  0  0  0  0  0  0  0  0  0  0  0
    4.8557    3.3677   -0.7266 H   0  0  0  0  0  0  0  0  0  0  0  0
    4.2988    4.9786   -0.3335 H   0  0  0  0  0  0  0  0  0  0  0  0
    3.9508   -3.7653    2.4844 H   0  0  0  0  0  0  0  0  0  0  0  0
    5.4797   -1.8355    2.3153 H   0  0  0  0  0  0  0  0  0  0  0  0
   -0.9638   -1.1520    1.7806 H   0  0  0  0  0  0  0  0  0  0  0  0
   -3.0782   -0.4398   -1.8203 H   0  0  0  0  0  0  0  0  0  0  0  0
   -5.2626    2.0616   -2.7616 H   0  0  0  0  0  0  0  0  0  0  0  0
   -5.0615    0.3727   -2.3143 H   0  0  0  0  0  0  0  0  0  0  0  0
   -3.6641    1.3528   -2.9495 H   0  0  0  0  0  0  0  0  0  0  0  0
   -0.8128    0.5868    4.7561 H   0  0  0  0  0  0  0  0  0  0  0  0
    0.0169    0.1253    3.2758 H   0  0  0  0  0  0  0  0  0  0  0  0
   -1.3825   -0.8489    3.9152 H   0  0  0  0  0  0  0  0  0  0  0  0
   -3.4660    4.5736    1.8918 H   0  0  0  0  0  0  0  0  0  0  0  0
   -2.8197    4.0047    0.3370 H   0  0  0  0  0  0  0  0  0  0  0  0
   -1.9166    3.7037    1.8569 H   0  0  0  0  0  0  0  0  0  0  0  0
  1 15  1  0  0  0  0
  1 16  1  0  0  0  0
  2 17  2  0  0  0  0
  3 28  1  0  0  0  0
  3 31  1  0  0  0  0
  4 29  1  0  0  0  0
  4 32  1  0  0  0  0
  5 30  1  0  0  0  0
  5 33  1  0  0  0  0
  6 11  1  0  0  0  0
  6 12  1  0  0  0  0
  6 15  1  0  0  0  0
  7 13  1  0  0  0  0
  7 17  1  0  0  0  0
  7 39  1  0  0  0  0
  8  9  1  0  0  0  0
  8 10  1  0  0  0  0
  8 12  2  0  0  0  0
  9 13  1  0  0  0  0
  9 14  2  0  0  0  0
 10 11  1  0  0  0  0
 10 18  2  0  0  0  0
 11 20  2  0  0  0  0
 12 34  1  0  0  0  0
 13 35  1  0  0  0  0
 13 36  1  0  0  0  0
 14 17  1  0  0  0  0
 14 19  1  0  0  0  0
 15 37  1  0  0  0  0
 15 38  1  0  0  0  0
 16 21  1  0  0  0  0
 16 22  1  0  0  0  0
 16 23  1  0  0  0  0
 18 24  1  0  0  0  0
 18 40  1  0  0  0  0
 19 26  2  0  0  0  0
 19 27  1  0  0  0  0
 20 25  1  0  0  0  0
 20 41  1  0  0  0  0
 21 42  1  0  0  0  0
 21 43  1  0  0  0  0
 21 44  1  0  0  0  0
 22 45  1  0  0  0  0
 22 46  1  0  0  0  0
 22 47  1  0  0  0  0
 23 48  1  0  0  0  0
 23 49  1  0  0  0  0
 23 50  1  0  0  0  0
 24 25  2  0  0  0  0
 24 51  1  0  0  0  0
 25 52  1  0  0  0  0
 26 29  1  0  0  0  0
 26 53  1  0  0  0  0
 27 28  2  0  0  0  0
 27 54  1  0  0  0  0
 28 30  1  0  0  0  0
 29 30  2  0  0  0  0
 31 55  1  0  0  0  0
 31 56  1  0  0  0  0
 31 57  1  0  0  0  0
 32 58  1  0  0  0  0
 32 59  1  0  0  0  0
 32 60  1  0  0  0  0
 33 61  1  0  0  0  0
 33 62  1  0  0  0  0
 33 63  1  0  0  0  0
M  END
> <PUBCHEM_COMPOUND_CID>
24894992

> <PUBCHEM_CONFORMER_RMSD>
1

> <PUBCHEM_CONFORMER_DIVERSEORDER>
3
21
29
8
24
12
11
7
23
18
27
15
26
4
10
9
17
28
25
22
1
19
16
2
13
6
14
5
20

> <PUBCHEM_MMFF94_PARTIAL_CHARGES>
37
1 -0.56
11 -0.15
12 -0.3
13 0.44
14 -0.01
15 0.54
16 0.28
17 0.62
18 -0.15
19 0.03
2 -0.57
20 -0.15
24 -0.15
25 -0.15
26 -0.15
27 -0.15
28 0.08
29 0.08
3 -0.36
30 0.08
31 0.28
32 0.28
33 0.28
34 0.15
39 0.37
4 -0.36
40 0.15
41 0.15
5 -0.36
51 0.15
52 0.15
53 0.15
54 0.15
6 0.05
7 -0.73
8 -0.05
9 -0.09

> <PUBCHEM_EFFECTIVE_ROTOR_COUNT>
8.4

> <PUBCHEM_PHARMACOPHORE_FEATURES>
12
1 1 acceptor
1 2 acceptor
1 3 acceptor
1 4 acceptor
1 5 acceptor
1 6 cation
1 7 donor
4 16 21 22 23 hydrophobe
5 6 8 10 11 12 rings
5 7 9 13 14 17 rings
6 10 11 18 20 24 25 rings
6 19 26 27 28 29 30 rings

> <PUBCHEM_HEAVY_ATOM_COUNT>
33

> <PUBCHEM_ATOM_DEF_STEREO_COUNT>
0

> <PUBCHEM_ATOM_UDEF_STEREO_COUNT>
0

> <PUBCHEM_BOND_DEF_STEREO_COUNT>
0

> <PUBCHEM_BOND_UDEF_STEREO_COUNT>
0

> <PUBCHEM_ISOTOPIC_ATOM_COUNT>
0

> <PUBCHEM_COMPONENT_COUNT>
1

> <PUBCHEM_CACTVS_TAUTO_COUNT>
2

> <PUBCHEM_CONFORMER_ID>
017BDE1000000003

> <PUBCHEM_MMFF94_ENERGY>
121.5669

> <PUBCHEM_FEATURE_SELFOVERLAP>
60.998

> <PUBCHEM_SHAPE_FINGERPRINT>
10006869 2 18194137423854497419
10032420 55 17619053371271380973
10940486 97 18272374179131145438
11007060 377 17759532462512242724
11582403 64 17459732762781644463
11763715 3 17197663277143557406
12156800 1 17477445035605786681
12166972 35 18269539577291336271
12403259 327 17315947401812634963
12788726 201 18057324096703907543
13583140 156 17967822626020963779
13965767 371 17909542857629961658
15420108 30 18412831266055932848
17974551 9 17313399889057777466
19311894 1 17983892061723456068
19319366 153 17687172506459714054
20642791 105 18270095986305614663
20642791 239 17478054216803420859
20739085 24 18051705334561118534
20764821 26 17987215902643580515
21033648 29 17915447303848423274
2132832 1 18195784461996865158
22113638 7 18337943485547378868
22907989 373 18128818719444913863
238918 7 17257641223799337954
5252454 2 18192735533174715132
9981440 41 17681827745955231728

> <PUBCHEM_SHAPE_MULTIPOLES>
639.82
8.34
6.53
2.68
0.07
3.55
1.92
3.38
0.33
3.37
-2.88
-1.27
0.47
-4.43

> <PUBCHEM_SHAPE_SELFOVERLAP>
1390.777

> <PUBCHEM_SHAPE_VOLUME>
355.1

> <PUBCHEM_COORDINATE_TYPE>
2
5
10

$$$$
