71553011
  -OEChem-10062121573D

 66 69  0     0  0  0  0  0  0999 V2000
    2.9562   -1.0762    2.9077 O   0  0  0  0  0  0  0  0  0  0  0  0
   -4.6510   -1.0933   -1.9672 O   0  0  0  0  0  0  0  0  0  0  0  0
    6.0394   -1.3442   -1.7508 N   0  0  0  0  0  0  0  0  0  0  0  0
    1.2386    1.5604    0.7921 N   0  0  0  0  0  0  0  0  0  0  0  0
    3.4260   -0.5237    0.7053 N   0  0  0  0  0  0  0  0  0  0  0  0
   -0.8425    0.4267    0.7359 N   0  0  0  0  0  0  0  0  0  0  0  0
   -0.9893   -1.8805    1.4161 N   0  0  0  0  0  0  0  0  0  0  0  0
   -2.8917   -0.7151    0.6886 N   0  0  0  0  0  0  0  0  0  0  0  0
    0.6535    2.7895    0.3003 C   0  0  0  0  0  0  0  0  0  0  0  0
    1.5834    3.9693    0.5555 C   0  0  0  0  0  0  0  0  0  0  0  0
    0.5498    2.7670   -1.2197 C   0  0  0  0  0  0  0  0  0  0  0  0
    2.6111    3.9088   -0.5723 C   0  0  0  0  0  0  0  0  0  0  0  0
    1.9451    3.1422   -1.7147 C   0  0  0  0  0  0  0  0  0  0  0  0
    4.8662   -0.5589    0.8273 C   0  0  0  0  0  0  0  0  0  0  0  0
    5.4086   -1.9652    0.5613 C   0  0  0  0  0  0  0  0  0  0  0  0
    5.5251    0.4462   -0.1202 C   0  0  0  0  0  0  0  0  0  0  0  0
    5.3426   -2.3380   -0.9231 C   0  0  0  0  0  0  0  0  0  0  0  0
    5.4549   -0.0072   -1.5818 C   0  0  0  0  0  0  0  0  0  0  0  0
    0.4788    0.3836    1.0063 C   0  0  0  0  0  0  0  0  0  0  0  0
    6.0125   -1.7408   -3.1585 C   0  0  0  0  0  0  0  0  0  0  0  0
    1.1288   -0.7386    1.4777 C   0  0  0  0  0  0  0  0  0  0  0  0
    2.5839   -0.7896    1.7729 C   0  0  0  0  0  0  0  0  0  0  0  0
    0.3364   -1.8526    1.6655 C   0  0  0  0  0  0  0  0  0  0  0  0
   -1.5061   -0.7235    0.9601 C   0  0  0  0  0  0  0  0  0  0  0  0
   -3.5789    0.4392    0.2004 C   0  0  0  0  0  0  0  0  0  0  0  0
   -5.0463    0.1517    0.0429 C   0  0  0  0  0  0  0  0  0  0  0  0
   -5.5136   -0.6015   -1.0340 C   0  0  0  0  0  0  0  0  0  0  0  0
   -5.9436    0.6477    0.9886 C   0  0  0  0  0  0  0  0  0  0  0  0
   -6.8782   -0.8588   -1.1653 C   0  0  0  0  0  0  0  0  0  0  0  0
   -7.3083    0.3906    0.8573 C   0  0  0  0  0  0  0  0  0  0  0  0
   -7.7757   -0.3627   -0.2196 C   0  0  0  0  0  0  0  0  0  0  0  0
   -5.2156   -1.8526   -3.0344 C   0  0  0  0  0  0  0  0  0  0  0  0
   -0.3169    2.9714    0.7757 H   0  0  0  0  0  0  0  0  0  0  0  0
    2.0593    3.9421    1.5411 H   0  0  0  0  0  0  0  0  0  0  0  0
    1.0202    4.9076    0.4794 H   0  0  0  0  0  0  0  0  0  0  0  0
   -0.1646    3.5318   -1.5490 H   0  0  0  0  0  0  0  0  0  0  0  0
    0.2200    1.8074   -1.6300 H   0  0  0  0  0  0  0  0  0  0  0  0
    3.5119    3.3794   -0.2424 H   0  0  0  0  0  0  0  0  0  0  0  0
    2.9192    4.9125   -0.8822 H   0  0  0  0  0  0  0  0  0  0  0  0
    1.8946    3.7393   -2.6308 H   0  0  0  0  0  0  0  0  0  0  0  0
    2.5248    2.2402   -1.9431 H   0  0  0  0  0  0  0  0  0  0  0  0
    5.1155   -0.2792    1.8582 H   0  0  0  0  0  0  0  0  0  0  0  0
    6.4544   -2.0126    0.8924 H   0  0  0  0  0  0  0  0  0  0  0  0
    4.8574   -2.7099    1.1480 H   0  0  0  0  0  0  0  0  0  0  0  0
    5.0535    1.4307   -0.0206 H   0  0  0  0  0  0  0  0  0  0  0  0
    6.5787    0.5681    0.1637 H   0  0  0  0  0  0  0  0  0  0  0  0
    5.8168   -3.3194   -1.0470 H   0  0  0  0  0  0  0  0  0  0  0  0
    4.2953   -2.4437   -1.2350 H   0  0  0  0  0  0  0  0  0  0  0  0
    4.4165    0.0163   -1.9363 H   0  0  0  0  0  0  0  0  0  0  0  0
    6.0146    0.7176   -2.1859 H   0  0  0  0  0  0  0  0  0  0  0  0
    2.2410    1.4444    0.6905 H   0  0  0  0  0  0  0  0  0  0  0  0
    3.0206   -0.3643   -0.2126 H   0  0  0  0  0  0  0  0  0  0  0  0
    4.9914   -1.8030   -3.5519 H   0  0  0  0  0  0  0  0  0  0  0  0
    6.5751   -1.0268   -3.7702 H   0  0  0  0  0  0  0  0  0  0  0  0
    6.4941   -2.7158   -3.2929 H   0  0  0  0  0  0  0  0  0  0  0  0
    0.7491   -2.7879    2.0307 H   0  0  0  0  0  0  0  0  0  0  0  0
   -3.3874   -1.5829    0.8596 H   0  0  0  0  0  0  0  0  0  0  0  0
   -3.1690    0.7600   -0.7660 H   0  0  0  0  0  0  0  0  0  0  0  0
   -3.4399    1.2838    0.8875 H   0  0  0  0  0  0  0  0  0  0  0  0
   -5.5950    1.2343    1.8345 H   0  0  0  0  0  0  0  0  0  0  0  0
   -7.3141   -1.4351   -1.9739 H   0  0  0  0  0  0  0  0  0  0  0  0
   -8.0070    0.7764    1.5939 H   0  0  0  0  0  0  0  0  0  0  0  0
   -8.8386   -0.5623   -0.3206 H   0  0  0  0  0  0  0  0  0  0  0  0
   -4.3880   -2.1641   -3.6803 H   0  0  0  0  0  0  0  0  0  0  0  0
   -5.8876   -1.2458   -3.6507 H   0  0  0  0  0  0  0  0  0  0  0  0
   -5.6947   -2.7677   -2.6698 H   0  0  0  0  0  0  0  0  0  0  0  0
  1 22  2  0  0  0  0
  2 27  1  0  0  0  0
  2 32  1  0  0  0  0
  3 17  1  0  0  0  0
  3 18  1  0  0  0  0
  3 20  1  0  0  0  0
  4  9  1  0  0  0  0
  4 19  1  0  0  0  0
  4 51  1  0  0  0  0
  5 14  1  0  0  0  0
  5 22  1  0  0  0  0
  5 52  1  0  0  0  0
  6 19  2  0  0  0  0
  6 24  1  0  0  0  0
  7 23  1  0  0  0  0
  7 24  2  0  0  0  0
  8 24  1  0  0  0  0
  8 25  1  0  0  0  0
  8 57  1  0  0  0  0
  9 10  1  0  0  0  0
  9 11  1  0  0  0  0
  9 33  1  0  0  0  0
 10 12  1  0  0  0  0
 10 34  1  0  0  0  0
 10 35  1  0  0  0  0
 11 13  1  0  0  0  0
 11 36  1  0  0  0  0
 11 37  1  0  0  0  0
 12 13  1  0  0  0  0
 12 38  1  0  0  0  0
 12 39  1  0  0  0  0
 13 40  1  0  0  0  0
 13 41  1  0  0  0  0
 14 15  1  0  0  0  0
 14 16  1  0  0  0  0
 14 42  1  0  0  0  0
 15 17  1  0  0  0  0
 15 43  1  0  0  0  0
 15 44  1  0  0  0  0
 16 18  1  0  0  0  0
 16 45  1  0  0  0  0
 16 46  1  0  0  0  0
 17 47  1  0  0  0  0
 17 48  1  0  0  0  0
 18 49  1  0  0  0  0
 18 50  1  0  0  0  0
 19 21  1  0  0  0  0
 20 53  1  0  0  0  0
 20 54  1  0  0  0  0
 20 55  1  0  0  0  0
 21 22  1  0  0  0  0
 21 23  2  0  0  0  0
 23 56  1  0  0  0  0
 25 26  1  0  0  0  0
 25 58  1  0  0  0  0
 25 59  1  0  0  0  0
 26 27  1  0  0  0  0
 26 28  2  0  0  0  0
 27 29  2  0  0  0  0
 28 30  1  0  0  0  0
 28 60  1  0  0  0  0
 29 31  1  0  0  0  0
 29 61  1  0  0  0  0
 30 31  2  0  0  0  0
 30 62  1  0  0  0  0
 31 63  1  0  0  0  0
 32 64  1  0  0  0  0
 32 65  1  0  0  0  0
 32 66  1  0  0  0  0
M  END
> <PUBCHEM_COMPOUND_CID>
71553011

> <PUBCHEM_CONFORMER_RMSD>
1.2

> <PUBCHEM_CONFORMER_DIVERSEORDER>
1
15
58
89
36
54
86
67
72
94
80
96
24
51
77
68
25
109
106
85
82
108
52
70
43
90
99
87
101
65
62
50
37
95
64
48
69
13
88
105
74
100
30
21
104
59
44
57
97
45
78
102
84
103
46
56
83
42
93
23
7
76
110
60
41
98
40
20
10
66
32
33
71
73
14
17
34
91
31
79
81
35
63
22
9
39
111
61
75
12
27
38
8
6
55
47
92
29
49
26
5
16
18
107
3
28
4
19
53
2
11

> <PUBCHEM_MMFF94_PARTIAL_CHARGES>
34
1 -0.57
14 0.3
17 0.27
18 0.27
19 0.41
2 -0.36
20 0.27
21 0.09
22 0.54
23 0.16
24 0.72
25 0.51
26 -0.14
27 0.08
28 -0.15
29 -0.15
3 -0.81
30 -0.15
31 -0.15
32 0.28
4 -0.87
5 -0.73
51 0.4
52 0.37
56 0.15
57 0.4
6 -0.62
60 0.15
61 0.15
62 0.15
63 0.15
7 -0.62
8 -0.87
9 0.37

> <PUBCHEM_EFFECTIVE_ROTOR_COUNT>
11.2

> <PUBCHEM_PHARMACOPHORE_FEATURES>
11
1 1 acceptor
1 2 acceptor
1 3 cation
1 4 donor
1 5 donor
1 8 donor
4 6 7 8 24 cation
5 9 10 11 12 13 rings
6 26 27 28 29 30 31 rings
6 3 14 15 16 17 18 rings
6 6 7 19 21 23 24 rings

> <PUBCHEM_HEAVY_ATOM_COUNT>
32

> <PUBCHEM_ATOM_DEF_STEREO_COUNT>
0

> <PUBCHEM_ATOM_UDEF_STEREO_COUNT>
0

> <PUBCHEM_BOND_DEF_STEREO_COUNT>
0

> <PUBCHEM_BOND_UDEF_STEREO_COUNT>
0

> <PUBCHEM_ISOTOPIC_ATOM_COUNT>
0

> <PUBCHEM_COMPONENT_COUNT>
1

> <PUBCHEM_CACTVS_TAUTO_COUNT>
21

> <PUBCHEM_CONFORMER_ID>
0443CFF300000001

> <PUBCHEM_MMFF94_ENERGY>
92.8153

> <PUBCHEM_FEATURE_SELFOVERLAP>
55.822

> <PUBCHEM_SHAPE_FINGERPRINT>
10673678 19 15792030981996601462
10675989 125 18042410304005792796
10816530 90 17822575018752929588
11331351 85 18131350765521878353
11719270 70 11743838066817489617
12166972 35 18201718457711798729
12422481 6 12175620672549290740
12616971 3 18341319090304930817
12717326 69 14907322204600971877
13111901 137 16805315609054929869
13540713 4 17898300655829970632
1361 2 18342459253328977094
13782708 43 16630519618442375567
13899415 154 18114187414575727233
14068700 675 18202563947382486760
14289585 56 18190158153870929159
14295343 760 17488758778126927461
14537116 161 18259984859868786687
14565420 104 7997967951644688820
14739800 52 12107772004679828975
14931854 50 17822589230973084478
15183329 4 18113904857288363215
15328829 1 18201166477405330465
15352257 5 16988560195497259975
15475509 8 18341060613780974640
16090146 7 18130805476695433563
16994733 274 13984673584852109110
19319366 153 17167853150113088554
19377110 9 8502385433826303503
20642791 239 17314534654568695384
20775438 99 18267292317796387126
21641784 216 17677334892346819492
23559900 14 18336822100041431427
23569914 2 14348571337462818183
23569943 247 18055636114348539867
23576562 1 18041847337014082791
24771293 8 18268411586105121784
24771750 20 17534083018319342996
3534868 343 17824262592976258666
4093350 32 18060137691288205096
465052 167 14764347141637779850
5081480 168 18114175358834876533
513532 50 18270959171621006696
552612 73 17096380599413607339

> <PUBCHEM_SHAPE_MULTIPOLES>
616.92
19.33
3.54
2.5
22.63
4.64
1.29
-10.5
9.31
-4.85
1.12
-1.47
-1.63
-1.03

> <PUBCHEM_SHAPE_SELFOVERLAP>
1300.884

> <PUBCHEM_SHAPE_VOLUME>
344.1

> <PUBCHEM_COORDINATE_TYPE>
2
5
10

$$$$
