49830684
  -OEChem-10062121533D

 39 41  0     0  0  0  0  0  0999 V2000
    7.0902   -0.5910    0.0015 F   0  0  0  0  0  0  0  0  0  0  0  0
    5.5564   -1.6874    1.0846 F   0  0  0  0  0  0  0  0  0  0  0  0
    5.5582   -1.6874   -1.0842 F   0  0  0  0  0  0  0  0  0  0  0  0
   -7.1056    0.9864    0.0005 O   0  0  0  0  0  0  0  0  0  0  0  0
    1.1265   -1.2178   -0.0007 O   0  0  0  0  0  0  0  0  0  0  0  0
   -0.7327    0.2061    0.0000 N   0  0  0  0  0  0  0  0  0  0  0  0
   -3.8955   -2.5295    0.0000 N   0  0  0  0  0  0  0  0  0  0  0  0
    1.3898    1.1059   -0.0003 N   0  0  0  0  0  0  0  0  0  0  0  0
    3.5656    0.1467   -0.0008 N   0  0  0  0  0  0  0  0  0  0  0  0
   -3.1413   -0.2408    0.0000 C   0  0  0  0  0  0  0  0  0  0  0  0
   -1.8121   -0.6852    0.0001 C   0  0  0  0  0  0  0  0  0  0  0  0
   -4.1657   -1.2105    0.0002 C   0  0  0  0  0  0  0  0  0  0  0  0
   -3.4596    1.1279   -0.0002 C   0  0  0  0  0  0  0  0  0  0  0  0
   -5.4859   -0.7684    0.0005 C   0  0  0  0  0  0  0  0  0  0  0  0
   -1.5305   -2.0437   -0.0003 C   0  0  0  0  0  0  0  0  0  0  0  0
   -5.8026    0.5922    0.0003 C   0  0  0  0  0  0  0  0  0  0  0  0
   -4.7886    1.5418   -0.0003 C   0  0  0  0  0  0  0  0  0  0  0  0
   -2.5993   -2.9168   -0.0004 C   0  0  0  0  0  0  0  0  0  0  0  0
    0.6498   -0.0873   -0.0003 C   0  0  0  0  0  0  0  0  0  0  0  0
    2.7965    1.2584   -0.0005 C   0  0  0  0  0  0  0  0  0  0  0  0
    4.9034    0.3420   -0.0005 C   0  0  0  0  0  0  0  0  0  0  0  0
    3.2993    2.5495    0.0002 C   0  0  0  0  0  0  0  0  0  0  0  0
    5.5048    1.5903   -0.0001 C   0  0  0  0  0  0  0  0  0  0  0  0
    4.6804    2.7100    0.0003 C   0  0  0  0  0  0  0  0  0  0  0  0
    5.7571   -0.8820    0.0003 C   0  0  0  0  0  0  0  0  0  0  0  0
   -7.3588    2.3906    0.0001 C   0  0  0  0  0  0  0  0  0  0  0  0
   -2.7085    1.9109   -0.0005 H   0  0  0  0  0  0  0  0  0  0  0  0
   -6.2947   -1.4978    0.0008 H   0  0  0  0  0  0  0  0  0  0  0  0
   -0.5541   -2.4983   -0.0005 H   0  0  0  0  0  0  0  0  0  0  0  0
   -0.9489    1.1956    0.0003 H   0  0  0  0  0  0  0  0  0  0  0  0
   -4.9601    2.6126   -0.0006 H   0  0  0  0  0  0  0  0  0  0  0  0
   -2.4420   -3.9906   -0.0007 H   0  0  0  0  0  0  0  0  0  0  0  0
    0.8564    1.9717    0.0000 H   0  0  0  0  0  0  0  0  0  0  0  0
    2.6514    3.4201    0.0005 H   0  0  0  0  0  0  0  0  0  0  0  0
    6.5821    1.7147    0.0002 H   0  0  0  0  0  0  0  0  0  0  0  0
    5.1134    3.7058    0.0008 H   0  0  0  0  0  0  0  0  0  0  0  0
   -6.9784    2.8684    0.9093 H   0  0  0  0  0  0  0  0  0  0  0  0
   -6.9788    2.8678   -0.9097 H   0  0  0  0  0  0  0  0  0  0  0  0
   -8.4457    2.5230    0.0003 H   0  0  0  0  0  0  0  0  0  0  0  0
  1 25  1  0  0  0  0
  2 25  1  0  0  0  0
  3 25  1  0  0  0  0
  4 16  1  0  0  0  0
  4 26  1  0  0  0  0
  5 19  2  0  0  0  0
  6 11  1  0  0  0  0
  6 19  1  0  0  0  0
  6 30  1  0  0  0  0
  7 12  2  0  0  0  0
  7 18  1  0  0  0  0
  8 19  1  0  0  0  0
  8 20  1  0  0  0  0
  8 33  1  0  0  0  0
  9 20  1  0  0  0  0
  9 21  2  0  0  0  0
 10 11  2  0  0  0  0
 10 12  1  0  0  0  0
 10 13  1  0  0  0  0
 11 15  1  0  0  0  0
 12 14  1  0  0  0  0
 13 17  2  0  0  0  0
 13 27  1  0  0  0  0
 14 16  2  0  0  0  0
 14 28  1  0  0  0  0
 15 18  2  0  0  0  0
 15 29  1  0  0  0  0
 16 17  1  0  0  0  0
 17 31  1  0  0  0  0
 18 32  1  0  0  0  0
 20 22  2  0  0  0  0
 21 23  1  0  0  0  0
 21 25  1  0  0  0  0
 22 24  1  0  0  0  0
 22 34  1  0  0  0  0
 23 24  2  0  0  0  0
 23 35  1  0  0  0  0
 24 36  1  0  0  0  0
 26 37  1  0  0  0  0
 26 38  1  0  0  0  0
 26 39  1  0  0  0  0
M  END
> <PUBCHEM_COMPOUND_CID>
49830684

> <PUBCHEM_CONFORMER_RMSD>
0.8

> <PUBCHEM_CONFORMER_DIVERSEORDER>
1
29
28
20
33
5
13
11
34
12
6
9
27
7
19
2
10
18
3
31
14
22
17
32
4
36
30
35
24
16
23
15
25
26
8
21

> <PUBCHEM_MMFF94_PARTIAL_CHARGES>
35
1 -0.34
11 0.12
12 0.31
13 -0.15
14 -0.15
15 -0.15
16 0.08
17 -0.15
18 0.16
19 0.69
2 -0.34
20 0.43
21 0.17
22 -0.15
23 -0.15
24 -0.15
25 1.16
26 0.28
27 0.15
28 0.15
29 0.15
3 -0.34
30 0.37
31 0.15
32 0.15
33 0.37
34 0.15
35 0.15
36 0.15
4 -0.36
5 -0.57
6 -0.55
7 -0.62
8 -0.55
9 -0.62

> <PUBCHEM_EFFECTIVE_ROTOR_COUNT>
6

> <PUBCHEM_PHARMACOPHORE_FEATURES>
9
1 4 acceptor
1 5 acceptor
1 6 donor
1 7 acceptor
1 8 donor
1 9 acceptor
6 10 12 13 14 16 17 rings
6 7 10 11 12 15 18 rings
6 9 20 21 22 23 24 rings

> <PUBCHEM_HEAVY_ATOM_COUNT>
26

> <PUBCHEM_ATOM_DEF_STEREO_COUNT>
0

> <PUBCHEM_ATOM_UDEF_STEREO_COUNT>
0

> <PUBCHEM_BOND_DEF_STEREO_COUNT>
0

> <PUBCHEM_BOND_UDEF_STEREO_COUNT>
0

> <PUBCHEM_ISOTOPIC_ATOM_COUNT>
0

> <PUBCHEM_COMPONENT_COUNT>
1

> <PUBCHEM_CACTVS_TAUTO_COUNT>
11

> <PUBCHEM_CONFORMER_ID>
02F85B1C00000001

> <PUBCHEM_MMFF94_ENERGY>
83.6316

> <PUBCHEM_FEATURE_SELFOVERLAP>
45.757

> <PUBCHEM_SHAPE_FINGERPRINT>
10411042 1 17689999355972638823
10595046 47 18193556902925435156
10835480 77 18271802484070297552
11315181 36 17489872656678219243
11405975 8 18410009979031727122
11719270 70 17846779585605181486
11796584 16 18342459266235166130
12107183 9 18336821979618784090
12236239 1 18260828228416330905
13073987 5 18265051508239282498
13167372 99 18412827975541414977
13167823 11 18337951311357801330
13785724 45 18124598579418050958
14117953 113 18201443524439927622
14257110 125 18410292489834261521
14341114 176 18336831982249742156
14904525 67 15430031076090859878
14933364 13 18408325509648078549
15183329 4 18341899575808156936
15196674 1 18338799021457541984
15419008 42 18057040199127687532
1577012 14 18411699923808321885
17844677 252 18338242668906307200
1813 80 16877937282817817716
18335252 114 18412254018056462013
19611394 137 17969518164020533745
20281389 69 18335421279341612385
21033648 29 17916011537664834384
21065198 57 18267021850350954744
21236236 1 18340768256238181679
21279426 13 18412266133615196398
21315764 268 18336823190678956653
21585482 111 18047472228545363605
21774942 28 17273987839437950665
21859007 373 17968933068604278781
23559900 14 18343297089209227112
23569943 247 17314212385449432594
249057 3 18411138030464133204
2838139 119 18412539904212193693
3004659 81 18409168823099175944
3103668 31 18043529400484031060
335352 9 18410855455870293581
350125 39 18335980878814198497
3545911 37 18410012131000337197
4073 2 18042126625688701626
4144715 1 18116723008880493537
4214541 1 18410574023822052516
5104073 3 18338234972208823530
531348 171 18201999971522790111
559249 180 18411698794279512611
59755656 215 18411140190706141262
59755656 520 18334852819208816711
6299153 45 18339082575425459689
633830 44 17677328450053649922
9965369 4 18410854348000677193
9995097 60 18413389843299980934
9996256 80 18339923818043501959

> <PUBCHEM_SHAPE_MULTIPOLES>
481.58
19.92
2.93
0.65
2.86
0.13
0
-5.97
0
-0.68
0
0.31
0.1
0

> <PUBCHEM_SHAPE_SELFOVERLAP>
1055.18

> <PUBCHEM_SHAPE_VOLUME>
260.2

> <PUBCHEM_COORDINATE_TYPE>
2
5
10

$$$$
