49830759
  -OEChem-10052120443D

 44 47  0     0  0  0  0  0  0999 V2000
   -0.3251   -3.4026   -0.2134 S   0  0  0  0  0  0  0  0  0  0  0  0
    2.5432   -2.9560    0.1423 O   0  0  0  0  0  0  0  0  0  0  0  0
    4.8437    2.1196   -0.3310 N   0  0  0  0  0  0  0  0  0  0  0  0
    2.5721   -0.6609    0.4713 N   0  0  0  0  0  0  0  0  0  0  0  0
   -3.7209   -1.7655   -0.3707 N   0  0  0  0  0  0  0  0  0  0  0  0
   -2.9616   -2.9083   -0.4388 N   0  0  0  0  0  0  0  0  0  0  0  0
    4.0041   -0.5312    0.6217 C   0  0  0  0  0  0  0  0  0  0  0  0
    4.6845   -0.3182   -0.7325 C   0  0  0  0  0  0  0  0  0  0  0  0
    4.3577    0.6142    1.5733 C   0  0  0  0  0  0  0  0  0  0  0  0
    4.4323    1.0862   -1.2905 C   0  0  0  0  0  0  0  0  0  0  0  0
    4.1162    1.9873    0.9383 C   0  0  0  0  0  0  0  0  0  0  0  0
    4.6454    3.4532   -0.8982 C   0  0  0  0  0  0  0  0  0  0  0  0
    1.9572   -1.8810    0.2412 C   0  0  0  0  0  0  0  0  0  0  0  0
    0.4807   -1.8421    0.0832 C   0  0  0  0  0  0  0  0  0  0  0  0
   -1.7066   -1.0600   -0.0543 C   0  0  0  0  0  0  0  0  0  0  0  0
   -0.3531   -0.7087    0.1419 C   0  0  0  0  0  0  0  0  0  0  0  0
   -1.7682   -2.4276   -0.2431 C   0  0  0  0  0  0  0  0  0  0  0  0
   -2.9795   -0.6078   -0.1349 C   0  0  0  0  0  0  0  0  0  0  0  0
   -3.5670    0.6997   -0.0246 C   0  0  0  0  0  0  0  0  0  0  0  0
   -2.8380    1.8261   -0.4056 C   0  0  0  0  0  0  0  0  0  0  0  0
   -4.8659    0.8416    0.4633 C   0  0  0  0  0  0  0  0  0  0  0  0
   -3.4080    3.0948   -0.2986 C   0  0  0  0  0  0  0  0  0  0  0  0
   -5.4360    2.1102    0.5703 C   0  0  0  0  0  0  0  0  0  0  0  0
   -4.7070    3.2368    0.1894 C   0  0  0  0  0  0  0  0  0  0  0  0
    4.3756   -1.4687    1.0537 H   0  0  0  0  0  0  0  0  0  0  0  0
    5.7665   -0.4637   -0.6150 H   0  0  0  0  0  0  0  0  0  0  0  0
    4.3425   -1.0649   -1.4592 H   0  0  0  0  0  0  0  0  0  0  0  0
    3.7771    0.5341    2.5003 H   0  0  0  0  0  0  0  0  0  0  0  0
    5.4164    0.5333    1.8529 H   0  0  0  0  0  0  0  0  0  0  0  0
    5.0105    1.1912   -2.2168 H   0  0  0  0  0  0  0  0  0  0  0  0
    3.3730    1.1971   -1.5568 H   0  0  0  0  0  0  0  0  0  0  0  0
    3.0412    2.1557    0.7950 H   0  0  0  0  0  0  0  0  0  0  0  0
    4.4673    2.7504    1.6439 H   0  0  0  0  0  0  0  0  0  0  0  0
    2.0236    0.1910    0.4862 H   0  0  0  0  0  0  0  0  0  0  0  0
    3.5926    3.6530   -1.1287 H   0  0  0  0  0  0  0  0  0  0  0  0
    4.9987    4.2234   -0.2036 H   0  0  0  0  0  0  0  0  0  0  0  0
    5.2283    3.5706   -1.8185 H   0  0  0  0  0  0  0  0  0  0  0  0
   -0.0052    0.3003    0.3174 H   0  0  0  0  0  0  0  0  0  0  0  0
   -4.7216   -1.8506   -0.5005 H   0  0  0  0  0  0  0  0  0  0  0  0
   -1.8286    1.7457   -0.8001 H   0  0  0  0  0  0  0  0  0  0  0  0
   -5.4556   -0.0157    0.7781 H   0  0  0  0  0  0  0  0  0  0  0  0
   -2.8416    3.9720   -0.5975 H   0  0  0  0  0  0  0  0  0  0  0  0
   -6.4466    2.2214    0.9524 H   0  0  0  0  0  0  0  0  0  0  0  0
   -5.1509    4.2245    0.2727 H   0  0  0  0  0  0  0  0  0  0  0  0
  1 14  1  0  0  0  0
  1 17  1  0  0  0  0
  2 13  2  0  0  0  0
  3 10  1  0  0  0  0
  3 11  1  0  0  0  0
  3 12  1  0  0  0  0
  4  7  1  0  0  0  0
  4 13  1  0  0  0  0
  4 34  1  0  0  0  0
  5  6  1  0  0  0  0
  5 18  1  0  0  0  0
  5 39  1  0  0  0  0
  6 17  2  0  0  0  0
  7  8  1  0  0  0  0
  7  9  1  0  0  0  0
  7 25  1  0  0  0  0
  8 10  1  0  0  0  0
  8 26  1  0  0  0  0
  8 27  1  0  0  0  0
  9 11  1  0  0  0  0
  9 28  1  0  0  0  0
  9 29  1  0  0  0  0
 10 30  1  0  0  0  0
 10 31  1  0  0  0  0
 11 32  1  0  0  0  0
 11 33  1  0  0  0  0
 12 35  1  0  0  0  0
 12 36  1  0  0  0  0
 12 37  1  0  0  0  0
 13 14  1  0  0  0  0
 14 16  2  0  0  0  0
 15 16  1  0  0  0  0
 15 17  1  0  0  0  0
 15 18  2  0  0  0  0
 16 38  1  0  0  0  0
 18 19  1  0  0  0  0
 19 20  2  0  0  0  0
 19 21  1  0  0  0  0
 20 22  1  0  0  0  0
 20 40  1  0  0  0  0
 21 23  2  0  0  0  0
 21 41  1  0  0  0  0
 22 24  2  0  0  0  0
 22 42  1  0  0  0  0
 23 24  1  0  0  0  0
 23 43  1  0  0  0  0
 24 44  1  0  0  0  0
M  END
> <PUBCHEM_COMPOUND_CID>
49830759

> <PUBCHEM_CONFORMER_RMSD>
0.8

> <PUBCHEM_CONFORMER_DIVERSEORDER>
1
22
8
18
4
15
7
2
12
11
23
21
3
13
19
6
26
25
9
14
17
5
20
16
24
10

> <PUBCHEM_MMFF94_PARTIAL_CHARGES>
30
1 -0.11
10 0.27
11 0.27
12 0.27
13 0.71
14 -0.05
15 -0.01
16 -0.15
17 0.39
18 -0.2
19 0.05
2 -0.57
20 -0.15
21 -0.15
22 -0.15
23 -0.15
24 -0.15
3 -0.81
34 0.37
38 0.15
39 0.27
4 -0.73
40 0.15
41 0.15
42 0.15
43 0.15
44 0.15
5 0.3
6 -0.73
7 0.3

> <PUBCHEM_EFFECTIVE_ROTOR_COUNT>
5.2

> <PUBCHEM_PHARMACOPHORE_FEATURES>
9
1 2 acceptor
1 3 cation
1 4 donor
1 5 donor
1 6 acceptor
5 1 14 15 16 17 rings
5 5 6 15 17 18 rings
6 19 20 21 22 23 24 rings
6 3 7 8 9 10 11 rings

> <PUBCHEM_HEAVY_ATOM_COUNT>
24

> <PUBCHEM_ATOM_DEF_STEREO_COUNT>
0

> <PUBCHEM_ATOM_UDEF_STEREO_COUNT>
0

> <PUBCHEM_BOND_DEF_STEREO_COUNT>
0

> <PUBCHEM_BOND_UDEF_STEREO_COUNT>
0

> <PUBCHEM_ISOTOPIC_ATOM_COUNT>
0

> <PUBCHEM_COMPONENT_COUNT>
1

> <PUBCHEM_CACTVS_TAUTO_COUNT>
7

> <PUBCHEM_CONFORMER_ID>
02F85B6700000001

> <PUBCHEM_MMFF94_ENERGY>
72.9461

> <PUBCHEM_FEATURE_SELFOVERLAP>
45.938

> <PUBCHEM_SHAPE_FINGERPRINT>
10498660 4 18273217525601732536
10615611 76 17677623114716963764
10670039 82 18336269050177654628
10871710 139 18339641269324844215
10937287 8 18410853239804636835
11059048 146 18056211163087307040
11070050 100 16660936456568172570
11595378 159 16732980865014472012
11720765 8 17774169977475747798
12107183 9 18263631876162950538
12173636 292 18340196479262304278
12390115 104 18272381853946961315
12422481 6 17385723535124756293
12596602 18 17240479247475486809
12925494 130 17761207718352874985
12978246 48 18336546019037969328
13617811 41 18122047965532678319
14251764 38 18338234989637021132
14251764 75 18341905039186354169
14429114 114 18195245744328503656
14468879 13 18334583421147282523
1454969 45 18412544311212252679
14739800 52 18050270764514626072
14790565 3 18268153067733791265
14840074 17 17749399164879668285
14848178 96 18340201890936460008
14932702 115 18131350829893627696
14950920 106 17022895718617904512
15142526 21 18113622274305192163
16760501 71 18409455756710781881
17810953 82 18337955567306505184
17834072 32 18411138013152226249
17868525 174 17974277730191935882
17959699 21 18412546504970090706
20715895 44 18196363719629691257
21302155 148 18409451388285969057
21315764 268 18044935671691908941
21734292 116 18410293652800247148
21864079 5 18335139847308897158
23227448 37 18413105061287928277
23559900 14 17987514819314084278
245318 6 18041579008220518300
325973 47 17543342757293655804
338550 245 18334860519763769252
3472631 163 18413393111790926231
5104073 3 18187359939512004570
550186 72 18410011036280192125
6034566 193 18339379546628629305
6201320 77 13397497083210388597
633830 44 18410289242338261446
7064713 232 18408036308225578340
7288768 16 17967255308064638643
7808743 9 18411134757561760882

> <PUBCHEM_SHAPE_MULTIPOLES>
471.96
13.1
4.7
0.97
2.69
0.3
0.09
12.56
0.39
-1.35
-0.68
1.12
0.36
-1.1

> <PUBCHEM_SHAPE_SELFOVERLAP>
1015.195

> <PUBCHEM_SHAPE_VOLUME>
263.7

> <PUBCHEM_COORDINATE_TYPE>
2
5
10

$$$$
