16050450
  -OEChem-10062121533D

 53 56  0     0  0  0  0  0  0999 V2000
    0.2877    1.5445    2.0394 F   0  0  0  0  0  0  0  0  0  0  0  0
    0.5823    5.8347    0.0730 F   0  0  0  0  0  0  0  0  0  0  0  0
   -5.1375    1.2183    1.3131 O   0  0  0  0  0  0  0  0  0  0  0  0
   -3.2921   -0.8793   -0.8188 N   0  0  0  0  0  0  0  0  0  0  0  0
    2.1008   -1.6761   -0.2202 N   0  0  0  0  0  0  0  0  0  0  0  0
   -0.9548   -0.7113   -0.6979 N   0  0  0  0  0  0  0  0  0  0  0  0
    3.1399   -0.0043    0.8321 N   0  0  0  0  0  0  0  0  0  0  0  0
   -2.1010   -0.5262   -2.8096 N   0  0  0  0  0  0  0  0  0  0  0  0
    3.9249   -3.5533    0.7320 N   0  0  0  0  0  0  0  0  0  0  0  0
   -4.9019   -1.2012    1.0430 C   0  0  0  0  0  0  0  0  0  0  0  0
   -3.4219   -1.0753    0.6070 C   0  0  0  0  0  0  0  0  0  0  0  0
   -5.7122    0.0696    0.7030 C   0  0  0  0  0  0  0  0  0  0  0  0
   -5.5659   -2.4127    0.3626 C   0  0  0  0  0  0  0  0  0  0  0  0
   -4.9258   -1.4274    2.5692 C   0  0  0  0  0  0  0  0  0  0  0  0
    1.3823   -0.5504   -0.5234 C   0  0  0  0  0  0  0  0  0  0  0  0
   -2.0786   -0.7001   -1.4619 C   0  0  0  0  0  0  0  0  0  0  0  0
    2.0473    0.4660    0.1400 C   0  0  0  0  0  0  0  0  0  0  0  0
    0.2094   -0.5338   -1.3565 C   0  0  0  0  0  0  0  0  0  0  0  0
    3.1395   -1.2939    0.5920 C   0  0  0  0  0  0  0  0  0  0  0  0
    1.6682    1.8473    0.1261 C   0  0  0  0  0  0  0  0  0  0  0  0
    4.0642   -2.2963    1.0651 C   0  0  0  0  0  0  0  0  0  0  0  0
    1.9557   -3.0049   -0.5707 C   0  0  0  0  0  0  0  0  0  0  0  0
    0.2979   -0.3489   -2.7210 C   0  0  0  0  0  0  0  0  0  0  0  0
   -0.9017   -0.3544   -3.4033 C   0  0  0  0  0  0  0  0  0  0  0  0
    2.8563   -3.8841   -0.0917 C   0  0  0  0  0  0  0  0  0  0  0  0
    0.7889    2.3476    1.0894 C   0  0  0  0  0  0  0  0  0  0  0  0
    2.1791    2.7002   -0.8551 C   0  0  0  0  0  0  0  0  0  0  0  0
    5.1992   -1.8762    1.9546 C   0  0  0  0  0  0  0  0  0  0  0  0
    0.4224    3.6935    1.0713 C   0  0  0  0  0  0  0  0  0  0  0  0
    1.8127    4.0459   -0.8731 C   0  0  0  0  0  0  0  0  0  0  0  0
    0.9343    4.5426    0.0902 C   0  0  0  0  0  0  0  0  0  0  0  0
   -2.8789   -1.9846    0.8961 H   0  0  0  0  0  0  0  0  0  0  0  0
   -2.9496   -0.2381    1.1365 H   0  0  0  0  0  0  0  0  0  0  0  0
   -6.7501   -0.0163    1.0452 H   0  0  0  0  0  0  0  0  0  0  0  0
   -5.7448    0.2490   -0.3762 H   0  0  0  0  0  0  0  0  0  0  0  0
   -6.5809   -2.5692    0.7461 H   0  0  0  0  0  0  0  0  0  0  0  0
   -4.9974   -3.3309    0.5483 H   0  0  0  0  0  0  0  0  0  0  0  0
   -5.6469   -2.2828   -0.7215 H   0  0  0  0  0  0  0  0  0  0  0  0
   -4.4407   -2.3745    2.8326 H   0  0  0  0  0  0  0  0  0  0  0  0
   -5.9535   -1.4665    2.9475 H   0  0  0  0  0  0  0  0  0  0  0  0
   -4.3990   -0.6328    3.1084 H   0  0  0  0  0  0  0  0  0  0  0  0
   -4.1159   -0.8660   -1.4078 H   0  0  0  0  0  0  0  0  0  0  0  0
   -5.3366    1.1810    2.2635 H   0  0  0  0  0  0  0  0  0  0  0  0
    1.1319   -3.2932   -1.2111 H   0  0  0  0  0  0  0  0  0  0  0  0
    1.2397   -0.2072   -3.2365 H   0  0  0  0  0  0  0  0  0  0  0  0
   -0.9324   -0.2164   -4.4787 H   0  0  0  0  0  0  0  0  0  0  0  0
    2.7741   -4.9356   -0.3455 H   0  0  0  0  0  0  0  0  0  0  0  0
    2.8648    2.3295   -1.6136 H   0  0  0  0  0  0  0  0  0  0  0  0
    4.8023   -1.4189    2.8655 H   0  0  0  0  0  0  0  0  0  0  0  0
    5.8253   -1.1472    1.4321 H   0  0  0  0  0  0  0  0  0  0  0  0
    5.8118   -2.7397    2.2281 H   0  0  0  0  0  0  0  0  0  0  0  0
   -0.2616    4.0800    1.8209 H   0  0  0  0  0  0  0  0  0  0  0  0
    2.2108    4.7074   -1.6368 H   0  0  0  0  0  0  0  0  0  0  0  0
  1 26  1  0  0  0  0
  2 31  1  0  0  0  0
  3 12  1  0  0  0  0
  3 43  1  0  0  0  0
  4 11  1  0  0  0  0
  4 16  1  0  0  0  0
  4 42  1  0  0  0  0
  5 15  1  0  0  0  0
  5 19  1  0  0  0  0
  5 22  1  0  0  0  0
  6 16  1  0  0  0  0
  6 18  2  0  0  0  0
  7 17  1  0  0  0  0
  7 19  2  0  0  0  0
  8 16  2  0  0  0  0
  8 24  1  0  0  0  0
  9 21  2  0  0  0  0
  9 25  1  0  0  0  0
 10 11  1  0  0  0  0
 10 12  1  0  0  0  0
 10 13  1  0  0  0  0
 10 14  1  0  0  0  0
 11 32  1  0  0  0  0
 11 33  1  0  0  0  0
 12 34  1  0  0  0  0
 12 35  1  0  0  0  0
 13 36  1  0  0  0  0
 13 37  1  0  0  0  0
 13 38  1  0  0  0  0
 14 39  1  0  0  0  0
 14 40  1  0  0  0  0
 14 41  1  0  0  0  0
 15 17  2  0  0  0  0
 15 18  1  0  0  0  0
 17 20  1  0  0  0  0
 18 23  1  0  0  0  0
 19 21  1  0  0  0  0
 20 26  2  0  0  0  0
 20 27  1  0  0  0  0
 21 28  1  0  0  0  0
 22 25  2  0  0  0  0
 22 44  1  0  0  0  0
 23 24  2  0  0  0  0
 23 45  1  0  0  0  0
 24 46  1  0  0  0  0
 25 47  1  0  0  0  0
 26 29  1  0  0  0  0
 27 30  2  0  0  0  0
 27 48  1  0  0  0  0
 28 49  1  0  0  0  0
 28 50  1  0  0  0  0
 28 51  1  0  0  0  0
 29 31  2  0  0  0  0
 29 52  1  0  0  0  0
 30 31  1  0  0  0  0
 30 53  1  0  0  0  0
M  END
> <PUBCHEM_COMPOUND_CID>
16050450

> <PUBCHEM_CONFORMER_RMSD>
0.8

> <PUBCHEM_CONFORMER_DIVERSEORDER>
1
226
87
83
202
22
198
139
50
40
168
199
232
243
72
14
20
48
222
179
26
24
173
47
71
68
34
91
142
236
66
85
183
53
21
249
185
209
151
144
10
145
116
196
161
59
268
54
223
60
234
260
227
46
235
245
62
219
264
25
67
55
73
136
79
204
197
70
203
143
101
11
93
69
118
157
52
253
257
95
13
160
155
113
125
132
254
75
43
217
241
112
256
233
106
263
224
262
265
146
154
104
18
103
213
206
56
147
49
250
133
31
57
258
114
244
216
107
97
58
248
111
246
8
89
134
247
149
86
119
64
163
33
44
37
90
96
120
17
148
99
239
19
180
105
35
229
186
270
225
207
9
165
172
169
238
251
94
231
117
193
51
220
208
162
23
39
266
205
98
150
84
170
45
228
188
81
259
76
211
135
63
171
153
201
230
41
178
156
158
252
65
82
27
167
210
182
242
255
129
191
137
212
36
189
164
190
131
28
42
267
140
128
200
166
187
108
269
174
177
159
130
77
124
12
237
194
102
184
38
218
61
92
3
100
109
215
240
214
123
88
110
192
74
15
175
4
32
127
16
181
29
176
122
30
138
115
221
195
261
141
152
121
126
7
80
2
78
5
6

> <PUBCHEM_MMFF94_PARTIAL_CHARGES>
37
1 -0.19
11 0.37
12 0.28
15 -0.2
16 0.72
17 0.17
18 0.36
19 0.1
2 -0.19
20 0.05
21 0.47
22 -0.18
23 -0.15
24 0.16
25 0.02
26 0.19
27 -0.15
28 0.06
29 -0.15
3 -0.68
30 -0.15
31 0.19
4 -0.87
42 0.4
43 0.4
44 0.15
45 0.15
46 0.15
47 0.15
48 0.15
5 0.33
52 0.15
53 0.15
6 -0.62
7 -0.57
8 -0.62
9 -0.62

> <PUBCHEM_EFFECTIVE_ROTOR_COUNT>
6

> <PUBCHEM_PHARMACOPHORE_FEATURES>
12
1 3 acceptor
1 3 donor
1 4 donor
1 6 acceptor
1 9 acceptor
3 10 13 14 hydrophobe
3 5 7 19 cation
4 4 6 8 16 cation
5 5 7 15 17 19 rings
6 20 26 27 29 30 31 rings
6 5 9 19 21 22 25 rings
6 6 8 16 18 23 24 rings

> <PUBCHEM_HEAVY_ATOM_COUNT>
31

> <PUBCHEM_ATOM_DEF_STEREO_COUNT>
0

> <PUBCHEM_ATOM_UDEF_STEREO_COUNT>
0

> <PUBCHEM_BOND_DEF_STEREO_COUNT>
0

> <PUBCHEM_BOND_UDEF_STEREO_COUNT>
0

> <PUBCHEM_ISOTOPIC_ATOM_COUNT>
0

> <PUBCHEM_COMPONENT_COUNT>
1

> <PUBCHEM_CACTVS_TAUTO_COUNT>
3

> <PUBCHEM_CONFORMER_ID>
00F4E91200000001

> <PUBCHEM_MMFF94_ENERGY>
91.0084

> <PUBCHEM_FEATURE_SELFOVERLAP>
61.014

> <PUBCHEM_SHAPE_FINGERPRINT>
10074138 170 17471552353449780144
10165383 225 17754742954926412452
10190108 129 18270132218976381890
12160290 23 17554888767941156844
12293681 4 18047741607838055501
12422481 6 17487902198581441179
12633257 1 18413106190843942599
13135754 10 17836652924810687894
13583140 156 18410291441614335015
13965767 371 16988560148031060134
14950920 106 18338519754933285603
14955137 171 18338233886136030346
15142526 21 17548422956654384705
15475509 84 18263651658365584037
15842332 3 17771894189426137631
17868525 174 18410856538761429057
19319366 153 17838901782540178689
20739085 24 18341889714821520024
21344244 78 18272365378125223787
21756936 100 17335908257963030228
21860390 5 18272101503950995255
23559900 14 17240759619020525407
23845131 108 17687460582568510723
3380486 145 18054472921287041046
350125 39 17182185542284815156
3552219 110 17896902984127215374
44802255 64 11885961082317002344
484985 159 17249767655219363194
513202 73 17840594699766484414
6009941 240 17897715462346443589
6086070 43 18413105065989149607
621550 5 17894628115252717318
6442390 28 17470733676590026812
6703917 75 17179701757896896796
6786 2 17541673046197084668
7097593 13 18342734135225160751
7288768 16 17189253232497513461

> <PUBCHEM_SHAPE_MULTIPOLES>
587.66
9.93
5.87
2.45
15.44
7.5
1.62
-9.06
-7.12
-7.07
-1.33
1.37
-0.52
-0.88

> <PUBCHEM_SHAPE_SELFOVERLAP>
1285.278

> <PUBCHEM_SHAPE_VOLUME>
321.7

> <PUBCHEM_COORDINATE_TYPE>
2
5
10

$$$$
