11604142
  -OEChem-10052115173D

 60 64  0     0  0  0  0  0  0999 V2000
    9.0404   -2.0257    0.3239 O   0  0  0  0  0  0  0  0  0  0  0  0
    6.6527   -0.5216   -0.0474 N   0  0  0  0  0  0  0  0  0  0  0  0
   -2.8113    2.4189    0.0395 N   0  0  0  0  0  0  0  0  0  0  0  0
   -3.8960    0.2823    0.0066 N   0  0  0  0  0  0  0  0  0  0  0  0
   -5.1379    2.1969    0.1644 N   0  0  0  0  0  0  0  0  0  0  0  0
   -5.2091    0.0148    0.0710 N   0  0  0  0  0  0  0  0  0  0  0  0
   -7.2906    1.1152    0.2409 N   0  0  0  0  0  0  0  0  0  0  0  0
   -6.9996   -1.4992    0.1079 N   0  0  0  0  0  0  0  0  0  0  0  0
    5.2118   -0.3222    0.0934 C   0  0  0  0  0  0  0  0  0  0  0  0
    2.7841    1.3221   -0.3406 C   0  0  0  0  0  0  0  0  0  0  0  0
    4.5649   -0.2115   -1.2912 C   0  0  0  0  0  0  0  0  0  0  0  0
    4.9400    0.9302    0.9332 C   0  0  0  0  0  0  0  0  0  0  0  0
    3.0650    0.0673   -1.1854 C   0  0  0  0  0  0  0  0  0  0  0  0
    3.4412    1.2113    1.0461 C   0  0  0  0  0  0  0  0  0  0  0  0
    7.2954   -0.6307    1.2696 C   0  0  0  0  0  0  0  0  0  0  0  0
    6.9379   -1.7207   -0.8477 C   0  0  0  0  0  0  0  0  0  0  0  0
    1.2978    1.6137   -0.2395 C   0  0  0  0  0  0  0  0  0  0  0  0
    8.7957   -0.8500    1.0967 C   0  0  0  0  0  0  0  0  0  0  0  0
    8.4465   -1.9153   -0.9701 C   0  0  0  0  0  0  0  0  0  0  0  0
    0.7861    2.7995   -0.7614 C   0  0  0  0  0  0  0  0  0  0  0  0
    0.4510    0.6940    0.3747 C   0  0  0  0  0  0  0  0  0  0  0  0
   -0.5796    3.0674   -0.6682 C   0  0  0  0  0  0  0  0  0  0  0  0
   -0.9148    0.9616    0.4678 C   0  0  0  0  0  0  0  0  0  0  0  0
   -1.4301    2.1485   -0.0535 C   0  0  0  0  0  0  0  0  0  0  0  0
   -3.9465    1.5859    0.0681 C   0  0  0  0  0  0  0  0  0  0  0  0
   -5.9403    1.1578    0.1648 C   0  0  0  0  0  0  0  0  0  0  0  0
   -5.6676   -1.3008    0.0386 C   0  0  0  0  0  0  0  0  0  0  0  0
   -4.7283   -2.3099   -0.0613 C   0  0  0  0  0  0  0  0  0  0  0  0
   -5.1906   -3.6208   -0.0925 C   0  0  0  0  0  0  0  0  0  0  0  0
   -7.4115   -2.7865    0.0750 C   0  0  0  0  0  0  0  0  0  0  0  0
   -6.5565   -3.8723   -0.0234 C   0  0  0  0  0  0  0  0  0  0  0  0
    4.7641   -1.1834    0.6110 H   0  0  0  0  0  0  0  0  0  0  0  0
    3.2617    2.1686   -0.8551 H   0  0  0  0  0  0  0  0  0  0  0  0
    5.0415    0.5851   -1.8773 H   0  0  0  0  0  0  0  0  0  0  0  0
    4.6502   -1.1391   -1.8653 H   0  0  0  0  0  0  0  0  0  0  0  0
    5.2959    0.8258    1.9627 H   0  0  0  0  0  0  0  0  0  0  0  0
    5.4414    1.8040    0.4969 H   0  0  0  0  0  0  0  0  0  0  0  0
    2.5728   -0.8124   -0.7516 H   0  0  0  0  0  0  0  0  0  0  0  0
    2.6476    0.1926   -2.1925 H   0  0  0  0  0  0  0  0  0  0  0  0
    3.2879    2.1409    1.6085 H   0  0  0  0  0  0  0  0  0  0  0  0
    2.9758    0.4107    1.6350 H   0  0  0  0  0  0  0  0  0  0  0  0
    6.8653   -1.4620    1.8427 H   0  0  0  0  0  0  0  0  0  0  0  0
    7.2045    0.2858    1.8578 H   0  0  0  0  0  0  0  0  0  0  0  0
    6.5741   -1.6357   -1.8746 H   0  0  0  0  0  0  0  0  0  0  0  0
    6.4882   -2.6095   -0.3867 H   0  0  0  0  0  0  0  0  0  0  0  0
    9.2789    0.0101    0.6170 H   0  0  0  0  0  0  0  0  0  0  0  0
    9.2677   -0.9916    2.0744 H   0  0  0  0  0  0  0  0  0  0  0  0
    8.6608   -2.8414   -1.5134 H   0  0  0  0  0  0  0  0  0  0  0  0
    8.9184   -1.0916   -1.5199 H   0  0  0  0  0  0  0  0  0  0  0  0
    1.4357    3.5250   -1.2434 H   0  0  0  0  0  0  0  0  0  0  0  0
    0.8317   -0.2335    0.7929 H   0  0  0  0  0  0  0  0  0  0  0  0
   -0.9684    3.9953   -1.0800 H   0  0  0  0  0  0  0  0  0  0  0  0
   -1.5405    0.2366    0.9786 H   0  0  0  0  0  0  0  0  0  0  0  0
   -3.0037    3.4171   -0.0241 H   0  0  0  0  0  0  0  0  0  0  0  0
   -7.8291    0.2560    0.2339 H   0  0  0  0  0  0  0  0  0  0  0  0
   -7.8373    1.9677    0.3107 H   0  0  0  0  0  0  0  0  0  0  0  0
   -3.6581   -2.1419   -0.1163 H   0  0  0  0  0  0  0  0  0  0  0  0
   -4.4884   -4.4455   -0.1702 H   0  0  0  0  0  0  0  0  0  0  0  0
   -8.4856   -2.9286    0.1318 H   0  0  0  0  0  0  0  0  0  0  0  0
   -6.9395   -4.8860   -0.0459 H   0  0  0  0  0  0  0  0  0  0  0  0
  1 18  1  0  0  0  0
  1 19  1  0  0  0  0
  2  9  1  0  0  0  0
  2 15  1  0  0  0  0
  2 16  1  0  0  0  0
  3 24  1  0  0  0  0
  3 25  1  0  0  0  0
  3 54  1  0  0  0  0
  4  6  1  0  0  0  0
  4 25  2  0  0  0  0
  5 25  1  0  0  0  0
  5 26  2  0  0  0  0
  6 26  1  0  0  0  0
  6 27  1  0  0  0  0
  7 26  1  0  0  0  0
  7 55  1  0  0  0  0
  7 56  1  0  0  0  0
  8 27  1  0  0  0  0
  8 30  2  0  0  0  0
  9 11  1  0  0  0  0
  9 12  1  0  0  0  0
  9 32  1  0  0  0  0
 10 13  1  0  0  0  0
 10 14  1  0  0  0  0
 10 17  1  0  0  0  0
 10 33  1  0  0  0  0
 11 13  1  0  0  0  0
 11 34  1  0  0  0  0
 11 35  1  0  0  0  0
 12 14  1  0  0  0  0
 12 36  1  0  0  0  0
 12 37  1  0  0  0  0
 13 38  1  0  0  0  0
 13 39  1  0  0  0  0
 14 40  1  0  0  0  0
 14 41  1  0  0  0  0
 15 18  1  0  0  0  0
 15 42  1  0  0  0  0
 15 43  1  0  0  0  0
 16 19  1  0  0  0  0
 16 44  1  0  0  0  0
 16 45  1  0  0  0  0
 17 20  2  0  0  0  0
 17 21  1  0  0  0  0
 18 46  1  0  0  0  0
 18 47  1  0  0  0  0
 19 48  1  0  0  0  0
 19 49  1  0  0  0  0
 20 22  1  0  0  0  0
 20 50  1  0  0  0  0
 21 23  2  0  0  0  0
 21 51  1  0  0  0  0
 22 24  2  0  0  0  0
 22 52  1  0  0  0  0
 23 24  1  0  0  0  0
 23 53  1  0  0  0  0
 27 28  2  0  0  0  0
 28 29  1  0  0  0  0
 28 57  1  0  0  0  0
 29 31  2  0  0  0  0
 29 58  1  0  0  0  0
 30 31  1  0  0  0  0
 30 59  1  0  0  0  0
 31 60  1  0  0  0  0
M  END
> <PUBCHEM_COMPOUND_CID>
11604142

> <PUBCHEM_CONFORMER_RMSD>
1

> <PUBCHEM_CONFORMER_DIVERSEORDER>
1
47
2
40
31
14
43
20
4
45
11
37
41
16
6
42
23
24
17
35
25
38
49
33
5
32
26
50
36
10
13
19
44
30
9
28
12
3
52
34
21
48
51
18
29
39
22
46
8
7
27
15

> <PUBCHEM_MMFF94_PARTIAL_CHARGES>
38
1 -0.56
10 0.14
15 0.27
16 0.27
17 -0.14
18 0.28
19 0.28
2 -0.81
20 -0.15
21 -0.15
22 -0.15
23 -0.15
24 0.1
25 0.6
26 0.27
27 0.29
28 -0.15
29 -0.15
3 -0.58
30 0.16
31 -0.15
4 -0.71
5 -0.57
50 0.15
51 0.15
52 0.15
53 0.15
54 0.4
55 0.4
56 0.4
57 0.15
58 0.15
59 0.15
6 0.59
60 0.15
7 -0.88
8 -0.62
9 0.27

> <PUBCHEM_EFFECTIVE_ROTOR_COUNT>
7.4

> <PUBCHEM_PHARMACOPHORE_FEATURES>
12
1 1 acceptor
1 2 cation
1 3 donor
1 7 donor
1 8 acceptor
4 3 4 5 25 cation
4 5 6 7 26 cation
5 4 5 6 25 26 rings
6 1 2 15 16 18 19 rings
6 17 20 21 22 23 24 rings
6 8 27 28 29 30 31 rings
6 9 10 11 12 13 14 rings

> <PUBCHEM_HEAVY_ATOM_COUNT>
31

> <PUBCHEM_ATOM_DEF_STEREO_COUNT>
0

> <PUBCHEM_ATOM_UDEF_STEREO_COUNT>
0

> <PUBCHEM_BOND_DEF_STEREO_COUNT>
0

> <PUBCHEM_BOND_UDEF_STEREO_COUNT>
0

> <PUBCHEM_ISOTOPIC_ATOM_COUNT>
0

> <PUBCHEM_COMPONENT_COUNT>
1

> <PUBCHEM_CACTVS_TAUTO_COUNT>
5

> <PUBCHEM_CONFORMER_ID>
00B110AE00000001

> <PUBCHEM_MMFF94_ENERGY>
85.8548

> <PUBCHEM_FEATURE_SELFOVERLAP>
61.075

> <PUBCHEM_SHAPE_FINGERPRINT>
10100884 174 18334011709904416490
10258705 36 18128826240445385350
10391435 84 18341041960896250320
10669705 251 18272656736212644222
10952577 141 15648436851216493391
11135609 99 18341895216221173068
11135926 11 18262233327299780119
11497681 19 18334859446280447420
117089 54 18336834207518152955
11761917 87 15840726071900938990
11963148 33 18334570197223260538
11991303 11 14707218759220582313
12013929 94 18341897394930121546
12643181 29 18410854344333515805
12717326 120 18341342171169679486
13383668 362 18269824480659856184
1361 4 18120939670586122479
13627175 4 17895196627616146219
13782708 43 18412544293579060456
13811026 1 18342454850607605942
14068700 675 18260270733346436068
14178184 131 18131347557249990711
14344974 204 18271524307343893775
14556957 393 15719968908238972940
14671636 106 18409730677899194798
15183329 4 15791446037029906130
15347591 1 18411136982719940661
15510800 12 18201726149586658631
16126227 98 9727639405640287795
16989713 51 18113613452373891981
16992779 147 16485266565324695024
16994733 274 10303814276620523870
18608769 82 18411417285486025278
19301676 85 17905603660352258343
19303781 99 18266170811562207847
20028762 73 18410856602632154279
2026 5 18412544301526144071
20982279 24 16916240849974706790
21130935 74 18342458183381175080
21781051 124 17988935462020710238
22002106 203 18058158604924104127
23522609 53 18045535021119767653
23559900 14 18268986656999791561
25025965 108 18130495444893193575
255183 313 17131828793847247718
2747138 104 17775003450155255528
3178227 256 17203322292072258008
3383291 50 18408321120371487282
3711267 37 12319445615731595186
397830 11 18129932498574739416
406291 66 18337109076856007875
42767 46 18041552637084494923
44389302 135 18189887614762747450
44802255 64 12540701418499338985
4625314 4 18409729539306457572
5104073 3 18059020613576712665
54039377 194 18187935006084748843
54583773 228 18337961186284310900
5718773 13 18410575114801819990
57303763 176 18344145901100139407
5758199 1 11743836958853259052
5874358 3 16878765138307317720
58902169 19 17530974587457857901
59682541 35 17989198249462879136
6009941 240 17916870115018914113
636775 8 18341058428692296798
6441014 3 17906454677819630987
9689198 14 10881398734107971234
9831232 110 18341335496874442734
9962374 69 18113338618466308788
9980921 52 16517627185473868250
9980921 7 11815903332685217883
999808 66 18202279191324509532

> <PUBCHEM_SHAPE_MULTIPOLES>
597.23
28.66
3.98
0.98
23.23
1.85
0.02
27.93
-3.07
-7.39
0.47
1.91
0.02
0.3

> <PUBCHEM_SHAPE_SELFOVERLAP>
1295.488

> <PUBCHEM_SHAPE_VOLUME>
321.3

> <PUBCHEM_COORDINATE_TYPE>
2
5
10

$$$$
