25164885
  -OEChem-10052120443D

 38 41  0     0  0  0  0  0  0999 V2000
    3.3598    2.0404    1.3073 O   0  0  0  0  0  0  0  0  0  0  0  0
   -0.2592    1.4454   -0.8271 O   0  0  0  0  0  0  0  0  0  0  0  0
    3.9210    0.2942   -0.1428 N   0  0  0  0  0  0  0  0  0  0  0  0
    1.0897    1.7784   -0.8112 N   0  0  0  0  0  0  0  0  0  0  0  0
   -5.8217   -0.9796    0.3499 N   0  0  0  0  0  0  0  0  0  0  0  0
   -6.3960   -0.2837   -0.6455 N   0  0  0  0  0  0  0  0  0  0  0  0
    5.3421   -2.1801   -0.5816 C   0  0  0  0  0  0  0  0  0  0  0  0
    5.8406   -1.1395    0.4216 C   0  0  0  0  0  0  0  0  0  0  0  0
    3.8284   -2.0814   -0.7714 C   0  0  0  0  0  0  0  0  0  0  0  0
    5.3790    0.2628    0.0342 C   0  0  0  0  0  0  0  0  0  0  0  0
    3.4046   -0.6582   -1.1262 C   0  0  0  0  0  0  0  0  0  0  0  0
    3.0419    1.1688    0.4997 C   0  0  0  0  0  0  0  0  0  0  0  0
    1.6105    1.0634    0.1900 C   0  0  0  0  0  0  0  0  0  0  0  0
    0.6475    0.2687    0.8356 C   0  0  0  0  0  0  0  0  0  0  0  0
   -0.5104    0.5457    0.1581 C   0  0  0  0  0  0  0  0  0  0  0  0
   -1.8712    0.1059    0.2653 C   0  0  0  0  0  0  0  0  0  0  0  0
   -4.1571    0.1676   -0.4999 C   0  0  0  0  0  0  0  0  0  0  0  0
   -2.8299    0.6116   -0.6217 C   0  0  0  0  0  0  0  0  0  0  0  0
   -4.4790   -0.7539    0.4904 C   0  0  0  0  0  0  0  0  0  0  0  0
   -2.2217   -0.8190    1.2507 C   0  0  0  0  0  0  0  0  0  0  0  0
   -3.5388   -1.2705    1.3846 C   0  0  0  0  0  0  0  0  0  0  0  0
   -5.3803    0.4130   -1.1601 C   0  0  0  0  0  0  0  0  0  0  0  0
    5.8417   -2.0257   -1.5459 H   0  0  0  0  0  0  0  0  0  0  0  0
    5.6091   -3.1857   -0.2381 H   0  0  0  0  0  0  0  0  0  0  0  0
    5.4536   -1.3883    1.4177 H   0  0  0  0  0  0  0  0  0  0  0  0
    6.9340   -1.1702    0.4803 H   0  0  0  0  0  0  0  0  0  0  0  0
    3.5081   -2.7734   -1.5581 H   0  0  0  0  0  0  0  0  0  0  0  0
    3.3290   -2.3892    0.1558 H   0  0  0  0  0  0  0  0  0  0  0  0
    5.6661    0.9846    0.8055 H   0  0  0  0  0  0  0  0  0  0  0  0
    5.8355    0.5787   -0.9107 H   0  0  0  0  0  0  0  0  0  0  0  0
    3.8314   -0.3741   -2.0964 H   0  0  0  0  0  0  0  0  0  0  0  0
    2.3222   -0.6422   -1.2519 H   0  0  0  0  0  0  0  0  0  0  0  0
    0.7872   -0.4035    1.6697 H   0  0  0  0  0  0  0  0  0  0  0  0
   -2.5870    1.3313   -1.3976 H   0  0  0  0  0  0  0  0  0  0  0  0
   -1.4812   -1.2152    1.9423 H   0  0  0  0  0  0  0  0  0  0  0  0
   -3.8132   -1.9888    2.1491 H   0  0  0  0  0  0  0  0  0  0  0  0
   -5.5720    1.0716   -1.9955 H   0  0  0  0  0  0  0  0  0  0  0  0
   -6.4059   -1.5963    0.9007 H   0  0  0  0  0  0  0  0  0  0  0  0
  1 12  2  0  0  0  0
  2  4  1  0  0  0  0
  2 15  1  0  0  0  0
  3 10  1  0  0  0  0
  3 11  1  0  0  0  0
  3 12  1  0  0  0  0
  4 13  2  0  0  0  0
  5  6  1  0  0  0  0
  5 19  1  0  0  0  0
  5 38  1  0  0  0  0
  6 22  2  0  0  0  0
  7  8  1  0  0  0  0
  7  9  1  0  0  0  0
  7 23  1  0  0  0  0
  7 24  1  0  0  0  0
  8 10  1  0  0  0  0
  8 25  1  0  0  0  0
  8 26  1  0  0  0  0
  9 11  1  0  0  0  0
  9 27  1  0  0  0  0
  9 28  1  0  0  0  0
 10 29  1  0  0  0  0
 10 30  1  0  0  0  0
 11 31  1  0  0  0  0
 11 32  1  0  0  0  0
 12 13  1  0  0  0  0
 13 14  1  0  0  0  0
 14 15  2  0  0  0  0
 14 33  1  0  0  0  0
 15 16  1  0  0  0  0
 16 18  2  0  0  0  0
 16 20  1  0  0  0  0
 17 18  1  0  0  0  0
 17 19  2  0  0  0  0
 17 22  1  0  0  0  0
 18 34  1  0  0  0  0
 19 21  1  0  0  0  0
 20 21  2  0  0  0  0
 20 35  1  0  0  0  0
 21 36  1  0  0  0  0
 22 37  1  0  0  0  0
M  END
> <PUBCHEM_COMPOUND_CID>
25164885

> <PUBCHEM_CONFORMER_RMSD>
0.6

> <PUBCHEM_CONFORMER_DIVERSEORDER>
1
28
61
47
33
27
11
54
22
31
35
39
16
36
45
43
34
58
40
59
46
2
29
37
21
6
62
25
60
12
56
24
48
19
30
7
42
23
44
5
20
41
57
50
38
53
14
63
9
49
10
4
51
18
8
55
32
52
26
3
15
17
13

> <PUBCHEM_MMFF94_PARTIAL_CHARGES>
24
1 -0.57
10 0.3
11 0.3
12 0.72
13 0.2
14 -0.15
15 0.09
16 0.05
18 -0.15
19 -0.15
2 -0.02
20 -0.15
21 -0.15
22 0.14
3 -0.66
33 0.15
34 0.15
35 0.15
36 0.15
37 0.15
38 0.27
4 -0.41
5 0.3
6 -0.71

> <PUBCHEM_EFFECTIVE_ROTOR_COUNT>
4.2

> <PUBCHEM_PHARMACOPHORE_FEATURES>
8
1 1 acceptor
1 4 acceptor
1 5 donor
1 6 acceptor
5 2 4 13 14 15 rings
5 5 6 17 19 22 rings
6 16 17 18 19 20 21 rings
6 3 7 8 9 10 11 rings

> <PUBCHEM_HEAVY_ATOM_COUNT>
22

> <PUBCHEM_ATOM_DEF_STEREO_COUNT>
0

> <PUBCHEM_ATOM_UDEF_STEREO_COUNT>
0

> <PUBCHEM_BOND_DEF_STEREO_COUNT>
0

> <PUBCHEM_BOND_UDEF_STEREO_COUNT>
0

> <PUBCHEM_ISOTOPIC_ATOM_COUNT>
0

> <PUBCHEM_COMPONENT_COUNT>
1

> <PUBCHEM_CACTVS_TAUTO_COUNT>
3

> <PUBCHEM_CONFORMER_ID>
017FFC5500000001

> <PUBCHEM_MMFF94_ENERGY>
40.7765

> <PUBCHEM_FEATURE_SELFOVERLAP>
40.689

> <PUBCHEM_SHAPE_FINGERPRINT>
10447042 23 18342175549364401678
106641 1 14692561144162480394
10670039 82 16443622394111351319
10912923 1 16702025322246855225
11796584 16 17967253100673072594
12107183 9 17198848236490955546
12236239 1 16415763032821542505
12390115 104 17677322794241676213
12516196 113 17917990572900868936
12596602 18 15841549665491039666
12670543 26 17822007579946130639
12670546 56 17346882251485620632
12788726 201 15430306988964017741
13402501 40 18334298651894160554
13533116 47 18060700606549065584
13544592 145 18333450958372045115
13544653 18 18343309149683304152
13583140 156 17559390481866783705
13668630 136 17846501434885646063
13685833 64 18412267237648872019
13911852 28 18057608668499588590
13914758 101 17846782863324461545
13955234 65 18201432649413876952
14251752 14 16950556653834694995
14386348 63 18334016098832653146
14528608 73 12829495865115525426
14573314 32 18334294253889340957
14848160 23 18410012126267727998
15183329 4 17821726096374171787
15475509 8 17749956553156201197
15510800 12 18338809905586191438
15788980 27 17988923379576365053
16760501 71 10879691209471766090
17349148 13 16487260984368620125
17834072 8 18040150721536143747
17844677 252 18272092703616175537
17857418 61 17703788119723990959
17870717 6 17821733827748029043
1813 80 17845949458774262268
200 152 17989207040722928633
20028762 73 17489305261587511582
20374829 77 18114181917260220082
20403669 9 18335704910291659338
20645477 70 18342175562016980478
21033650 10 16661210217900007876
21267235 1 17603589668957310899
21279426 13 18262514767610576581
21285901 2 18187929430821514606
21315764 119 16733265638589694138
21623969 137 18272089383843585838
21641784 216 15068617132837748599
21682296 61 18271250412926028702
21781051 124 16805904978022381363
22061861 79 18410011031040414223
22079108 93 10375865273108734077
2215653 11 18334290968249928463
22224240 67 17917702540332043130
22849339 104 16660943165486872243
2297311 6 17676207970675272117
2303208 19 18114472240186156531
23175994 123 18410294748618145105
23536379 177 18060137635511295169
23557571 272 18040710338231434324
23559900 14 18260546766045363073
23569943 247 18191866726242972771
239999 70 18187081793503979016
2838139 119 10809346680625483330
2871803 45 18187366493895575346
29717793 49 18040155119324296364
3004659 81 17603587418104511542
3411729 13 14044872976614065458
345986 75 17417529095307553194
34797466 226 17749395909362665485
44062 13 17968101975147358955
465052 167 18131917052991319094
4990 188 18040436602690507121
5104073 3 18059573517353091824
5718773 13 18192710043514640258
59755656 215 17967527952614981691
67856867 119 14907604766336030059
8988823 20 18060698412063610616
960060 61 18113346310130101094
9709674 26 17970353830742403699
9971528 1 18335700580527061053

> <PUBCHEM_SHAPE_MULTIPOLES>
421.09
15.4
1.8
1.17
3.48
0.18
0.09
6.38
-1.95
-2.34
0
0.41
0.06
1.65

> <PUBCHEM_SHAPE_SELFOVERLAP>
929.09

> <PUBCHEM_SHAPE_VOLUME>
227.7

> <PUBCHEM_COORDINATE_TYPE>
2
5
10

$$$$
