49830411
  -OEChem-10052115193D

 59 64  0     0  0  0  0  0  0999 V2000
   -5.5268    2.5661    2.3872 S   0  0  0  0  0  0  0  0  0  0  0  0
    3.7233    2.0302   -2.0677 O   0  0  0  0  0  0  0  0  0  0  0  0
   -4.4024    0.7897    0.9185 N   0  0  0  0  0  0  0  0  0  0  0  0
   -3.2040    2.6715    0.8018 N   0  0  0  0  0  0  0  0  0  0  0  0
   -2.0102   -1.3966   -0.2376 N   0  0  0  0  0  0  0  0  0  0  0  0
    2.2120    1.5232   -0.3393 N   0  0  0  0  0  0  0  0  0  0  0  0
   -0.6173   -3.2631   -0.5223 N   0  0  0  0  0  0  0  0  0  0  0  0
   -2.6666   -3.2243   -1.6645 N   0  0  0  0  0  0  0  0  0  0  0  0
   -3.3683    0.4978    0.0828 C   0  0  0  0  0  0  0  0  0  0  0  0
   -2.6407    1.6755    0.0253 C   0  0  0  0  0  0  0  0  0  0  0  0
   -1.4411    1.8695   -0.7398 C   0  0  0  0  0  0  0  0  0  0  0  0
   -4.2520    2.0849    1.3102 C   0  0  0  0  0  0  0  0  0  0  0  0
   -3.1731   -0.7864   -0.5468 C   0  0  0  0  0  0  0  0  0  0  0  0
   -5.4965    0.1362    1.4335 C   0  0  0  0  0  0  0  0  0  0  0  0
   -0.1974    1.6021   -0.1676 C   0  0  0  0  0  0  0  0  0  0  0  0
   -1.5197    2.3261   -2.0557 C   0  0  0  0  0  0  0  0  0  0  0  0
    0.9677    1.7910   -0.9110 C   0  0  0  0  0  0  0  0  0  0  0  0
   -6.2116    0.9373    2.2416 C   0  0  0  0  0  0  0  0  0  0  0  0
   -4.1194   -1.3243   -1.3951 C   0  0  0  0  0  0  0  0  0  0  0  0
   -0.3546    2.5152   -2.7990 C   0  0  0  0  0  0  0  0  0  0  0  0
    0.8891    2.2474   -2.2269 C   0  0  0  0  0  0  0  0  0  0  0  0
   -1.8243   -2.5950   -0.8231 C   0  0  0  0  0  0  0  0  0  0  0  0
    0.4790   -2.9279    0.2940 C   0  0  0  0  0  0  0  0  0  0  0  0
   -3.8093   -2.5580   -1.9300 C   0  0  0  0  0  0  0  0  0  0  0  0
    1.7616   -3.3841   -0.0105 C   0  0  0  0  0  0  0  0  0  0  0  0
    3.4773    1.6525   -0.9272 C   0  0  0  0  0  0  0  0  0  0  0  0
    0.2714   -2.1295    1.4188 C   0  0  0  0  0  0  0  0  0  0  0  0
    2.8366   -3.0419    0.8100 C   0  0  0  0  0  0  0  0  0  0  0  0
    4.6265    1.3151   -0.0468 C   0  0  0  0  0  0  0  0  0  0  0  0
    2.0127   -4.2404   -1.2088 C   0  0  0  0  0  0  0  0  0  0  0  0
    1.3464   -1.7872    2.2392 C   0  0  0  0  0  0  0  0  0  0  0  0
    2.6290   -2.2437    1.9350 C   0  0  0  0  0  0  0  0  0  0  0  0
    5.8217    0.8604   -0.6041 C   0  0  0  0  0  0  0  0  0  0  0  0
    4.5095    1.4524    1.3365 C   0  0  0  0  0  0  0  0  0  0  0  0
    6.9001    0.5430    0.2219 C   0  0  0  0  0  0  0  0  0  0  0  0
    5.5880    1.1349    2.1624 C   0  0  0  0  0  0  0  0  0  0  0  0
    6.7833    0.6805    1.6051 C   0  0  0  0  0  0  0  0  0  0  0  0
   -5.7111   -0.8938    1.1927 H   0  0  0  0  0  0  0  0  0  0  0  0
   -0.1343    1.2469    0.8594 H   0  0  0  0  0  0  0  0  0  0  0  0
   -2.4814    2.5392   -2.5164 H   0  0  0  0  0  0  0  0  0  0  0  0
   -7.1131    0.6513    2.7648 H   0  0  0  0  0  0  0  0  0  0  0  0
   -5.0474   -0.8233   -1.6408 H   0  0  0  0  0  0  0  0  0  0  0  0
   -0.4172    2.8707   -3.8235 H   0  0  0  0  0  0  0  0  0  0  0  0
    1.7431    2.4183   -2.8668 H   0  0  0  0  0  0  0  0  0  0  0  0
    2.1593    1.1570    0.6072 H   0  0  0  0  0  0  0  0  0  0  0  0
   -4.4912   -3.0594   -2.6085 H   0  0  0  0  0  0  0  0  0  0  0  0
   -0.5013   -4.1051   -1.0766 H   0  0  0  0  0  0  0  0  0  0  0  0
   -0.7127   -1.7896    1.7231 H   0  0  0  0  0  0  0  0  0  0  0  0
    3.8425   -3.3884    0.5879 H   0  0  0  0  0  0  0  0  0  0  0  0
    3.0822   -4.4257   -1.3581 H   0  0  0  0  0  0  0  0  0  0  0  0
    1.6437   -3.7530   -2.1175 H   0  0  0  0  0  0  0  0  0  0  0  0
    1.5248   -5.2137   -1.0926 H   0  0  0  0  0  0  0  0  0  0  0  0
    1.1841   -1.1729    3.1201 H   0  0  0  0  0  0  0  0  0  0  0  0
    3.4657   -1.9776    2.5743 H   0  0  0  0  0  0  0  0  0  0  0  0
    5.9312    0.7413   -1.6788 H   0  0  0  0  0  0  0  0  0  0  0  0
    3.6118    1.8359    1.8119 H   0  0  0  0  0  0  0  0  0  0  0  0
    7.8305    0.1880   -0.2117 H   0  0  0  0  0  0  0  0  0  0  0  0
    5.5002    1.2488    3.2390 H   0  0  0  0  0  0  0  0  0  0  0  0
    7.6233    0.4348    2.2481 H   0  0  0  0  0  0  0  0  0  0  0  0
  1 12  1  0  0  0  0
  1 18  1  0  0  0  0
  2 26  2  0  0  0  0
  3  9  1  0  0  0  0
  3 12  1  0  0  0  0
  3 14  1  0  0  0  0
  4 10  1  0  0  0  0
  4 12  2  0  0  0  0
  5 13  2  0  0  0  0
  5 22  1  0  0  0  0
  6 17  1  0  0  0  0
  6 26  1  0  0  0  0
  6 45  1  0  0  0  0
  7 22  1  0  0  0  0
  7 23  1  0  0  0  0
  7 47  1  0  0  0  0
  8 22  2  0  0  0  0
  8 24  1  0  0  0  0
  9 10  2  0  0  0  0
  9 13  1  0  0  0  0
 10 11  1  0  0  0  0
 11 15  2  0  0  0  0
 11 16  1  0  0  0  0
 13 19  1  0  0  0  0
 14 18  2  0  0  0  0
 14 38  1  0  0  0  0
 15 17  1  0  0  0  0
 15 39  1  0  0  0  0
 16 20  2  0  0  0  0
 16 40  1  0  0  0  0
 17 21  2  0  0  0  0
 18 41  1  0  0  0  0
 19 24  2  0  0  0  0
 19 42  1  0  0  0  0
 20 21  1  0  0  0  0
 20 43  1  0  0  0  0
 21 44  1  0  0  0  0
 23 25  1  0  0  0  0
 23 27  2  0  0  0  0
 24 46  1  0  0  0  0
 25 28  2  0  0  0  0
 25 30  1  0  0  0  0
 26 29  1  0  0  0  0
 27 31  1  0  0  0  0
 27 48  1  0  0  0  0
 28 32  1  0  0  0  0
 28 49  1  0  0  0  0
 29 33  2  0  0  0  0
 29 34  1  0  0  0  0
 30 50  1  0  0  0  0
 30 51  1  0  0  0  0
 30 52  1  0  0  0  0
 31 32  2  0  0  0  0
 31 53  1  0  0  0  0
 32 54  1  0  0  0  0
 33 35  1  0  0  0  0
 33 55  1  0  0  0  0
 34 36  2  0  0  0  0
 34 56  1  0  0  0  0
 35 37  2  0  0  0  0
 35 57  1  0  0  0  0
 36 37  1  0  0  0  0
 36 58  1  0  0  0  0
 37 59  1  0  0  0  0
M  END
> <PUBCHEM_COMPOUND_CID>
49830411

> <PUBCHEM_CONFORMER_RMSD>
1.2

> <PUBCHEM_CONFORMER_DIVERSEORDER>
1
34
59
115
28
53
21
22
85
3
116
14
81
126
156
117
125
132
157
37
67
118
24
68
56
127
84
104
109
159
82
62
122
47
110
142
45
73
139
150
4
13
140
148
158
119
88
20
136
135
79
96
91
71
50
58
44
151
111
90
97
152
103
161
137
32
74
124
120
29
144
129
39
11
86
36
101
92
23
77
10
57
48
93
106
160
130
51
38
131
138
113
27
121
133
155
123
108
55
61
107
41
18
72
98
33
145
95
6
78
64
25
43
54
147
105
149
154
83
112
99
65
46
9
52
30
60
100
42
40
63
87
89
70
153
35
128
7
2
80
102
12
15
94
69
49
5
143
141
17
16
66
146
31
75
76
162
8
114
134
19
26

> <PUBCHEM_MMFF94_PARTIAL_CHARGES>
56
1 -0.16
10 0.17
11 0.05
12 0.24
13 0.36
14 -0.18
15 -0.15
16 -0.15
17 0.12
18 -0.05
19 -0.15
2 -0.57
20 -0.15
21 -0.15
22 0.72
23 0.1
24 0.16
25 -0.14
26 0.54
27 -0.15
28 -0.15
29 0.09
3 0.33
30 0.14
31 -0.15
32 -0.15
33 -0.15
34 -0.15
35 -0.15
36 -0.15
37 -0.15
38 0.15
39 0.15
4 -0.57
40 0.15
41 0.15
42 0.15
43 0.15
44 0.15
45 0.37
46 0.15
47 0.4
48 0.15
49 0.15
5 -0.62
53 0.15
54 0.15
55 0.15
56 0.15
57 0.15
58 0.15
59 0.15
6 -0.55
7 -0.6
8 -0.62
9 -0.2

> <PUBCHEM_EFFECTIVE_ROTOR_COUNT>
7

> <PUBCHEM_PHARMACOPHORE_FEATURES>
12
1 2 acceptor
1 5 acceptor
1 6 donor
1 7 donor
3 3 4 12 cation
4 5 7 8 22 cation
5 1 3 12 14 18 rings
5 3 4 9 10 12 rings
6 11 15 16 17 20 21 rings
6 23 25 27 28 31 32 rings
6 29 33 34 35 36 37 rings
6 5 8 13 19 22 24 rings

> <PUBCHEM_HEAVY_ATOM_COUNT>
37

> <PUBCHEM_ATOM_DEF_STEREO_COUNT>
0

> <PUBCHEM_ATOM_UDEF_STEREO_COUNT>
0

> <PUBCHEM_BOND_DEF_STEREO_COUNT>
0

> <PUBCHEM_BOND_UDEF_STEREO_COUNT>
0

> <PUBCHEM_ISOTOPIC_ATOM_COUNT>
0

> <PUBCHEM_COMPONENT_COUNT>
1

> <PUBCHEM_CACTVS_TAUTO_COUNT>
6

> <PUBCHEM_CONFORMER_ID>
02F85A0B00000001

> <PUBCHEM_MMFF94_ENERGY>
126.2513

> <PUBCHEM_FEATURE_SELFOVERLAP>
61.151

> <PUBCHEM_SHAPE_FINGERPRINT>
10305334 12 17989207066414176537
11513181 2 18059853948094386102
12156800 1 15580684050458001291
12422481 6 18187643553297720448
12788726 201 17329181433497784751
13165054 342 17702664328630774337
13642711 20 16987413469758047658
14004919 189 18263070188624367923
14020679 6 17988924517653600104
14068700 675 17982999339827525567
14747281 78 15769506335234583499
14747282 305 18262512569168193578
14840074 17 18113897173824057056
15160629 35 17916006985305488769
15297060 5 18202845457262163810
15324884 4 17472960818975782378
15420108 30 18341050710129832269
16067690 210 16917072109796127376
19301679 30 17749968652390875345
21133410 38 18272084985401637343
21779490 27 17771049794877963559
21814621 53 16988844991037071362
392239 28 17530964700153186867
4112364 45 17769675105038261873
469060 322 17967801778180780124
563151 248 18340780311641513769
581034 39 18271511061896497394
6287921 2 18268705013653796650
9982175 49 18188213237543947884

> <PUBCHEM_SHAPE_MULTIPOLES>
729.54
13.98
4.98
2.59
8.3
4.69
0.01
-8.09
-8.83
-0.08
1.54
-1.07
-1
-3.09

> <PUBCHEM_SHAPE_SELFOVERLAP>
1622.313

> <PUBCHEM_SHAPE_VOLUME>
390.7

> <PUBCHEM_COORDINATE_TYPE>
2
5
10

$$$$
