49830653
  -OEChem-10052115173D

 77 80  0     0  0  0  0  0  0999 V2000
    1.2230   -4.8001   -0.6966 O   0  0  0  0  0  0  0  0  0  0  0  0
    0.3051    3.2776   -0.4223 O   0  0  0  0  0  0  0  0  0  0  0  0
    3.2514    0.1915    0.3987 N   0  0  0  0  0  0  0  0  0  0  0  0
    4.5384    0.4501    0.1110 N   0  0  0  0  0  0  0  0  0  0  0  0
    1.0065    1.1751    0.3237 N   0  0  0  0  0  0  0  0  0  0  0  0
   -0.6422   -3.8666    0.3588 N   0  0  0  0  0  0  0  0  0  0  0  0
   -3.0401   -2.2821   -2.9392 N   0  0  0  0  0  0  0  0  0  0  0  0
   -1.2305    1.7225    0.4188 N   0  0  0  0  0  0  0  0  0  0  0  0
    5.7384    2.3467   -0.8217 C   0  0  0  0  0  0  0  0  0  0  0  0
    4.4959    1.6919   -0.3794 C   0  0  0  0  0  0  0  0  0  0  0  0
    7.0557    1.5000   -0.6727 C   0  0  0  0  0  0  0  0  0  0  0  0
    5.6859    2.7369   -2.3386 C   0  0  0  0  0  0  0  0  0  0  0  0
    6.0205    3.6651   -0.0229 C   0  0  0  0  0  0  0  0  0  0  0  0
    3.1919    2.2219   -0.4043 C   0  0  0  0  0  0  0  0  0  0  0  0
    2.4042    1.2204    0.1086 C   0  0  0  0  0  0  0  0  0  0  0  0
    2.9017   -1.0462    0.9414 C   0  0  0  0  0  0  0  0  0  0  0  0
   -1.6345   -4.7135   -0.2997 C   0  0  0  0  0  0  0  0  0  0  0  0
   -2.6472   -3.9070   -1.1105 C   0  0  0  0  0  0  0  0  0  0  0  0
    2.0121   -1.8791    0.2628 C   0  0  0  0  0  0  0  0  0  0  0  0
    1.6633   -3.1163    0.8043 C   0  0  0  0  0  0  0  0  0  0  0  0
   -2.0292   -3.0370   -2.2088 C   0  0  0  0  0  0  0  0  0  0  0  0
    3.4427   -1.4507    2.1620 C   0  0  0  0  0  0  0  0  0  0  0  0
    0.7353   -3.9851    0.0977 C   0  0  0  0  0  0  0  0  0  0  0  0
    2.2044   -3.5208    2.0249 C   0  0  0  0  0  0  0  0  0  0  0  0
    3.0942   -2.6881    2.7035 C   0  0  0  0  0  0  0  0  0  0  0  0
    0.0580    2.1751    0.0555 C   0  0  0  0  0  0  0  0  0  0  0  0
   -1.1715   -2.8921    1.3025 C   0  0  0  0  0  0  0  0  0  0  0  0
   -2.5165   -1.8356   -4.2315 C   0  0  0  0  0  0  0  0  0  0  0  0
   -3.4952   -1.1344   -2.1523 C   0  0  0  0  0  0  0  0  0  0  0  0
   -2.4518    2.4001    0.3186 C   0  0  0  0  0  0  0  0  0  0  0  0
   -3.6602    1.8113    0.7253 C   0  0  0  0  0  0  0  0  0  0  0  0
   -4.8641    2.5447    0.6000 C   0  0  0  0  0  0  0  0  0  0  0  0
   -2.4307    3.6935   -0.2041 C   0  0  0  0  0  0  0  0  0  0  0  0
   -3.7002    0.5107    1.2536 C   0  0  0  0  0  0  0  0  0  0  0  0
   -4.8241    3.8454    0.0717 C   0  0  0  0  0  0  0  0  0  0  0  0
   -3.6145    4.4147   -0.3273 C   0  0  0  0  0  0  0  0  0  0  0  0
   -6.0725    1.9559    1.0066 C   0  0  0  0  0  0  0  0  0  0  0  0
   -4.9098   -0.0587    1.6526 C   0  0  0  0  0  0  0  0  0  0  0  0
   -6.0936    0.6625    1.5293 C   0  0  0  0  0  0  0  0  0  0  0  0
    6.9906    0.5728   -1.2540 H   0  0  0  0  0  0  0  0  0  0  0  0
    7.2258    1.2254    0.3749 H   0  0  0  0  0  0  0  0  0  0  0  0
    7.9346    2.0539   -1.0216 H   0  0  0  0  0  0  0  0  0  0  0  0
    4.8592    3.4278   -2.5398 H   0  0  0  0  0  0  0  0  0  0  0  0
    5.5331    1.8481   -2.9619 H   0  0  0  0  0  0  0  0  0  0  0  0
    6.6124    3.2248   -2.6619 H   0  0  0  0  0  0  0  0  0  0  0  0
    6.1128    3.4560    1.0493 H   0  0  0  0  0  0  0  0  0  0  0  0
    5.2044    4.3856   -0.1500 H   0  0  0  0  0  0  0  0  0  0  0  0
    6.9454    4.1490   -0.3566 H   0  0  0  0  0  0  0  0  0  0  0  0
    2.8787    3.1962   -0.7499 H   0  0  0  0  0  0  0  0  0  0  0  0
   -2.1476   -5.2925    0.4768 H   0  0  0  0  0  0  0  0  0  0  0  0
   -1.1285   -5.4308   -0.9547 H   0  0  0  0  0  0  0  0  0  0  0  0
   -3.2377   -3.2951   -0.4201 H   0  0  0  0  0  0  0  0  0  0  0  0
   -3.3548   -4.6108   -1.5682 H   0  0  0  0  0  0  0  0  0  0  0  0
    1.5923   -1.5766   -0.6948 H   0  0  0  0  0  0  0  0  0  0  0  0
    0.6567    0.3157    0.7362 H   0  0  0  0  0  0  0  0  0  0  0  0
   -1.2585   -2.3694   -1.8034 H   0  0  0  0  0  0  0  0  0  0  0  0
   -1.5105   -3.7210   -2.8942 H   0  0  0  0  0  0  0  0  0  0  0  0
    4.1344   -0.8126    2.7066 H   0  0  0  0  0  0  0  0  0  0  0  0
    1.9392   -4.4825    2.4566 H   0  0  0  0  0  0  0  0  0  0  0  0
    3.5146   -3.0027    3.6543 H   0  0  0  0  0  0  0  0  0  0  0  0
   -1.5209   -2.0217    0.7410 H   0  0  0  0  0  0  0  0  0  0  0  0
   -0.4307   -2.5563    2.0291 H   0  0  0  0  0  0  0  0  0  0  0  0
   -2.0068   -3.3326    1.8555 H   0  0  0  0  0  0  0  0  0  0  0  0
   -1.2504    0.7829    0.7963 H   0  0  0  0  0  0  0  0  0  0  0  0
   -3.2853   -1.2913   -4.7914 H   0  0  0  0  0  0  0  0  0  0  0  0
   -1.6434   -1.1825   -4.1193 H   0  0  0  0  0  0  0  0  0  0  0  0
   -2.2306   -2.6935   -4.8503 H   0  0  0  0  0  0  0  0  0  0  0  0
   -3.9965   -1.4494   -1.2330 H   0  0  0  0  0  0  0  0  0  0  0  0
   -4.2389   -0.5577   -2.7146 H   0  0  0  0  0  0  0  0  0  0  0  0
   -2.6733   -0.4585   -1.8888 H   0  0  0  0  0  0  0  0  0  0  0  0
   -1.5533    4.2228   -0.5403 H   0  0  0  0  0  0  0  0  0  0  0  0
   -2.8164   -0.1040    1.3814 H   0  0  0  0  0  0  0  0  0  0  0  0
   -5.7372    4.4275   -0.0338 H   0  0  0  0  0  0  0  0  0  0  0  0
   -3.5995    5.4219   -0.7342 H   0  0  0  0  0  0  0  0  0  0  0  0
   -7.0100    2.5011    0.9193 H   0  0  0  0  0  0  0  0  0  0  0  0
   -4.9273   -1.0657    2.0596 H   0  0  0  0  0  0  0  0  0  0  0  0
   -7.0349    0.2186    1.8400 H   0  0  0  0  0  0  0  0  0  0  0  0
  1 23  2  0  0  0  0
  2 26  2  0  0  0  0
  3  4  1  0  0  0  0
  3 15  1  0  0  0  0
  3 16  1  0  0  0  0
  4 10  2  0  0  0  0
  5 15  1  0  0  0  0
  5 26  1  0  0  0  0
  5 55  1  0  0  0  0
  6 17  1  0  0  0  0
  6 23  1  0  0  0  0
  6 27  1  0  0  0  0
  7 21  1  0  0  0  0
  7 28  1  0  0  0  0
  7 29  1  0  0  0  0
  8 26  1  0  0  0  0
  8 30  1  0  0  0  0
  8 64  1  0  0  0  0
  9 10  1  0  0  0  0
  9 11  1  0  0  0  0
  9 12  1  0  0  0  0
  9 13  1  0  0  0  0
 10 14  1  0  0  0  0
 11 40  1  0  0  0  0
 11 41  1  0  0  0  0
 11 42  1  0  0  0  0
 12 43  1  0  0  0  0
 12 44  1  0  0  0  0
 12 45  1  0  0  0  0
 13 46  1  0  0  0  0
 13 47  1  0  0  0  0
 13 48  1  0  0  0  0
 14 15  2  0  0  0  0
 14 49  1  0  0  0  0
 16 19  1  0  0  0  0
 16 22  2  0  0  0  0
 17 18  1  0  0  0  0
 17 50  1  0  0  0  0
 17 51  1  0  0  0  0
 18 21  1  0  0  0  0
 18 52  1  0  0  0  0
 18 53  1  0  0  0  0
 19 20  2  0  0  0  0
 19 54  1  0  0  0  0
 20 23  1  0  0  0  0
 20 24  1  0  0  0  0
 21 56  1  0  0  0  0
 21 57  1  0  0  0  0
 22 25  1  0  0  0  0
 22 58  1  0  0  0  0
 24 25  2  0  0  0  0
 24 59  1  0  0  0  0
 25 60  1  0  0  0  0
 27 61  1  0  0  0  0
 27 62  1  0  0  0  0
 27 63  1  0  0  0  0
 28 65  1  0  0  0  0
 28 66  1  0  0  0  0
 28 67  1  0  0  0  0
 29 68  1  0  0  0  0
 29 69  1  0  0  0  0
 29 70  1  0  0  0  0
 30 31  1  0  0  0  0
 30 33  2  0  0  0  0
 31 32  1  0  0  0  0
 31 34  2  0  0  0  0
 32 35  1  0  0  0  0
 32 37  2  0  0  0  0
 33 36  1  0  0  0  0
 33 71  1  0  0  0  0
 34 38  1  0  0  0  0
 34 72  1  0  0  0  0
 35 36  2  0  0  0  0
 35 73  1  0  0  0  0
 36 74  1  0  0  0  0
 37 39  1  0  0  0  0
 37 75  1  0  0  0  0
 38 39  2  0  0  0  0
 38 76  1  0  0  0  0
 39 77  1  0  0  0  0
M  END
> <PUBCHEM_COMPOUND_CID>
49830653

> <PUBCHEM_CONFORMER_RMSD>
1.2

> <PUBCHEM_CONFORMER_DIVERSEORDER>
1
47
146
25
137
22
37
2
76
35
101
149
116
30
103
72
147
131
112
53
136
132
160
153
27
64
12
67
121
59
84
93
148
140
71
123
26
102
127
166
75
65
9
164
125
51
118
105
55
109
17
52
98
97
115
44
88
29
114
99
78
100
129
151
54
122
82
145
156
43
19
95
66
106
33
38
159
34
167
126
48
58
135
154
68
110
163
155
133
60
73
157
89
6
28
74
96
18
69
113
144
165
85
61
24
120
104
4
86
20
117
39
162
142
16
36
92
139
141
87
119
8
77
107
3
13
80
42
62
150
70
50
11
108
152
81
91
143
56
57
7
10
124
128
134
31
15
79
49
45
138
23
168
14
94
46
90
161
32
21
41
63
83
5
158
40
111
130

> <PUBCHEM_MMFF94_PARTIAL_CHARGES>
47
1 -0.57
10 0.11
14 -0.15
15 -0.09
16 -0.02
17 0.3
19 -0.15
2 -0.57
20 0.09
21 0.27
22 -0.15
23 0.54
24 -0.15
25 -0.15
26 0.69
27 0.3
28 0.27
29 0.27
3 0.59
30 0.12
33 -0.15
34 -0.15
35 -0.15
36 -0.15
37 -0.15
38 -0.15
39 -0.15
4 -0.71
49 0.15
5 -0.49
54 0.15
55 0.37
58 0.15
59 0.15
6 -0.66
60 0.15
64 0.37
7 -0.81
71 0.15
72 0.15
73 0.15
74 0.15
75 0.15
76 0.15
77 0.15
8 -0.55
9 0.18

> <PUBCHEM_EFFECTIVE_ROTOR_COUNT>
12

> <PUBCHEM_PHARMACOPHORE_FEATURES>
11
1 1 acceptor
1 2 acceptor
1 4 acceptor
1 5 donor
1 7 cation
1 8 donor
4 9 11 12 13 hydrophobe
5 3 4 10 14 15 rings
6 16 19 20 22 24 25 rings
6 30 31 32 33 35 36 rings
6 31 32 34 37 38 39 rings

> <PUBCHEM_HEAVY_ATOM_COUNT>
39

> <PUBCHEM_ATOM_DEF_STEREO_COUNT>
0

> <PUBCHEM_ATOM_UDEF_STEREO_COUNT>
0

> <PUBCHEM_BOND_DEF_STEREO_COUNT>
0

> <PUBCHEM_BOND_UDEF_STEREO_COUNT>
0

> <PUBCHEM_ISOTOPIC_ATOM_COUNT>
0

> <PUBCHEM_COMPONENT_COUNT>
1

> <PUBCHEM_CACTVS_TAUTO_COUNT>
7

> <PUBCHEM_CONFORMER_ID>
02F85AFD00000001

> <PUBCHEM_MMFF94_ENERGY>
134.9434

> <PUBCHEM_FEATURE_SELFOVERLAP>
55.897

> <PUBCHEM_SHAPE_FINGERPRINT>
10010297 198 18339644425967759271
10190206 1 18119526790013522908
11136131 41 18114460072533550266
11204353 107 18336549420752457225
11434127 23 17458633315167642137
12788726 201 18270665593215219151
13165054 235 17313673749216319813
140371 6 16969702776269566361
14068700 686 18261683579696785073
14114206 34 18054205885863694815
14790565 3 18334867155620032432
15264996 163 18121776403536016599
15274700 242 18261381295713366728
15351339 4 17756396594539450714
15400415 2 18409454656624797232
15406563 185 17561071553963235029
15927050 60 18409733963259331314
19311894 1 17835804475491210326
21133410 62 18114732841843783023
21772528 278 18115605844947628304
23536364 44 17976250554599455182
23559900 14 17831863447627614961
50677037 204 18120934177334072396
5776283 40 18195273069353202478
6608658 132 18127402565712264543
9658208 31 18339088211272481952
9982175 49 18117257208771533570

> <PUBCHEM_SHAPE_MULTIPOLES>
760.98
13.97
7.77
2.53
6.88
4.42
2.29
-16.7
-0.41
-1.49
1.04
-1.36
2.77
-5.56

> <PUBCHEM_SHAPE_SELFOVERLAP>
1624.777

> <PUBCHEM_SHAPE_VOLUME>
423.9

> <PUBCHEM_COORDINATE_TYPE>
2
5
10

$$$$
