49830354
  -OEChem-10062121553D

 47 50  0     0  0  0  0  0  0999 V2000
    6.3606   -1.7908    1.1212 S   0  0  0  0  0  0  0  0  0  0  0  0
   -2.3021    0.1868    1.1202 O   0  0  0  0  0  0  0  0  0  0  0  0
   -1.3757   -0.6864   -0.8468 N   0  0  0  0  0  0  0  0  0  0  0  0
   -3.6608   -0.3836   -0.6957 N   0  0  0  0  0  0  0  0  0  0  0  0
    7.5035    0.5036    0.3947 N   0  0  0  0  0  0  0  0  0  0  0  0
    6.1393    2.2473   -0.5938 N   0  0  0  0  0  0  0  0  0  0  0  0
    3.8066    2.0079   -0.9506 N   0  0  0  0  0  0  0  0  0  0  0  0
    4.1336   -0.8226    0.2856 C   0  0  0  0  0  0  0  0  0  0  0  0
    2.7221   -0.7883   -0.0042 C   0  0  0  0  0  0  0  0  0  0  0  0
    5.1084    0.1982    0.0532 C   0  0  0  0  0  0  0  0  0  0  0  0
    6.3668   -0.2157    0.4704 C   0  0  0  0  0  0  0  0  0  0  0  0
    1.8246   -0.3168    0.9540 C   0  0  0  0  0  0  0  0  0  0  0  0
    2.2535   -1.2260   -1.2429 C   0  0  0  0  0  0  0  0  0  0  0  0
   -0.0098   -0.7209   -0.5654 C   0  0  0  0  0  0  0  0  0  0  0  0
    4.6778   -1.9511    0.8592 C   0  0  0  0  0  0  0  0  0  0  0  0
   -7.3430    0.0506   -0.5836 C   0  0  0  0  0  0  0  0  0  0  0  0
   -7.5101    0.5740    0.6985 C   0  0  0  0  0  0  0  0  0  0  0  0
   -4.9561   -0.0610   -0.2268 C   0  0  0  0  0  0  0  0  0  0  0  0
    0.4588   -0.2831    0.6734 C   0  0  0  0  0  0  0  0  0  0  0  0
    0.8877   -1.1924   -1.5236 C   0  0  0  0  0  0  0  0  0  0  0  0
    5.0307    1.4830   -0.4939 C   0  0  0  0  0  0  0  0  0  0  0  0
   -6.0660   -0.2669   -1.0463 C   0  0  0  0  0  0  0  0  0  0  0  0
   -6.4002    0.7797    1.5180 C   0  0  0  0  0  0  0  0  0  0  0  0
   -5.1232    0.4622    1.0554 C   0  0  0  0  0  0  0  0  0  0  0  0
   -8.5164   -0.1786   -1.4785 C   0  0  0  0  0  0  0  0  0  0  0  0
   -2.4380   -0.2473   -0.0191 C   0  0  0  0  0  0  0  0  0  0  0  0
   -8.8674    0.9220    1.2156 C   0  0  0  0  0  0  0  0  0  0  0  0
    7.2948    1.7163   -0.1482 C   0  0  0  0  0  0  0  0  0  0  0  0
    2.1749    0.0291    1.9238 H   0  0  0  0  0  0  0  0  0  0  0  0
    2.9399   -1.5953   -2.0013 H   0  0  0  0  0  0  0  0  0  0  0  0
    4.1773   -2.8680    1.1411 H   0  0  0  0  0  0  0  0  0  0  0  0
   -0.1701    0.0956    1.4664 H   0  0  0  0  0  0  0  0  0  0  0  0
    0.5366   -1.5361   -2.4933 H   0  0  0  0  0  0  0  0  0  0  0  0
   -5.9316   -0.6753   -2.0454 H   0  0  0  0  0  0  0  0  0  0  0  0
   -6.5139    1.1867    2.5194 H   0  0  0  0  0  0  0  0  0  0  0  0
   -4.3165    0.6505    1.7490 H   0  0  0  0  0  0  0  0  0  0  0  0
   -1.6402   -1.0215   -1.7699 H   0  0  0  0  0  0  0  0  0  0  0  0
   -3.6206   -0.7599   -1.6395 H   0  0  0  0  0  0  0  0  0  0  0  0
   -9.2129   -0.8921   -1.0263 H   0  0  0  0  0  0  0  0  0  0  0  0
   -9.0383    0.7628   -1.6790 H   0  0  0  0  0  0  0  0  0  0  0  0
   -8.2141   -0.5924   -2.4469 H   0  0  0  0  0  0  0  0  0  0  0  0
   -9.3333    1.6902    0.5899 H   0  0  0  0  0  0  0  0  0  0  0  0
   -9.5090    0.0353    1.2424 H   0  0  0  0  0  0  0  0  0  0  0  0
   -8.8234    1.3195    2.2357 H   0  0  0  0  0  0  0  0  0  0  0  0
    8.1702    2.3499   -0.2396 H   0  0  0  0  0  0  0  0  0  0  0  0
    3.8025    2.9423   -1.3383 H   0  0  0  0  0  0  0  0  0  0  0  0
    2.9440    1.4902   -0.9048 H   0  0  0  0  0  0  0  0  0  0  0  0
  1 11  1  0  0  0  0
  1 15  1  0  0  0  0
  2 26  2  0  0  0  0
  3 14  1  0  0  0  0
  3 26  1  0  0  0  0
  3 37  1  0  0  0  0
  4 18  1  0  0  0  0
  4 26  1  0  0  0  0
  4 38  1  0  0  0  0
  5 11  2  0  0  0  0
  5 28  1  0  0  0  0
  6 21  1  0  0  0  0
  6 28  2  0  0  0  0
  7 21  1  0  0  0  0
  7 46  1  0  0  0  0
  7 47  1  0  0  0  0
  8  9  1  0  0  0  0
  8 10  1  0  0  0  0
  8 15  2  0  0  0  0
  9 12  2  0  0  0  0
  9 13  1  0  0  0  0
 10 11  1  0  0  0  0
 10 21  2  0  0  0  0
 12 19  1  0  0  0  0
 12 29  1  0  0  0  0
 13 20  2  0  0  0  0
 13 30  1  0  0  0  0
 14 19  2  0  0  0  0
 14 20  1  0  0  0  0
 15 31  1  0  0  0  0
 16 17  2  0  0  0  0
 16 22  1  0  0  0  0
 16 25  1  0  0  0  0
 17 23  1  0  0  0  0
 17 27  1  0  0  0  0
 18 22  2  0  0  0  0
 18 24  1  0  0  0  0
 19 32  1  0  0  0  0
 20 33  1  0  0  0  0
 22 34  1  0  0  0  0
 23 24  2  0  0  0  0
 23 35  1  0  0  0  0
 24 36  1  0  0  0  0
 25 39  1  0  0  0  0
 25 40  1  0  0  0  0
 25 41  1  0  0  0  0
 27 42  1  0  0  0  0
 27 43  1  0  0  0  0
 27 44  1  0  0  0  0
 28 45  1  0  0  0  0
M  END
> <PUBCHEM_COMPOUND_CID>
49830354

> <PUBCHEM_CONFORMER_RMSD>
0.8

> <PUBCHEM_CONFORMER_DIVERSEORDER>
1
14
21
7
30
13
10
17
32
18
16
3
8
27
15
31
2
11
29
19
25
20
4
5
22
9
28
6
26
23
12
24

> <PUBCHEM_MMFF94_PARTIAL_CHARGES>
40
1 -0.08
11 0.3
12 -0.15
13 -0.15
14 0.12
15 -0.11
16 -0.14
17 -0.14
18 0.12
19 -0.15
2 -0.57
20 -0.15
21 0.41
22 -0.15
23 -0.15
24 -0.15
25 0.14
26 0.69
27 0.14
28 0.47
29 0.15
3 -0.55
30 0.15
31 0.15
32 0.15
33 0.15
34 0.15
35 0.15
36 0.15
37 0.37
38 0.37
4 -0.55
45 0.15
46 0.4
47 0.4
5 -0.57
6 -0.62
7 -0.9
8 -0.05
9 0.05

> <PUBCHEM_EFFECTIVE_ROTOR_COUNT>
5

> <PUBCHEM_PHARMACOPHORE_FEATURES>
11
1 2 acceptor
1 3 donor
1 4 donor
1 5 acceptor
1 7 cation
1 7 donor
3 5 6 28 cation
5 1 8 10 11 15 rings
6 16 17 18 22 23 24 rings
6 5 6 10 11 21 28 rings
6 9 12 13 14 19 20 rings

> <PUBCHEM_HEAVY_ATOM_COUNT>
28

> <PUBCHEM_ATOM_DEF_STEREO_COUNT>
0

> <PUBCHEM_ATOM_UDEF_STEREO_COUNT>
0

> <PUBCHEM_BOND_DEF_STEREO_COUNT>
0

> <PUBCHEM_BOND_UDEF_STEREO_COUNT>
0

> <PUBCHEM_ISOTOPIC_ATOM_COUNT>
0

> <PUBCHEM_COMPONENT_COUNT>
1

> <PUBCHEM_CACTVS_TAUTO_COUNT>
12

> <PUBCHEM_CONFORMER_ID>
02F859D200000001

> <PUBCHEM_MMFF94_ENERGY>
89.0814

> <PUBCHEM_FEATURE_SELFOVERLAP>
55.951

> <PUBCHEM_SHAPE_FINGERPRINT>
10 15 16081372985519752028
10162869 55 18335974359127709647
10299344 5 18201998824612962643
10411042 1 17900531287169768778
10906281 52 17988938768286112939
11135609 127 16773507889722531240
11315181 36 18341893005526325047
11524674 6 16370449956225057091
11646440 116 16443068291827638613
11719270 70 17346597439493907702
12089408 11 18060698382109531251
12166972 35 8502367837061384279
12236239 1 18272367594866547966
125118 31 18410857620950944537
13383665 225 17202789023789072009
13533116 47 17894910681525998642
14170010 4 17530684308035345702
14251764 18 18131348609801002075
14294032 229 17704070664306190645
14849402 71 18338801216529572657
15131766 46 18118399790215693188
15183329 4 17561368387405490433
15301273 46 16298099874106824215
15419008 47 16805316695766357453
15419008 91 16153696653098166199
15461852 350 17060335254360476879
1577012 14 18273213114264163431
15840311 113 18343301492511327236
15849732 13 16950282897399960067
16120349 18 18334570265372219580
16989713 51 16557892577078242287
17093844 174 17022619772440002375
20157964 124 18334575733604266890
20771845 171 18060145328051209942
21033648 29 17241609593074738624
21150785 3 16128658565556991701
21267235 1 14707216487457389375
21792934 111 17095242510748502309
22224240 67 17676486155206257643
22956985 138 12759080852004808432
23081809 10 18202557384788320567
23576562 1 17344901038964929877
255183 451 17913780423421741574
3092352 35 18273493481176826207
3383291 50 15357705193238067313
397830 11 17386581283000858753
4073 2 17822295742282393530
4325135 7 18342457040877364213
4340502 62 17676487250892390514
445580 37 16343712015037869825
45377200 153 12247379230317859173
5758199 1 17989488507226125903
59520757 100 16343129350899912646
59682541 35 15936411173633186812
59755656 215 15123795071731777684
68570916 9 18115031938865327535

> <PUBCHEM_SHAPE_MULTIPOLES>
549.3
28.42
1.63
1.36
33.29
0.42
0.01
8.26
-3.2
-4
0.14
1.42
-0.14
-2.52

> <PUBCHEM_SHAPE_SELFOVERLAP>
1201.453

> <PUBCHEM_SHAPE_VOLUME>
299.5

> <PUBCHEM_COORDINATE_TYPE>
2
5
10

$$$$
