49830740
  -OEChem-10052115193D

 43 45  0     1  0  0  0  0  0999 V2000
   -0.4594   -3.6528    0.5875 O   0  0  0  0  0  0  0  0  0  0  0  0
    2.5797   -3.6513    0.8747 O   0  0  0  0  0  0  0  0  0  0  0  0
   -0.5148   -0.6372   -0.5280 N   0  0  0  0  0  0  0  0  0  0  0  0
    2.8350   -0.6392   -0.2098 N   0  0  0  0  0  0  0  0  0  0  0  0
    3.0176    3.5685    0.0140 N   0  0  0  0  0  0  0  0  0  0  0  0
   -2.7688    0.2466   -0.4671 C   0  0  0  0  0  0  0  0  0  0  0  0
   -2.3570    1.1810    0.6785 C   0  0  0  0  0  0  0  0  0  0  0  0
   -4.2578   -0.1126   -0.3709 C   0  0  0  0  0  0  0  0  0  0  0  0
   -1.9085   -1.0156   -0.4694 C   0  0  1  0  0  0  0  0  0  0  0  0
   -3.2385    2.4266    0.7345 C   0  0  0  0  0  0  0  0  0  0  0  0
   -5.1360    1.1352   -0.3133 C   0  0  0  0  0  0  0  0  0  0  0  0
   -4.7182    2.0656    0.8211 C   0  0  0  0  0  0  0  0  0  0  0  0
   -2.2460   -1.9102   -1.6531 C   0  0  0  0  0  0  0  0  0  0  0  0
    0.4599   -1.4278   -0.1445 C   0  0  0  0  0  0  0  0  0  0  0  0
    1.8115   -1.4271   -0.0167 C   0  0  0  0  0  0  0  0  0  0  0  0
    0.3541   -2.7987    0.3502 C   0  0  0  0  0  0  0  0  0  0  0  0
    1.8242   -2.7980    0.4891 C   0  0  0  0  0  0  0  0  0  0  0  0
    2.8963    0.7798   -0.1343 C   0  0  0  0  0  0  0  0  0  0  0  0
    3.8002    1.4821   -0.9238 C   0  0  0  0  0  0  0  0  0  0  0  0
    2.0530    1.4702    0.7292 C   0  0  0  0  0  0  0  0  0  0  0  0
    3.8212    2.8631   -0.8134 C   0  0  0  0  0  0  0  0  0  0  0  0
    2.1522    2.8518    0.7656 C   0  0  0  0  0  0  0  0  0  0  0  0
   -2.6105    0.7904   -1.4101 H   0  0  0  0  0  0  0  0  0  0  0  0
   -1.3185    1.5126    0.5727 H   0  0  0  0  0  0  0  0  0  0  0  0
   -2.4248    0.6497    1.6366 H   0  0  0  0  0  0  0  0  0  0  0  0
   -4.4411   -0.7256    0.5207 H   0  0  0  0  0  0  0  0  0  0  0  0
   -4.5793   -0.6993   -1.2375 H   0  0  0  0  0  0  0  0  0  0  0  0
   -2.1059   -1.5666    0.4599 H   0  0  0  0  0  0  0  0  0  0  0  0
   -2.9580    3.0379    1.5998 H   0  0  0  0  0  0  0  0  0  0  0  0
   -3.0633    3.0384   -0.1591 H   0  0  0  0  0  0  0  0  0  0  0  0
   -5.0711    1.6718   -1.2679 H   0  0  0  0  0  0  0  0  0  0  0  0
   -6.1840    0.8428   -0.1822 H   0  0  0  0  0  0  0  0  0  0  0  0
   -4.9194    1.5800    1.7839 H   0  0  0  0  0  0  0  0  0  0  0  0
   -5.3232    2.9788    0.7913 H   0  0  0  0  0  0  0  0  0  0  0  0
   -0.3150    0.2687   -0.9463 H   0  0  0  0  0  0  0  0  0  0  0  0
   -1.5326   -2.7333   -1.7643 H   0  0  0  0  0  0  0  0  0  0  0  0
   -3.2328   -2.3703   -1.5461 H   0  0  0  0  0  0  0  0  0  0  0  0
   -2.2293   -1.3490   -2.5945 H   0  0  0  0  0  0  0  0  0  0  0  0
    3.7696   -1.0343   -0.3011 H   0  0  0  0  0  0  0  0  0  0  0  0
    4.4716    0.9748   -1.6085 H   0  0  0  0  0  0  0  0  0  0  0  0
    1.3428    0.9692    1.3777 H   0  0  0  0  0  0  0  0  0  0  0  0
    4.5075    3.4574   -1.4075 H   0  0  0  0  0  0  0  0  0  0  0  0
    1.5192    3.4367    1.4248 H   0  0  0  0  0  0  0  0  0  0  0  0
  1 16  2  0  0  0  0
  2 17  2  0  0  0  0
  3  9  1  0  0  0  0
  3 14  1  0  0  0  0
  3 35  1  0  0  0  0
  4 15  1  0  0  0  0
  4 18  1  0  0  0  0
  4 39  1  0  0  0  0
  5 21  2  0  0  0  0
  5 22  1  0  0  0  0
  6  7  1  0  0  0  0
  6  8  1  0  0  0  0
  6  9  1  0  0  0  0
  6 23  1  0  0  0  0
  7 10  1  0  0  0  0
  7 24  1  0  0  0  0
  7 25  1  0  0  0  0
  8 11  1  0  0  0  0
  8 26  1  0  0  0  0
  8 27  1  0  0  0  0
  9 13  1  0  0  0  0
  9 28  1  0  0  0  0
 10 12  1  0  0  0  0
 10 29  1  0  0  0  0
 10 30  1  0  0  0  0
 11 12  1  0  0  0  0
 11 31  1  0  0  0  0
 11 32  1  0  0  0  0
 12 33  1  0  0  0  0
 12 34  1  0  0  0  0
 13 36  1  0  0  0  0
 13 37  1  0  0  0  0
 13 38  1  0  0  0  0
 14 15  2  0  0  0  0
 14 16  1  0  0  0  0
 15 17  1  0  0  0  0
 16 17  1  0  0  0  0
 18 19  2  0  0  0  0
 18 20  1  0  0  0  0
 19 21  1  0  0  0  0
 19 40  1  0  0  0  0
 20 22  2  0  0  0  0
 20 41  1  0  0  0  0
 21 42  1  0  0  0  0
 22 43  1  0  0  0  0
M  END
> <PUBCHEM_COMPOUND_CID>
49830740

> <PUBCHEM_CONFORMER_RMSD>
0.8

> <PUBCHEM_CONFORMER_DIVERSEORDER>
1
98
75
90
92
20
40
183
146
166
181
256
147
76
15
199
105
140
70
112
136
80
186
48
217
244
143
207
246
86
37
222
97
240
191
59
159
61
100
185
71
19
67
132
113
119
127
74
82
69
178
163
184
30
95
13
115
153
123
38
138
128
209
126
55
210
157
221
81
68
190
219
130
257
83
228
84
35
208
52
10
254
133
194
4
107
25
18
8
197
42
129
87
34
5
91
167
17
101
211
60
27
88
118
65
233
182
9
46
255
79
229
175
243
44
54
104
109
203
150
131
226
195
53
56
135
187
212
26
51
14
216
231
149
223
108
237
160
43
45
3
259
50
204
16
260
7
12
193
202
151
57
173
241
261
155
145
144
24
120
262
22
152
11
31
41
174
236
156
21
78
32
122
168
225
248
213
235
180
28
250
73
170
242
158
124
2
251
249
142
205
117
161
93
66
198
89
258
239
218
171
253
63
64
36
189
49
111
102
232
238
224
58
196
172
47
230
165
192
179
245
214
227
39
148
23
85
188
29
169
176
137
99
94
110
134
72
206
154
200
220
116
247
106
164
62
33
103
96
201
139
121
6
215
252
125
77
162
177
114
141
234

> <PUBCHEM_MMFF94_PARTIAL_CHARGES>
21
1 -0.57
14 0.03
15 0.03
16 0.64
17 0.64
18 0.1
19 -0.15
2 -0.57
20 -0.15
21 0.16
22 0.16
3 -0.87
35 0.4
39 0.4
4 -0.6
40 0.15
41 0.15
42 0.15
43 0.15
5 -0.62
9 0.37

> <PUBCHEM_EFFECTIVE_ROTOR_COUNT>
6.2

> <PUBCHEM_PHARMACOPHORE_FEATURES>
10
1 1 acceptor
1 2 acceptor
1 3 cation
1 3 donor
1 4 cation
1 4 donor
1 5 acceptor
4 14 15 16 17 rings
6 5 18 19 20 21 22 rings
6 6 7 8 10 11 12 rings

> <PUBCHEM_HEAVY_ATOM_COUNT>
22

> <PUBCHEM_ATOM_DEF_STEREO_COUNT>
0

> <PUBCHEM_ATOM_UDEF_STEREO_COUNT>
1

> <PUBCHEM_BOND_DEF_STEREO_COUNT>
0

> <PUBCHEM_BOND_UDEF_STEREO_COUNT>
0

> <PUBCHEM_ISOTOPIC_ATOM_COUNT>
0

> <PUBCHEM_COMPONENT_COUNT>
1

> <PUBCHEM_CACTVS_TAUTO_COUNT>
11

> <PUBCHEM_CONFORMER_ID>
02F85B5400000001

> <PUBCHEM_MMFF94_ENERGY>
56.0829

> <PUBCHEM_FEATURE_SELFOVERLAP>
50.747

> <PUBCHEM_SHAPE_FINGERPRINT>
10006869 2 18193271017181803411
10165383 225 18114475512898371860
10498660 4 18197211658043771509
10937287 8 18265053702988949068
10940486 97 17916573246668782182
1100329 8 18410575055205313762
12173636 292 17977102684568813294
12769317 202 18410565171952906741
12788726 201 17688863559405513938
13464514 151 18340778117245534822
13583140 156 17899701151114840129
13590594 115 17833274125409376178
138480 1 18049724022965510288
13878862 14 18045479955934188605
13965767 371 17968922197878515124
14117953 113 17334498199162747477
14123250 116 18269833284355875359
14787075 74 18196086875371705895
14848178 96 18409443717521838381
14931854 50 18201442501451987197
14955137 171 18121221978618372218
15342168 16 18187648041527859005
15475509 8 17912660007813413934
17868525 174 17829601765141680049
17980427 23 17984387868416260626
20465049 17 18269296606701598844
20510252 161 17688309405756072322
20671657 1 18341326704248010809
21041028 32 17759517764548125406
21524375 3 18340485659747414806
21860390 5 18055632815622693799
21864079 5 18339359793989378624
22182937 141 18121786285564408076
2255824 54 18338517413400538515
23558518 356 18268707401544466846
23559900 14 18266449920016777547
23845131 108 18260548952700850627
2637199 183 18341060678458860396
283562 15 17904477755247686071
38570 142 18267044832768610844
44555599 121 18055069853914147841
474 4 18408319990783628905
5048184 11 18339645641237853189
5312544 6 18411695479091819693
6034566 193 17680159748140585173
633830 44 18341048622453791700
7808743 9 17974292324380291124
84936 182 18413385458037937056
9981440 41 18193265515037709386

> <PUBCHEM_SHAPE_MULTIPOLES>
426.07
8.82
4.84
1.04
6.9
1.47
-0.16
-7.72
-0.75
-3.92
1.09
0.14
0.08
-1.82

> <PUBCHEM_SHAPE_SELFOVERLAP>
906.815

> <PUBCHEM_SHAPE_VOLUME>
231.9

> <PUBCHEM_COORDINATE_TYPE>
2
5
10

$$$$
