24905226
  -OEChem-10052115143D

 40 43  0     0  0  0  0  0  0999 V2000
    6.6922    0.1358   -0.0133 O   0  0  0  0  0  0  0  0  0  0  0  0
   -2.9366    1.0456    0.0499 N   0  0  0  0  0  0  0  0  0  0  0  0
   -1.6512    1.4022   -0.1296 N   0  0  0  0  0  0  0  0  0  0  0  0
   -4.2881   -0.9491    0.2892 N   0  0  0  0  0  0  0  0  0  0  0  0
    4.5713    0.1337   -0.9097 N   0  0  0  0  0  0  0  0  0  0  0  0
   -2.9342   -2.9749    0.1752 N   0  0  0  0  0  0  0  0  0  0  0  0
   -0.5680   -2.9293   -0.1351 N   0  0  0  0  0  0  0  0  0  0  0  0
   -3.9513    2.0675    0.1510 C   0  0  0  0  0  0  0  0  0  0  0  0
   -1.0069    0.2310   -0.1775 C   0  0  0  0  0  0  0  0  0  0  0  0
   -1.8704   -0.8705   -0.0300 C   0  0  0  0  0  0  0  0  0  0  0  0
   -3.1240   -0.3031    0.1165 C   0  0  0  0  0  0  0  0  0  0  0  0
    0.4173    0.2067   -0.3635 C   0  0  0  0  0  0  0  0  0  0  0  0
   -3.7208    2.9718    1.3644 C   0  0  0  0  0  0  0  0  0  0  0  0
   -4.0484    2.8937   -1.1340 C   0  0  0  0  0  0  0  0  0  0  0  0
    1.2648    0.2314    0.7462 C   0  0  0  0  0  0  0  0  0  0  0  0
   -1.7968   -2.2591    0.0037 C   0  0  0  0  0  0  0  0  0  0  0  0
    2.6509    0.2072    0.5672 C   0  0  0  0  0  0  0  0  0  0  0  0
    0.9491    0.1577   -1.6530 C   0  0  0  0  0  0  0  0  0  0  0  0
    3.1762    0.1581   -0.7294 C   0  0  0  0  0  0  0  0  0  0  0  0
    2.3307    0.1330   -1.8401 C   0  0  0  0  0  0  0  0  0  0  0  0
    3.5705    0.2319    1.7021 C   0  0  0  0  0  0  0  0  0  0  0  0
   -4.0925   -2.2853    0.3053 C   0  0  0  0  0  0  0  0  0  0  0  0
    4.8939    0.2079    1.5076 C   0  0  0  0  0  0  0  0  0  0  0  0
    5.4723    0.1562    0.1369 C   0  0  0  0  0  0  0  0  0  0  0  0
   -4.9132    1.5601    0.2930 H   0  0  0  0  0  0  0  0  0  0  0  0
   -2.7901    3.5427    1.2735 H   0  0  0  0  0  0  0  0  0  0  0  0
   -3.6597    2.3807    2.2849 H   0  0  0  0  0  0  0  0  0  0  0  0
   -4.5436    3.6859    1.4760 H   0  0  0  0  0  0  0  0  0  0  0  0
   -3.1303    3.4616   -1.3211 H   0  0  0  0  0  0  0  0  0  0  0  0
   -4.8779    3.6062   -1.0735 H   0  0  0  0  0  0  0  0  0  0  0  0
   -4.2217    2.2467   -2.0010 H   0  0  0  0  0  0  0  0  0  0  0  0
    0.8473    0.2690    1.7508 H   0  0  0  0  0  0  0  0  0  0  0  0
    0.2982    0.1373   -2.5241 H   0  0  0  0  0  0  0  0  0  0  0  0
    2.7341    0.0945   -2.8483 H   0  0  0  0  0  0  0  0  0  0  0  0
    3.1610    0.2696    2.7057 H   0  0  0  0  0  0  0  0  0  0  0  0
    4.9289    0.0982   -1.8601 H   0  0  0  0  0  0  0  0  0  0  0  0
   -4.9835   -2.8890    0.4410 H   0  0  0  0  0  0  0  0  0  0  0  0
    0.2957   -2.4230   -0.2639 H   0  0  0  0  0  0  0  0  0  0  0  0
   -0.5593   -3.9400   -0.1045 H   0  0  0  0  0  0  0  0  0  0  0  0
    5.5835    0.2258    2.3441 H   0  0  0  0  0  0  0  0  0  0  0  0
  1 24  2  0  0  0  0
  2  3  1  0  0  0  0
  2  8  1  0  0  0  0
  2 11  1  0  0  0  0
  3  9  2  0  0  0  0
  4 11  2  0  0  0  0
  4 22  1  0  0  0  0
  5 19  1  0  0  0  0
  5 24  1  0  0  0  0
  5 36  1  0  0  0  0
  6 16  1  0  0  0  0
  6 22  2  0  0  0  0
  7 16  1  0  0  0  0
  7 38  1  0  0  0  0
  7 39  1  0  0  0  0
  8 13  1  0  0  0  0
  8 14  1  0  0  0  0
  8 25  1  0  0  0  0
  9 10  1  0  0  0  0
  9 12  1  0  0  0  0
 10 11  1  0  0  0  0
 10 16  2  0  0  0  0
 12 15  2  0  0  0  0
 12 18  1  0  0  0  0
 13 26  1  0  0  0  0
 13 27  1  0  0  0  0
 13 28  1  0  0  0  0
 14 29  1  0  0  0  0
 14 30  1  0  0  0  0
 14 31  1  0  0  0  0
 15 17  1  0  0  0  0
 15 32  1  0  0  0  0
 17 19  2  0  0  0  0
 17 21  1  0  0  0  0
 18 20  2  0  0  0  0
 18 33  1  0  0  0  0
 19 20  1  0  0  0  0
 20 34  1  0  0  0  0
 21 23  2  0  0  0  0
 21 35  1  0  0  0  0
 22 37  1  0  0  0  0
 23 24  1  0  0  0  0
 23 40  1  0  0  0  0
M  END
> <PUBCHEM_COMPOUND_CID>
24905226

> <PUBCHEM_CONFORMER_RMSD>
0.6

> <PUBCHEM_CONFORMER_DIVERSEORDER>
2
5
4
3
6
1

> <PUBCHEM_MMFF94_PARTIAL_CHARGES>
30
1 -0.57
11 0.11
12 0.05
15 -0.15
16 0.41
17 0.03
18 -0.15
19 0.12
2 0.31
20 -0.15
21 -0.18
22 0.47
23 -0.14
24 0.62
3 -0.71
32 0.15
33 0.15
34 0.15
35 0.15
36 0.37
37 0.15
38 0.4
39 0.4
4 -0.57
40 0.15
5 -0.55
6 -0.62
7 -0.9
8 0.26
9 0.23

> <PUBCHEM_EFFECTIVE_ROTOR_COUNT>
2

> <PUBCHEM_PHARMACOPHORE_FEATURES>
12
1 1 acceptor
1 3 acceptor
1 5 donor
1 7 cation
1 7 donor
3 2 4 11 cation
3 4 6 22 cation
3 8 13 14 hydrophobe
5 2 3 9 10 11 rings
6 12 15 17 18 19 20 rings
6 4 6 10 11 16 22 rings
6 5 17 19 21 23 24 rings

> <PUBCHEM_HEAVY_ATOM_COUNT>
24

> <PUBCHEM_ATOM_DEF_STEREO_COUNT>
0

> <PUBCHEM_ATOM_UDEF_STEREO_COUNT>
0

> <PUBCHEM_BOND_DEF_STEREO_COUNT>
0

> <PUBCHEM_BOND_UDEF_STEREO_COUNT>
0

> <PUBCHEM_ISOTOPIC_ATOM_COUNT>
0

> <PUBCHEM_COMPONENT_COUNT>
1

> <PUBCHEM_CACTVS_TAUTO_COUNT>
14

> <PUBCHEM_CONFORMER_ID>
017C060A00000002

> <PUBCHEM_MMFF94_ENERGY>
59.9302

> <PUBCHEM_FEATURE_SELFOVERLAP>
61.201

> <PUBCHEM_SHAPE_FINGERPRINT>
10319926 262 18342726409137716538
10411042 1 17977948209512512163
105312 117 18188763925898424277
11049842 53 18119839956852414870
11315181 36 18187082892862443908
11545043 162 18272933834516738490
12107183 9 17973151834532120306
12236239 1 17676488379925099806
12390115 104 18271816661941535849
12403259 415 17775566464047714120
12422481 6 17824531985993447298
12500047 106 18412542094017481166
12616971 3 17095245809256881412
12633257 1 18058179477920908331
12788726 201 18118420654855164155
13009979 54 17824550887917708935
13140716 1 18122635109311334179
13583140 156 17989199352726252486
14178342 30 18408890615870144487
14294032 229 18263076640313865925
15042514 8 18194123143241335587
15842332 3 17677066744389455492
16752209 62 18408318913158534631
17844677 252 18340772636841242168
1813 80 16805323254545388574
19489759 90 18341889692988130109
200 152 16443055127937342966
20511986 3 17604131692991789556
20554085 129 18127106608110671369
20600515 1 18270132231239343708
20645477 70 14851871565785746648
21033648 29 17346305004081832816
21065201 7 18412270527625469390
21279426 13 18128826257313387598
212916 134 18340478967861371841
21792961 116 17561373864448829828
22182313 1 17703242757698414614
23402539 116 18341326786300925679
23557571 272 18273223001294897732
23559900 14 18200041634002316094
25147074 1 17895771697492665629
312423 11 17895486945540121948
34797466 226 18057622030522589932
4214541 1 18410012147842713216
469060 322 18266199326118630865
5104073 3 18340205194204291082
5265222 85 18198635513740018646
573450 72 18259701211717738460
602551 16 18411138078120360034
6327066 14 18042959870904144421
77492 1 17676210203372405343
9849439 229 17836369246611401529
9862522 239 17823127926798182077

> <PUBCHEM_SHAPE_MULTIPOLES>
458.15
11.78
2.8
1.35
12.8
0.57
0.11
-2.98
-1.95
-6.47
-0.27
1.1
-0.5
0.22

> <PUBCHEM_SHAPE_SELFOVERLAP>
1021.989

> <PUBCHEM_SHAPE_VOLUME>
242.5

> <PUBCHEM_COORDINATE_TYPE>
2
5
10

$$$$
