49830453
  -OEChem-10062121553D

 50 52  0     0  0  0  0  0  0999 V2000
    2.4611    0.0667   -1.0579 O   0  0  0  0  0  0  0  0  0  0  0  0
   -6.2756    2.7028    0.2122 O   0  0  0  0  0  0  0  0  0  0  0  0
    1.0021   -3.9588    0.6668 N   0  0  0  0  0  0  0  0  0  0  0  0
    2.3231   -4.0970    0.4647 N   0  0  0  0  0  0  0  0  0  0  0  0
    3.9480   -2.5687   -0.3967 N   0  0  0  0  0  0  0  0  0  0  0  0
   -7.2246    0.6369   -0.0874 N   0  0  0  0  0  0  0  0  0  0  0  0
    4.7315    2.8495    0.2362 C   0  0  0  0  0  0  0  0  0  0  0  0
    4.2301    1.5794   -0.4956 C   0  0  0  0  0  0  0  0  0  0  0  0
    6.2290    3.0287   -0.0807 C   0  0  0  0  0  0  0  0  0  0  0  0
    4.5672    2.7133    1.7587 C   0  0  0  0  0  0  0  0  0  0  0  0
    3.9775    4.1002   -0.2446 C   0  0  0  0  0  0  0  0  0  0  0  0
    2.7421    1.2721   -0.3543 C   0  0  0  0  0  0  0  0  0  0  0  0
    1.4214   -0.6916   -0.5890 C   0  0  0  0  0  0  0  0  0  0  0  0
    1.6021   -2.0131   -0.1478 C   0  0  0  0  0  0  0  0  0  0  0  0
    0.5067   -2.7310    0.3193 C   0  0  0  0  0  0  0  0  0  0  0  0
   -0.9479   -0.8840   -0.0680 C   0  0  0  0  0  0  0  0  0  0  0  0
    0.1347   -0.1407   -0.5419 C   0  0  0  0  0  0  0  0  0  0  0  0
   -0.7841   -2.2006    0.3745 C   0  0  0  0  0  0  0  0  0  0  0  0
    2.6845   -2.9113   -0.0309 C   0  0  0  0  0  0  0  0  0  0  0  0
   -2.2652   -0.2834   -0.0340 C   0  0  0  0  0  0  0  0  0  0  0  0
   -3.3996   -1.0812   -0.1837 C   0  0  0  0  0  0  0  0  0  0  0  0
   -2.3996    1.0928    0.1491 C   0  0  0  0  0  0  0  0  0  0  0  0
   -4.6683   -0.5027   -0.1504 C   0  0  0  0  0  0  0  0  0  0  0  0
   -3.6683    1.6714    0.1822 C   0  0  0  0  0  0  0  0  0  0  0  0
   -4.8027    0.8736    0.0324 C   0  0  0  0  0  0  0  0  0  0  0  0
   -6.1253    1.4767    0.0669 C   0  0  0  0  0  0  0  0  0  0  0  0
    4.8000    0.7071   -0.1470 H   0  0  0  0  0  0  0  0  0  0  0  0
    4.4617    1.6563   -1.5671 H   0  0  0  0  0  0  0  0  0  0  0  0
    6.3946    3.1476   -1.1574 H   0  0  0  0  0  0  0  0  0  0  0  0
    6.6381    3.9149    0.4177 H   0  0  0  0  0  0  0  0  0  0  0  0
    6.8103    2.1618    0.2534 H   0  0  0  0  0  0  0  0  0  0  0  0
    5.0565    1.8055    2.1291 H   0  0  0  0  0  0  0  0  0  0  0  0
    5.0136    3.5675    2.2808 H   0  0  0  0  0  0  0  0  0  0  0  0
    3.5133    2.6713    2.0519 H   0  0  0  0  0  0  0  0  0  0  0  0
    4.4057    5.0099    0.1920 H   0  0  0  0  0  0  0  0  0  0  0  0
    4.0303    4.1984   -1.3346 H   0  0  0  0  0  0  0  0  0  0  0  0
    2.9209    4.0727    0.0414 H   0  0  0  0  0  0  0  0  0  0  0  0
    2.1386    2.0734   -0.7923 H   0  0  0  0  0  0  0  0  0  0  0  0
    2.4770    1.1650    0.7038 H   0  0  0  0  0  0  0  0  0  0  0  0
    0.0044    0.8678   -0.9281 H   0  0  0  0  0  0  0  0  0  0  0  0
   -1.5902   -2.8033    0.7779 H   0  0  0  0  0  0  0  0  0  0  0  0
    0.4920   -4.7460    1.0474 H   0  0  0  0  0  0  0  0  0  0  0  0
   -3.3428   -2.1518   -0.3603 H   0  0  0  0  0  0  0  0  0  0  0  0
   -1.5481    1.7499    0.3037 H   0  0  0  0  0  0  0  0  0  0  0  0
    4.7246   -3.2169   -0.3112 H   0  0  0  0  0  0  0  0  0  0  0  0
    4.1860   -1.6566   -0.7741 H   0  0  0  0  0  0  0  0  0  0  0  0
   -5.5035   -1.1802   -0.2810 H   0  0  0  0  0  0  0  0  0  0  0  0
   -3.7480    2.7448    0.3334 H   0  0  0  0  0  0  0  0  0  0  0  0
   -8.1586    1.0348   -0.0742 H   0  0  0  0  0  0  0  0  0  0  0  0
   -7.1937   -0.3664   -0.2135 H   0  0  0  0  0  0  0  0  0  0  0  0
  1 12  1  0  0  0  0
  1 13  1  0  0  0  0
  2 26  2  0  0  0  0
  3  4  1  0  0  0  0
  3 15  1  0  0  0  0
  3 42  1  0  0  0  0
  4 19  2  0  0  0  0
  5 19  1  0  0  0  0
  5 45  1  0  0  0  0
  5 46  1  0  0  0  0
  6 26  1  0  0  0  0
  6 49  1  0  0  0  0
  6 50  1  0  0  0  0
  7  8  1  0  0  0  0
  7  9  1  0  0  0  0
  7 10  1  0  0  0  0
  7 11  1  0  0  0  0
  8 12  1  0  0  0  0
  8 27  1  0  0  0  0
  8 28  1  0  0  0  0
  9 29  1  0  0  0  0
  9 30  1  0  0  0  0
  9 31  1  0  0  0  0
 10 32  1  0  0  0  0
 10 33  1  0  0  0  0
 10 34  1  0  0  0  0
 11 35  1  0  0  0  0
 11 36  1  0  0  0  0
 11 37  1  0  0  0  0
 12 38  1  0  0  0  0
 12 39  1  0  0  0  0
 13 14  1  0  0  0  0
 13 17  2  0  0  0  0
 14 15  2  0  0  0  0
 14 19  1  0  0  0  0
 15 18  1  0  0  0  0
 16 17  1  0  0  0  0
 16 18  2  0  0  0  0
 16 20  1  0  0  0  0
 17 40  1  0  0  0  0
 18 41  1  0  0  0  0
 20 21  2  0  0  0  0
 20 22  1  0  0  0  0
 21 23  1  0  0  0  0
 21 43  1  0  0  0  0
 22 24  2  0  0  0  0
 22 44  1  0  0  0  0
 23 25  2  0  0  0  0
 23 47  1  0  0  0  0
 24 25  1  0  0  0  0
 24 48  1  0  0  0  0
 25 26  1  0  0  0  0
M  END
> <PUBCHEM_COMPOUND_CID>
49830453

> <PUBCHEM_CONFORMER_RMSD>
0.8

> <PUBCHEM_CONFORMER_DIVERSEORDER>
1
38
12
23
42
4
16
50
15
24
36
10
31
35
6
51
34
40
26
29
5
39
32
14
49
7
3
28
11
21
9
33
2
47
37
17
8
19
13
48
22
43
25
46
44
27
18
41
20
30
45

> <PUBCHEM_MMFF94_PARTIAL_CHARGES>
29
1 -0.36
12 0.28
13 0.08
15 -0.15
17 -0.15
18 -0.15
19 0.37
2 -0.57
21 -0.15
22 -0.15
23 -0.15
24 -0.15
25 0.09
26 0.54
3 0.3
4 -0.71
40 0.15
41 0.15
42 0.27
43 0.15
44 0.15
45 0.4
46 0.4
47 0.15
48 0.15
49 0.37
5 -0.88
50 0.37
6 -0.8

> <PUBCHEM_EFFECTIVE_ROTOR_COUNT>
6

> <PUBCHEM_PHARMACOPHORE_FEATURES>
10
1 1 acceptor
1 2 acceptor
1 3 donor
1 5 donor
1 6 donor
3 4 5 19 cation
4 7 9 10 11 hydrophobe
5 3 4 14 15 19 rings
6 13 14 15 16 17 18 rings
6 20 21 22 23 24 25 rings

> <PUBCHEM_HEAVY_ATOM_COUNT>
26

> <PUBCHEM_ATOM_DEF_STEREO_COUNT>
0

> <PUBCHEM_ATOM_UDEF_STEREO_COUNT>
0

> <PUBCHEM_BOND_DEF_STEREO_COUNT>
0

> <PUBCHEM_BOND_UDEF_STEREO_COUNT>
0

> <PUBCHEM_ISOTOPIC_ATOM_COUNT>
0

> <PUBCHEM_COMPONENT_COUNT>
1

> <PUBCHEM_CACTVS_TAUTO_COUNT>
23

> <PUBCHEM_CONFORMER_ID>
02F85A3500000001

> <PUBCHEM_MMFF94_ENERGY>
82.7904

> <PUBCHEM_FEATURE_SELFOVERLAP>
50.836

> <PUBCHEM_SHAPE_FINGERPRINT>
10050765 1 18410575115013648079
10411042 1 17761209913044025602
10595046 47 18413386532607897239
10835480 77 18335135363885974981
11135609 127 18267293254320946733
12107183 9 18262785398628795616
12166972 35 18055914290631234555
12236239 1 18124595289419984327
12293681 160 17917437565696745552
12403259 327 15647060416386256340
12769317 202 18343294894613476496
12788726 201 17346323627339954073
12925494 130 18338231682844077650
12930653 34 18264213684558275026
13140716 1 18333449850571812618
13540713 4 18264227935523838666
138480 1 18193557757803307470
13878862 14 18190442880159384589
13955234 65 18263084323129273451
13965767 371 18040707104537525308
14461889 52 18114471153860052731
14739800 52 18273207586826259729
14790565 3 18265617778081662949
14849402 71 18337113376286459104
15230672 131 18263367053544222172
15420108 30 18337662131209982686
15664445 248 17984433944931148190
15890870 6 18338237184133837436
15927050 60 18339924934756565934
17980427 26 18339067246961987358
18681886 176 18198056967537089634
20554085 129 17988349473493649360
21033648 144 18334289856291216855
21033648 29 18197210563259939856
21049683 118 18194661873736246096
21133410 127 18040997319536418188
212916 134 18196642111510849872
21304253 13 18194678160432131818
21859007 373 17170097159072097069
22122407 14 18125174740669542561
22149856 69 18117303444690178321
23559900 14 18266456516802006323
23569914 2 17390183171947771261
23845131 108 18334015033517772931
23929065 36 17694767919767074242
249999 5 18409446956048355842
283562 15 17976814616617668015
2838139 119 18058727051913047756
3246875 12 18337956817737704299
3298306 158 18201153377270001224
3411729 13 18408038511670213282
34797466 226 17918002650876387269
350125 39 18263366888837305367
376196 1 18200032979532483478
4058900 60 18337963371378218008
5104073 3 18260836964875787755
5372103 7 14979092844001390040
5385378 56 18409167701427338272
57091435 61 18412263947482701937
57124632 79 18337380565864619104
6697151 62 17539382364261357343
67856867 119 18338795620249865799
7288768 16 18114178700187628571
77188 2 17833550094470693390
84936 182 18342177756660788408
9849439 229 18190749811016816260
9896288 288 17828202431101790834
9981440 41 18263364857323263803

> <PUBCHEM_SHAPE_MULTIPOLES>
503.41
14.68
5.28
0.84
12.36
2.44
0.17
-18.61
0.67
-7.3
0.95
-0.79
-0.21
0.26

> <PUBCHEM_SHAPE_SELFOVERLAP>
1090.965

> <PUBCHEM_SHAPE_VOLUME>
280.1

> <PUBCHEM_COORDINATE_TYPE>
2
5
10

$$$$
