24905302
  -OEChem-10052115163D

 39 42  0     0  0  0  0  0  0999 V2000
    5.4858    1.4134    0.4887 F   0  0  0  0  0  0  0  0  0  0  0  0
    4.3280    1.1285   -1.9911 O   0  0  0  0  0  0  0  0  0  0  0  0
   -1.9521    0.1105   -0.0155 N   0  0  0  0  0  0  0  0  0  0  0  0
   -0.8167    0.8272    0.0790 N   0  0  0  0  0  0  0  0  0  0  0  0
   -2.6806   -2.1950   -0.1420 N   0  0  0  0  0  0  0  0  0  0  0  0
   -0.7948   -3.7413   -0.0823 N   0  0  0  0  0  0  0  0  0  0  0  0
    1.4704   -3.0073    0.0827 N   0  0  0  0  0  0  0  0  0  0  0  0
   -3.2832    0.8262   -0.0708 C   0  0  0  0  0  0  0  0  0  0  0  0
   -3.4429    1.7892   -1.2658 C   0  0  0  0  0  0  0  0  0  0  0  0
   -3.5495    1.6745    1.1854 C   0  0  0  0  0  0  0  0  0  0  0  0
   -3.6365    3.1744   -0.6591 C   0  0  0  0  0  0  0  0  0  0  0  0
   -4.3036    2.8933    0.6757 C   0  0  0  0  0  0  0  0  0  0  0  0
   -1.7451   -1.2364   -0.0510 C   0  0  0  0  0  0  0  0  0  0  0  0
   -0.3749   -1.4144    0.0260 C   0  0  0  0  0  0  0  0  0  0  0  0
    0.1402   -0.1070    0.1040 C   0  0  0  0  0  0  0  0  0  0  0  0
    1.5231    0.2865    0.2019 C   0  0  0  0  0  0  0  0  0  0  0  0
    0.0947   -2.7235    0.0080 C   0  0  0  0  0  0  0  0  0  0  0  0
   -2.1085   -3.4184   -0.1508 C   0  0  0  0  0  0  0  0  0  0  0  0
    2.2653    0.5202   -0.9558 C   0  0  0  0  0  0  0  0  0  0  0  0
    2.1195    0.4339    1.4542 C   0  0  0  0  0  0  0  0  0  0  0  0
    3.6036    0.9015   -0.8612 C   0  0  0  0  0  0  0  0  0  0  0  0
    3.4578    0.8152    1.5489 C   0  0  0  0  0  0  0  0  0  0  0  0
    4.1999    1.0489    0.3911 C   0  0  0  0  0  0  0  0  0  0  0  0
   -4.0343    0.0309   -0.1493 H   0  0  0  0  0  0  0  0  0  0  0  0
   -4.3417    1.5124   -1.8306 H   0  0  0  0  0  0  0  0  0  0  0  0
   -2.5991    1.7672   -1.9626 H   0  0  0  0  0  0  0  0  0  0  0  0
   -2.6180    1.9919    1.6687 H   0  0  0  0  0  0  0  0  0  0  0  0
   -4.1303    1.1211    1.9304 H   0  0  0  0  0  0  0  0  0  0  0  0
   -4.2384    3.8266   -1.2982 H   0  0  0  0  0  0  0  0  0  0  0  0
   -2.6629    3.6535   -0.5015 H   0  0  0  0  0  0  0  0  0  0  0  0
   -4.2353    3.7412    1.3631 H   0  0  0  0  0  0  0  0  0  0  0  0
   -5.3630    2.6517    0.5299 H   0  0  0  0  0  0  0  0  0  0  0  0
   -2.7931   -4.2568   -0.2223 H   0  0  0  0  0  0  0  0  0  0  0  0
    1.8030    0.4054   -1.9342 H   0  0  0  0  0  0  0  0  0  0  0  0
    1.5550    0.2549    2.3662 H   0  0  0  0  0  0  0  0  0  0  0  0
    2.1566   -2.2702    0.1504 H   0  0  0  0  0  0  0  0  0  0  0  0
    1.7690   -3.9733    0.0663 H   0  0  0  0  0  0  0  0  0  0  0  0
    3.9227    0.9296    2.5237 H   0  0  0  0  0  0  0  0  0  0  0  0
    3.7592    0.9797   -2.7660 H   0  0  0  0  0  0  0  0  0  0  0  0
  1 23  1  0  0  0  0
  2 21  1  0  0  0  0
  2 39  1  0  0  0  0
  3  4  1  0  0  0  0
  3  8  1  0  0  0  0
  3 13  1  0  0  0  0
  4 15  2  0  0  0  0
  5 13  2  0  0  0  0
  5 18  1  0  0  0  0
  6 17  1  0  0  0  0
  6 18  2  0  0  0  0
  7 17  1  0  0  0  0
  7 36  1  0  0  0  0
  7 37  1  0  0  0  0
  8  9  1  0  0  0  0
  8 10  1  0  0  0  0
  8 24  1  0  0  0  0
  9 11  1  0  0  0  0
  9 25  1  0  0  0  0
  9 26  1  0  0  0  0
 10 12  1  0  0  0  0
 10 27  1  0  0  0  0
 10 28  1  0  0  0  0
 11 12  1  0  0  0  0
 11 29  1  0  0  0  0
 11 30  1  0  0  0  0
 12 31  1  0  0  0  0
 12 32  1  0  0  0  0
 13 14  1  0  0  0  0
 14 15  1  0  0  0  0
 14 17  2  0  0  0  0
 15 16  1  0  0  0  0
 16 19  2  0  0  0  0
 16 20  1  0  0  0  0
 18 33  1  0  0  0  0
 19 21  1  0  0  0  0
 19 34  1  0  0  0  0
 20 22  2  0  0  0  0
 20 35  1  0  0  0  0
 21 23  2  0  0  0  0
 22 23  1  0  0  0  0
 22 38  1  0  0  0  0
M  END
> <PUBCHEM_COMPOUND_CID>
24905302

> <PUBCHEM_CONFORMER_RMSD>
0.6

> <PUBCHEM_CONFORMER_DIVERSEORDER>
2
3
15
7
16
8
6
13
9
11
14
10
1
4
5
12

> <PUBCHEM_MMFF94_PARTIAL_CHARGES>
25
1 -0.19
13 0.11
15 0.23
16 0.05
17 0.41
18 0.47
19 -0.15
2 -0.53
20 -0.15
21 0.08
22 -0.15
23 0.19
3 0.31
33 0.15
34 0.15
35 0.15
36 0.4
37 0.4
38 0.15
39 0.45
4 -0.71
5 -0.57
6 -0.62
7 -0.9
8 0.26

> <PUBCHEM_EFFECTIVE_ROTOR_COUNT>
3

> <PUBCHEM_PHARMACOPHORE_FEATURES>
10
1 2 donor
1 4 acceptor
1 7 cation
1 7 donor
3 3 5 13 cation
3 5 6 18 cation
5 3 4 13 14 15 rings
5 8 9 10 11 12 rings
6 16 19 20 21 22 23 rings
6 5 6 13 14 17 18 rings

> <PUBCHEM_HEAVY_ATOM_COUNT>
23

> <PUBCHEM_ATOM_DEF_STEREO_COUNT>
0

> <PUBCHEM_ATOM_UDEF_STEREO_COUNT>
0

> <PUBCHEM_BOND_DEF_STEREO_COUNT>
0

> <PUBCHEM_BOND_UDEF_STEREO_COUNT>
0

> <PUBCHEM_ISOTOPIC_ATOM_COUNT>
0

> <PUBCHEM_COMPONENT_COUNT>
1

> <PUBCHEM_CACTVS_TAUTO_COUNT>
15

> <PUBCHEM_CONFORMER_ID>
017C065600000002

> <PUBCHEM_MMFF94_ENERGY>
54.1269

> <PUBCHEM_FEATURE_SELFOVERLAP>
51.026

> <PUBCHEM_SHAPE_FINGERPRINT>
10165383 225 18340505378048116489
10411042 1 17618218850631422027
105312 117 18411421695869124212
11582403 64 16482417622763177234
11725454 13 16913931964742718440
11796584 16 18342464729971435846
11833330 49 18049436251725109691
12107183 9 18263630793978332896
12173636 292 18410288146577684421
12236239 1 17532921913045550930
12390115 104 18271258152936890657
12422481 6 17825928361639322402
12500047 106 18413101784312264400
12788726 201 17974014138984142338
13134695 92 17184179545139641479
13140716 1 18265895748865953915
13878862 14 17472127381358867301
13965767 371 18114733824963960852
14178342 30 18337378452851381986
14508225 48 17765983275303264023
14713325 29 18335987574810878555
15042514 8 18120658191293923891
15842332 3 17822845498406919816
16752209 62 18265886037480634714
16988056 13 16893688555337422861
1741750 31 18411980247802128601
18785283 64 17974576797227667827
19784866 34 18270399374168253977
20510252 161 18199185285694285595
20739085 24 16831790445003911315
21033650 10 18118143552788066300
21065201 7 18270120240243611898
21524375 3 18259980457727865361
22149856 69 18120110399256192457
2255824 54 17836644128828168671
22907989 373 18192424393095566623
23366157 5 17971752168994050243
23557571 272 18129383877038243024
23559900 14 18202008725061199772
23598291 2 17749384931837447004
2748010 2 18338244760735170143
283562 15 18267014145401730619
3091708 16 9484575872162532307
350125 39 18339084783429318803
3729539 64 17763491442515469390
458136 41 18195537991203758489
469060 322 18337122267137800841
474 4 18124305013780536121
495365 180 18050275973914147697
5048184 11 18410012109087839257
57527295 17 17418101970682053172
59755656 520 17844553070284696417
633830 44 17916024555942953037
6443956 14 17404577779870567666
77492 1 17604699118691185650
7808743 9 18337113457638351180
81228 2 18123469651089220779
84936 182 17984694520295861153
9862522 239 17968365763248063829
9981440 41 18337386037869161225

> <PUBCHEM_SHAPE_MULTIPOLES>
435.28
8.77
4.11
1.22
4.16
3.99
0.08
-9.55
0.17
-3.77
0.23
0.81
-0.76
-0.19

> <PUBCHEM_SHAPE_SELFOVERLAP>
965.332

> <PUBCHEM_SHAPE_VOLUME>
234.8

> <PUBCHEM_COORDINATE_TYPE>
2
5
10

$$$$
