16079040
  -OEChem-10062122033D

 36 38  0     0  0  0  0  0  0999 V2000
    0.0007   -2.1919   -0.9326 O   0  0  0  0  0  0  0  0  0  0  0  0
   -0.0033    1.5670    0.7612 N   0  0  0  0  0  0  0  0  0  0  0  0
   -4.1413    0.5896   -0.8932 N   0  0  0  0  0  0  0  0  0  0  0  0
    4.4346   -0.8548    0.9918 N   0  0  0  0  0  0  0  0  0  0  0  0
   -1.2009    1.1971    0.0062 C   0  0  0  0  0  0  0  0  0  0  0  0
    1.1908    1.2035   -0.0021 C   0  0  0  0  0  0  0  0  0  0  0  0
   -1.2668   -0.2761   -0.2772 C   0  0  0  0  0  0  0  0  0  0  0  0
    1.2624   -0.2695   -0.2862 C   0  0  0  0  0  0  0  0  0  0  0  0
   -0.0011   -1.0295   -0.5404 C   0  0  0  0  0  0  0  0  0  0  0  0
   -2.4204   -0.9595   -0.2824 C   0  0  0  0  0  0  0  0  0  0  0  0
    2.4195   -0.9469   -0.2986 C   0  0  0  0  0  0  0  0  0  0  0  0
   -3.7555   -0.3900   -0.0451 C   0  0  0  0  0  0  0  0  0  0  0  0
    3.7532   -0.3703   -0.0706 C   0  0  0  0  0  0  0  0  0  0  0  0
   -4.5341   -0.8632    0.9989 C   0  0  0  0  0  0  0  0  0  0  0  0
    4.2383    0.6090   -0.9224 C   0  0  0  0  0  0  0  0  0  0  0  0
   -5.7893   -0.2945    1.1844 C   0  0  0  0  0  0  0  0  0  0  0  0
    5.5044    1.1243   -0.6673 C   0  0  0  0  0  0  0  0  0  0  0  0
   -5.3674    1.1184   -0.6817 C   0  0  0  0  0  0  0  0  0  0  0  0
    5.6615   -0.3298    1.2082 C   0  0  0  0  0  0  0  0  0  0  0  0
   -6.2214    0.7158    0.3324 C   0  0  0  0  0  0  0  0  0  0  0  0
    6.2361    0.6513    0.4164 C   0  0  0  0  0  0  0  0  0  0  0  0
   -1.2373    1.7548   -0.9383 H   0  0  0  0  0  0  0  0  0  0  0  0
   -2.0554    1.5283    0.6053 H   0  0  0  0  0  0  0  0  0  0  0  0
    2.0454    1.5397    0.5938 H   0  0  0  0  0  0  0  0  0  0  0  0
    1.2165    1.7625   -0.9461 H   0  0  0  0  0  0  0  0  0  0  0  0
   -0.0055    2.5745    0.9197 H   0  0  0  0  0  0  0  0  0  0  0  0
   -2.4285   -2.0358   -0.4398 H   0  0  0  0  0  0  0  0  0  0  0  0
    2.4351   -2.0233   -0.4536 H   0  0  0  0  0  0  0  0  0  0  0  0
   -4.1896   -1.6517    1.6602 H   0  0  0  0  0  0  0  0  0  0  0  0
    3.6694    0.9705   -1.7730 H   0  0  0  0  0  0  0  0  0  0  0  0
   -6.4295   -0.6377    1.9916 H   0  0  0  0  0  0  0  0  0  0  0  0
    5.9210    1.8916   -1.3128 H   0  0  0  0  0  0  0  0  0  0  0  0
   -5.6570    1.9030   -1.3729 H   0  0  0  0  0  0  0  0  0  0  0  0
    6.1911   -0.7324    2.0654 H   0  0  0  0  0  0  0  0  0  0  0  0
   -7.1959    1.1737    0.4583 H   0  0  0  0  0  0  0  0  0  0  0  0
    7.2250    1.0381    0.6340 H   0  0  0  0  0  0  0  0  0  0  0  0
  1  9  2  0  0  0  0
  2  5  1  0  0  0  0
  2  6  1  0  0  0  0
  2 26  1  0  0  0  0
  3 12  1  0  0  0  0
  3 18  2  0  0  0  0
  4 13  1  0  0  0  0
  4 19  2  0  0  0  0
  5  7  1  0  0  0  0
  5 22  1  0  0  0  0
  5 23  1  0  0  0  0
  6  8  1  0  0  0  0
  6 24  1  0  0  0  0
  6 25  1  0  0  0  0
  7  9  1  0  0  0  0
  7 10  2  0  0  0  0
  8  9  1  0  0  0  0
  8 11  2  0  0  0  0
 10 12  1  0  0  0  0
 10 27  1  0  0  0  0
 11 13  1  0  0  0  0
 11 28  1  0  0  0  0
 12 14  2  0  0  0  0
 13 15  2  0  0  0  0
 14 16  1  0  0  0  0
 14 29  1  0  0  0  0
 15 17  1  0  0  0  0
 15 30  1  0  0  0  0
 16 20  2  0  0  0  0
 16 31  1  0  0  0  0
 17 21  2  0  0  0  0
 17 32  1  0  0  0  0
 18 20  1  0  0  0  0
 18 33  1  0  0  0  0
 19 21  1  0  0  0  0
 19 34  1  0  0  0  0
 20 35  1  0  0  0  0
 21 36  1  0  0  0  0
M  END
> <PUBCHEM_COMPOUND_CID>
16079040

> <PUBCHEM_CONFORMER_RMSD>
0.6

> <PUBCHEM_CONFORMER_DIVERSEORDER>
1
4
7
3
6
8
5
2

> <PUBCHEM_MMFF94_PARTIAL_CHARGES>
32
1 -0.57
10 -0.18
11 -0.18
12 0.34
13 0.34
14 -0.15
15 -0.15
16 -0.15
17 -0.15
18 0.16
19 0.16
2 -0.9
20 -0.15
21 -0.15
26 0.36
27 0.15
28 0.15
29 0.15
3 -0.62
30 0.15
31 0.15
32 0.15
33 0.15
34 0.15
35 0.15
36 0.15
4 -0.62
5 0.41
6 0.41
7 -0.12
8 -0.12
9 0.54

> <PUBCHEM_EFFECTIVE_ROTOR_COUNT>
2.6

> <PUBCHEM_PHARMACOPHORE_FEATURES>
8
1 1 acceptor
1 2 cation
1 2 donor
1 3 acceptor
1 4 acceptor
6 2 5 6 7 8 9 rings
6 3 12 14 16 18 20 rings
6 4 13 15 17 19 21 rings

> <PUBCHEM_HEAVY_ATOM_COUNT>
21

> <PUBCHEM_ATOM_DEF_STEREO_COUNT>
0

> <PUBCHEM_ATOM_UDEF_STEREO_COUNT>
0

> <PUBCHEM_BOND_DEF_STEREO_COUNT>
2

> <PUBCHEM_BOND_UDEF_STEREO_COUNT>
0

> <PUBCHEM_ISOTOPIC_ATOM_COUNT>
0

> <PUBCHEM_COMPONENT_COUNT>
1

> <PUBCHEM_CACTVS_TAUTO_COUNT>
1

> <PUBCHEM_CONFORMER_ID>
00F558C000000001

> <PUBCHEM_MMFF94_ENERGY>
61.7839

> <PUBCHEM_FEATURE_SELFOVERLAP>
40.597

> <PUBCHEM_SHAPE_FINGERPRINT>
10 15 18261116296167866939
10906281 52 18272105897433299157
11089746 13 16702015391897312570
11287383 113 17312825995612185572
11646440 116 17561092431609279507
12166972 35 13406796618917979590
12236239 1 18186518817653880326
12507557 5 18272093812165429313
12516196 113 17561082514276870881
12596602 18 17676488354039362344
12616971 3 18260542359878175742
12788726 201 18272653398489915648
13533116 47 17458339707345624818
13631057 29 17702933868922134015
13668630 136 11025797587150688489
14251764 18 18408888451870999211
14528608 73 14405183971574335958
15081414 286 18060149708031264044
15142383 8 17749663017589374940
15348495 7 17603590776083232640
1601671 61 18272369776060873502
17844677 252 17022625260158383309
20281389 69 18186518800242312069
21150785 3 15985097531404988029
21267235 1 18334014957220704434
22224240 67 18272371988507542811
22956985 138 10738931684045912032
23198884 109 15051736387104582679
23402539 116 18059567018555824230
23536379 177 17167860854898937209
23569943 247 16628580002532489006
2767999 5 17989202646517684611
293599 30 18272371983552945886
29717793 49 10375879584598887706
300161 21 17561361772960740575
3004659 81 18041000618529027926
34797466 226 14333405679201579729
34934 24 18272646844248710094
350125 39 18413390938242899969
4072396 5 18341045238035613318
4073 2 16588316028572542992
4340502 62 17313104142232069306
4463277 17 18412265046993972424
5104073 3 18269270342950275426
542803 24 18040434403867601350
59755656 215 18271813363675970390
7226269 152 18273215296318617929
7495541 125 17749398104228103533

> <PUBCHEM_SHAPE_MULTIPOLES>
411.36
16.34
1.46
1.05
0.04
0.07
0.12
-2.92
3.59
0.07
-0.16
-0.07
0.11
0.01

> <PUBCHEM_SHAPE_SELFOVERLAP>
891.514

> <PUBCHEM_SHAPE_VOLUME>
221.9

> <PUBCHEM_COORDINATE_TYPE>
2
5
10

$$$$
