24894883
  -OEChem-10062122023D

 50 53  0     0  0  0  0  0  0999 V2000
   -3.6493   -2.9513   -0.0046 O   0  0  0  0  0  0  0  0  0  0  0  0
    2.5100    0.9856   -2.5186 O   0  0  0  0  0  0  0  0  0  0  0  0
    3.8493   -0.4552    1.8479 O   0  0  0  0  0  0  0  0  0  0  0  0
    4.3281    1.0454   -0.4302 O   0  0  0  0  0  0  0  0  0  0  0  0
   -3.2636    1.3820   -1.0674 N   0  0  0  0  0  0  0  0  0  0  0  0
   -1.5616   -3.9910    0.1433 N   0  0  0  0  0  0  0  0  0  0  0  0
   -1.5963   -1.6951   -0.1025 C   0  0  0  0  0  0  0  0  0  0  0  0
   -2.1437   -0.3453   -0.2373 C   0  0  0  0  0  0  0  0  0  0  0  0
   -0.3139   -2.1068   -0.0466 C   0  0  0  0  0  0  0  0  0  0  0  0
   -1.9632    0.7633    0.6363 C   0  0  0  0  0  0  0  0  0  0  0  0
   -0.1883   -3.5865    0.1452 C   0  0  0  0  0  0  0  0  0  0  0  0
   -2.6760    1.8340    0.0926 C   0  0  0  0  0  0  0  0  0  0  0  0
   -2.9478    0.0661   -1.2751 C   0  0  0  0  0  0  0  0  0  0  0  0
   -2.4298   -2.9228    0.0105 C   0  0  0  0  0  0  0  0  0  0  0  0
    0.9003   -1.2826   -0.1470 C   0  0  0  0  0  0  0  0  0  0  0  0
   -1.2594    0.9593    1.8413 C   0  0  0  0  0  0  0  0  0  0  0  0
   -2.7205    3.0959    0.6959 C   0  0  0  0  0  0  0  0  0  0  0  0
    1.8138   -1.2551    0.9068 C   0  0  0  0  0  0  0  0  0  0  0  0
    1.1382   -0.5282   -1.2960 C   0  0  0  0  0  0  0  0  0  0  0  0
   -4.0973    2.1689   -1.9505 C   0  0  0  0  0  0  0  0  0  0  0  0
   -1.2949    2.2161    2.4560 C   0  0  0  0  0  0  0  0  0  0  0  0
   -2.0149    3.2666    1.8904 C   0  0  0  0  0  0  0  0  0  0  0  0
    2.2894    0.2535   -1.3911 C   0  0  0  0  0  0  0  0  0  0  0  0
    2.9651   -0.4734    0.8117 C   0  0  0  0  0  0  0  0  0  0  0  0
    3.2028    0.2810   -0.3373 C   0  0  0  0  0  0  0  0  0  0  0  0
    1.9917    2.3142   -2.5405 C   0  0  0  0  0  0  0  0  0  0  0  0
    3.6465    0.5337    2.8555 C   0  0  0  0  0  0  0  0  0  0  0  0
    5.4854    0.4278   -0.9888 C   0  0  0  0  0  0  0  0  0  0  0  0
    0.3290   -4.0796   -0.6823 H   0  0  0  0  0  0  0  0  0  0  0  0
    0.2601   -3.8626    1.1031 H   0  0  0  0  0  0  0  0  0  0  0  0
   -3.3183   -0.4673   -2.1411 H   0  0  0  0  0  0  0  0  0  0  0  0
   -1.8683   -4.9535    0.2432 H   0  0  0  0  0  0  0  0  0  0  0  0
   -0.6983    0.1518    2.3023 H   0  0  0  0  0  0  0  0  0  0  0  0
   -3.2790    3.9178    0.2608 H   0  0  0  0  0  0  0  0  0  0  0  0
    1.6363   -1.8354    1.8097 H   0  0  0  0  0  0  0  0  0  0  0  0
    0.4370   -0.5468   -2.1275 H   0  0  0  0  0  0  0  0  0  0  0  0
   -4.9650    2.5181   -1.3851 H   0  0  0  0  0  0  0  0  0  0  0  0
   -3.5086    3.0128   -2.3188 H   0  0  0  0  0  0  0  0  0  0  0  0
   -4.4269    1.5529   -2.7910 H   0  0  0  0  0  0  0  0  0  0  0  0
   -0.7550    2.3726    3.3861 H   0  0  0  0  0  0  0  0  0  0  0  0
   -2.0290    4.2345    2.3849 H   0  0  0  0  0  0  0  0  0  0  0  0
    2.4374    2.9146   -1.7412 H   0  0  0  0  0  0  0  0  0  0  0  0
    0.9018    2.3023   -2.4382 H   0  0  0  0  0  0  0  0  0  0  0  0
    2.2481    2.7664   -3.5024 H   0  0  0  0  0  0  0  0  0  0  0  0
    4.4298    0.4201    3.6098 H   0  0  0  0  0  0  0  0  0  0  0  0
    2.6732    0.3963    3.3375 H   0  0  0  0  0  0  0  0  0  0  0  0
    3.7153    1.5390    2.4279 H   0  0  0  0  0  0  0  0  0  0  0  0
    6.2957    1.1619   -0.9951 H   0  0  0  0  0  0  0  0  0  0  0  0
    5.2936    0.1102   -2.0186 H   0  0  0  0  0  0  0  0  0  0  0  0
    5.7951   -0.4295   -0.3830 H   0  0  0  0  0  0  0  0  0  0  0  0
  1 14  2  0  0  0  0
  2 23  1  0  0  0  0
  2 26  1  0  0  0  0
  3 24  1  0  0  0  0
  3 27  1  0  0  0  0
  4 25  1  0  0  0  0
  4 28  1  0  0  0  0
  5 12  1  0  0  0  0
  5 13  1  0  0  0  0
  5 20  1  0  0  0  0
  6 11  1  0  0  0  0
  6 14  1  0  0  0  0
  6 32  1  0  0  0  0
  7  8  1  0  0  0  0
  7  9  2  0  0  0  0
  7 14  1  0  0  0  0
  8 10  1  0  0  0  0
  8 13  2  0  0  0  0
  9 11  1  0  0  0  0
  9 15  1  0  0  0  0
 10 12  1  0  0  0  0
 10 16  2  0  0  0  0
 11 29  1  0  0  0  0
 11 30  1  0  0  0  0
 12 17  2  0  0  0  0
 13 31  1  0  0  0  0
 15 18  2  0  0  0  0
 15 19  1  0  0  0  0
 16 21  1  0  0  0  0
 16 33  1  0  0  0  0
 17 22  1  0  0  0  0
 17 34  1  0  0  0  0
 18 24  1  0  0  0  0
 18 35  1  0  0  0  0
 19 23  2  0  0  0  0
 19 36  1  0  0  0  0
 20 37  1  0  0  0  0
 20 38  1  0  0  0  0
 20 39  1  0  0  0  0
 21 22  2  0  0  0  0
 21 40  1  0  0  0  0
 22 41  1  0  0  0  0
 23 25  1  0  0  0  0
 24 25  2  0  0  0  0
 26 42  1  0  0  0  0
 26 43  1  0  0  0  0
 26 44  1  0  0  0  0
 27 45  1  0  0  0  0
 27 46  1  0  0  0  0
 27 47  1  0  0  0  0
 28 48  1  0  0  0  0
 28 49  1  0  0  0  0
 28 50  1  0  0  0  0
M  END
> <PUBCHEM_COMPOUND_CID>
24894883

> <PUBCHEM_CONFORMER_RMSD>
0.8

> <PUBCHEM_CONFORMER_DIVERSEORDER>
1
8
11
13
14
15
12
17
9
21
5
4
6
20
18
19
16
23
22
3
2
7
10

> <PUBCHEM_MMFF94_PARTIAL_CHARGES>
35
1 -0.57
11 0.44
12 -0.15
13 -0.3
14 0.62
15 0.03
16 -0.15
17 -0.15
18 -0.15
19 -0.15
2 -0.36
20 0.26
21 -0.15
22 -0.15
23 0.08
24 0.08
25 0.08
26 0.28
27 0.28
28 0.28
3 -0.36
31 0.15
32 0.37
33 0.15
34 0.15
35 0.15
36 0.15
4 -0.36
40 0.15
41 0.15
5 0.05
6 -0.73
7 0.06
8 -0.05
9 -0.17

> <PUBCHEM_EFFECTIVE_ROTOR_COUNT>
5.4

> <PUBCHEM_PHARMACOPHORE_FEATURES>
10
1 1 acceptor
1 2 acceptor
1 3 acceptor
1 4 acceptor
1 5 cation
1 6 donor
5 5 8 10 12 13 rings
5 6 7 9 11 14 rings
6 10 12 16 17 21 22 rings
6 15 18 19 23 24 25 rings

> <PUBCHEM_HEAVY_ATOM_COUNT>
28

> <PUBCHEM_ATOM_DEF_STEREO_COUNT>
0

> <PUBCHEM_ATOM_UDEF_STEREO_COUNT>
0

> <PUBCHEM_BOND_DEF_STEREO_COUNT>
0

> <PUBCHEM_BOND_UDEF_STEREO_COUNT>
0

> <PUBCHEM_ISOTOPIC_ATOM_COUNT>
0

> <PUBCHEM_COMPONENT_COUNT>
1

> <PUBCHEM_CACTVS_TAUTO_COUNT>
2

> <PUBCHEM_CONFORMER_ID>
017BDDA300000001

> <PUBCHEM_MMFF94_ENERGY>
103.2392

> <PUBCHEM_FEATURE_SELFOVERLAP>
50.848

> <PUBCHEM_SHAPE_FINGERPRINT>
10165383 225 17336242200212009283
11007060 377 17028832210474507332
11578080 2 17178794591994373031
11582403 64 16299771068068652525
11640471 11 18266173933475228729
12128747 34 17558524947943149562
12156800 1 16164326731099032429
12160290 23 18338247045589297319
12173636 292 18126307271631057385
12788726 201 18121239807000672599
13009979 54 18188762963867980338
133893 2 17760656867136696851
13583140 156 17632284701749597514
13965767 371 17758102710009515000
14713325 29 17621652466857491038
14955137 171 16690220643415703027
18981168 100 18124906502016737183
20510252 161 18339928220063369891
20642791 105 18189312676716305695
20642791 239 17395878899660182231
20715895 44 17682941220933605333
20775438 99 16545199998708630103
20905425 154 17693087882957947592
22907989 373 18271534189999519260
22956985 138 16248843222621048026
23557571 272 18200885083410635398
23559900 14 18271805692943338126
3493558 16 18198913685734521024
469060 322 15798801997384695277
474 4 18049163267956707001
9981440 41 18127668479668858931

> <PUBCHEM_SHAPE_MULTIPOLES>
542.79
7.79
4.18
2.42
6.39
2.85
-0.2
-3.71
1.36
-4.63
-0.79
1.3
-2.28
-0.94

> <PUBCHEM_SHAPE_SELFOVERLAP>
1197.295

> <PUBCHEM_SHAPE_VOLUME>
297.3

> <PUBCHEM_COORDINATE_TYPE>
2
5
10

$$$$
