15941246
  -OEChem-10062121573D

 50 53  0     0  0  0  0  0  0999 V2000
    8.8428   -0.4951    1.6666 F   0  0  0  0  0  0  0  0  0  0  0  0
    9.7936    0.4521   -0.0372 F   0  0  0  0  0  0  0  0  0  0  0  0
    8.9024   -1.5199   -0.2505 F   0  0  0  0  0  0  0  0  0  0  0  0
    2.1840    1.0478   -0.6792 O   0  0  0  0  0  0  0  0  0  0  0  0
   -6.9254   -1.4777   -1.0272 N   0  0  0  0  0  0  0  0  0  0  0  0
   -4.6784    0.3203    0.0708 N   0  0  0  0  0  0  0  0  0  0  0  0
    1.5565   -0.9486    0.3744 N   0  0  0  0  0  0  0  0  0  0  0  0
   -8.3863    0.1809   -0.3828 N   0  0  0  0  0  0  0  0  0  0  0  0
   -7.7304    2.2178    0.6855 N   0  0  0  0  0  0  0  0  0  0  0  0
    3.7952   -0.4134    0.1799 N   0  0  0  0  0  0  0  0  0  0  0  0
   -5.4598    2.6319    1.1334 N   0  0  0  0  0  0  0  0  0  0  0  0
   -4.8274   -2.1595    0.0037 C   0  0  0  0  0  0  0  0  0  0  0  0
   -5.6776   -2.1616   -1.2522 C   0  0  0  0  0  0  0  0  0  0  0  0
   -4.0996   -0.8379    0.0790 C   0  0  0  0  0  0  0  0  0  0  0  0
   -2.6133   -0.8676    0.1558 C   0  0  0  0  0  0  0  0  0  0  0  0
   -7.0925   -0.2423   -0.4471 C   0  0  0  0  0  0  0  0  0  0  0  0
   -6.0625    0.5509    0.0629 C   0  0  0  0  0  0  0  0  0  0  0  0
   -1.9760   -1.9436    0.7637 C   0  0  0  0  0  0  0  0  0  0  0  0
   -1.8749    0.1818   -0.3804 C   0  0  0  0  0  0  0  0  0  0  0  0
    0.1637   -0.9215    0.3006 C   0  0  0  0  0  0  0  0  0  0  0  0
   -0.5834   -1.9707    0.8364 C   0  0  0  0  0  0  0  0  0  0  0  0
   -0.4822    0.1549   -0.3078 C   0  0  0  0  0  0  0  0  0  0  0  0
   -6.4629    1.7726    0.6079 C   0  0  0  0  0  0  0  0  0  0  0  0
    5.0079    0.2479   -0.1263 C   0  0  0  0  0  0  0  0  0  0  0  0
    2.4860    0.0074   -0.1033 C   0  0  0  0  0  0  0  0  0  0  0  0
   -8.6343    1.3781    0.1762 C   0  0  0  0  0  0  0  0  0  0  0  0
    7.4052    0.3177   -0.0635 C   0  0  0  0  0  0  0  0  0  0  0  0
    6.2102   -0.3351    0.2389 C   0  0  0  0  0  0  0  0  0  0  0  0
    4.9673    1.4656   -0.7855 C   0  0  0  0  0  0  0  0  0  0  0  0
    7.3812    1.5445   -0.7270 C   0  0  0  0  0  0  0  0  0  0  0  0
    6.1623    2.1184   -1.0880 C   0  0  0  0  0  0  0  0  0  0  0  0
    8.7088   -0.2962    0.3220 C   0  0  0  0  0  0  0  0  0  0  0  0
   -4.1336   -2.9983   -0.0839 H   0  0  0  0  0  0  0  0  0  0  0  0
   -5.4169   -2.3046    0.9159 H   0  0  0  0  0  0  0  0  0  0  0  0
   -5.1512   -1.7092   -2.1013 H   0  0  0  0  0  0  0  0  0  0  0  0
   -5.9047   -3.1966   -1.5321 H   0  0  0  0  0  0  0  0  0  0  0  0
   -7.7714   -1.9301   -1.3566 H   0  0  0  0  0  0  0  0  0  0  0  0
   -2.5217   -2.7580    1.2295 H   0  0  0  0  0  0  0  0  0  0  0  0
   -2.3566    1.0263   -0.8659 H   0  0  0  0  0  0  0  0  0  0  0  0
   -0.0932   -2.8110    1.3217 H   0  0  0  0  0  0  0  0  0  0  0  0
    0.0236    1.0029   -0.7469 H   0  0  0  0  0  0  0  0  0  0  0  0
    1.9538   -1.7650    0.8326 H   0  0  0  0  0  0  0  0  0  0  0  0
   -9.6702    1.6902    0.2146 H   0  0  0  0  0  0  0  0  0  0  0  0
    3.8931   -1.3022    0.6643 H   0  0  0  0  0  0  0  0  0  0  0  0
    6.2299   -1.2913    0.7560 H   0  0  0  0  0  0  0  0  0  0  0  0
    4.0691    1.9761   -1.0986 H   0  0  0  0  0  0  0  0  0  0  0  0
   -4.5275    2.5722    0.7424 H   0  0  0  0  0  0  0  0  0  0  0  0
   -5.7678    3.5173    1.5156 H   0  0  0  0  0  0  0  0  0  0  0  0
    8.3012    2.0682   -0.9713 H   0  0  0  0  0  0  0  0  0  0  0  0
    6.1449    3.0738   -1.6046 H   0  0  0  0  0  0  0  0  0  0  0  0
  1 32  1  0  0  0  0
  2 32  1  0  0  0  0
  3 32  1  0  0  0  0
  4 25  2  0  0  0  0
  5 13  1  0  0  0  0
  5 16  1  0  0  0  0
  5 37  1  0  0  0  0
  6 14  2  0  0  0  0
  6 17  1  0  0  0  0
  7 20  1  0  0  0  0
  7 25  1  0  0  0  0
  7 42  1  0  0  0  0
  8 16  2  0  0  0  0
  8 26  1  0  0  0  0
  9 23  1  0  0  0  0
  9 26  2  0  0  0  0
 10 24  1  0  0  0  0
 10 25  1  0  0  0  0
 10 44  1  0  0  0  0
 11 23  1  0  0  0  0
 11 47  1  0  0  0  0
 11 48  1  0  0  0  0
 12 13  1  0  0  0  0
 12 14  1  0  0  0  0
 12 33  1  0  0  0  0
 12 34  1  0  0  0  0
 13 35  1  0  0  0  0
 13 36  1  0  0  0  0
 14 15  1  0  0  0  0
 15 18  2  0  0  0  0
 15 19  1  0  0  0  0
 16 17  1  0  0  0  0
 17 23  2  0  0  0  0
 18 21  1  0  0  0  0
 18 38  1  0  0  0  0
 19 22  2  0  0  0  0
 19 39  1  0  0  0  0
 20 21  2  0  0  0  0
 20 22  1  0  0  0  0
 21 40  1  0  0  0  0
 22 41  1  0  0  0  0
 24 28  1  0  0  0  0
 24 29  2  0  0  0  0
 26 43  1  0  0  0  0
 27 28  2  0  0  0  0
 27 30  1  0  0  0  0
 27 32  1  0  0  0  0
 28 45  1  0  0  0  0
 29 31  1  0  0  0  0
 29 46  1  0  0  0  0
 30 31  2  0  0  0  0
 30 49  1  0  0  0  0
 31 50  1  0  0  0  0
M  END
> <PUBCHEM_COMPOUND_CID>
15941246

> <PUBCHEM_CONFORMER_RMSD>
0.8

> <PUBCHEM_CONFORMER_DIVERSEORDER>
3
43
21
35
5
28
32
17
37
34
23
2
29
14
9
42
15
38
26
12
36
27
20
31
1
39
44
16
22
33
13
11
25
30
41
24
4
10
19
18
6
40
8
7

> <PUBCHEM_MMFF94_PARTIAL_CHARGES>
46
1 -0.34
10 -0.55
11 -0.9
12 0.06
13 0.37
14 0.3
15 0.09
16 0.41
17 0.18
18 -0.15
19 -0.15
2 -0.34
20 0.12
21 -0.15
22 -0.15
23 0.41
24 0.12
25 0.69
26 0.47
27 -0.14
28 -0.15
29 -0.15
3 -0.34
30 -0.15
31 -0.15
32 1.16
37 0.4
38 0.15
39 0.15
4 -0.57
40 0.15
41 0.15
42 0.37
43 0.15
44 0.37
45 0.15
46 0.15
47 0.4
48 0.4
49 0.15
5 -0.87
50 0.15
6 -0.63
7 -0.55
8 -0.62
9 -0.62

> <PUBCHEM_EFFECTIVE_ROTOR_COUNT>
6.6

> <PUBCHEM_PHARMACOPHORE_FEATURES>
13
1 10 donor
1 11 cation
1 11 donor
1 4 acceptor
1 5 donor
1 6 acceptor
1 7 donor
3 5 8 16 cation
3 8 9 26 cation
6 15 18 19 20 21 22 rings
6 24 27 28 29 30 31 rings
6 8 9 16 17 23 26 rings
7 5 6 12 13 14 16 17 rings

> <PUBCHEM_HEAVY_ATOM_COUNT>
32

> <PUBCHEM_ATOM_DEF_STEREO_COUNT>
0

> <PUBCHEM_ATOM_UDEF_STEREO_COUNT>
0

> <PUBCHEM_BOND_DEF_STEREO_COUNT>
0

> <PUBCHEM_BOND_UDEF_STEREO_COUNT>
0

> <PUBCHEM_ISOTOPIC_ATOM_COUNT>
0

> <PUBCHEM_COMPONENT_COUNT>
1

> <PUBCHEM_CACTVS_TAUTO_COUNT>
108

> <PUBCHEM_CONFORMER_ID>
00F33E7E00000003

> <PUBCHEM_MMFF94_ENERGY>
117.0935

> <PUBCHEM_FEATURE_SELFOVERLAP>
66.162

> <PUBCHEM_SHAPE_FINGERPRINT>
10 15 17312822667619075761
100830 39 18411139108902422745
10299344 5 18334293180273948460
10391435 84 13758064221345764782
10670039 82 18411976958543196625
10917259 128 17773878593028875776
11135609 99 9654992478509118065
11135926 11 17894905231181085003
11181472 205 18261684740170775252
11315181 36 18334858342863572927
11621639 183 15069451637400930631
11719270 70 18273216409559705646
12082328 90 18272087219048245583
12089408 11 18409166636570555710
12104220 1 18411133616045388069
13885169 127 18344146985875017791
13914758 101 18412548712862797154
14118638 360 14836137528865366278
14251764 46 18412262844408849190
14671636 106 8862651400703631673
15131766 46 16985165071822854632
15183329 4 18113330933967768170
15198563 99 15482406269456859241
15347591 1 18045507667125874370
15461852 350 18131351946785109903
1577012 14 18333446547398693947
16989713 51 17345747650940920847
20105231 36 14490470877165487512
21150785 3 11959729365622882800
21585482 111 18042402440084029133
21591340 7 18335137613562081791
21792934 111 18343294882561998848
3092352 35 18334011709672047715
335352 9 18187365454624155782
3633792 109 18412831266124719282
397830 11 13768506326293218813
4073 2 18333737931398258699
4339292 15 16773223116047355439
437795 160 18059281167255806850
44280117 145 18198058281997412767
44389302 135 18335690613380104474
44555599 121 18335146418161194996
44802255 64 17060616677918958285
4516262 110 18188484684953358703
54039377 194 10375859785269742569
5758199 1 18186521003729106067
59567204 34 18343021074112395873
6201320 215 17988361451683314121
99344 41 18413108364081524934
9962374 69 11311765168699543098

> <PUBCHEM_SHAPE_MULTIPOLES>
595.99
33.8
2.25
0.96
34.39
0.32
0.01
9.36
0.13
-3.15
0.13
-0.02
-0.01
-2.93

> <PUBCHEM_SHAPE_SELFOVERLAP>
1308.039

> <PUBCHEM_SHAPE_VOLUME>
319.1

> <PUBCHEM_COORDINATE_TYPE>
2
5
10

$$$$
