49830794
  -OEChem-10062121543D

 27 29  0     0  0  0  0  0  0999 V2000
   -3.0134    0.9777    0.0003 S   0  0  0  0  0  0  0  0  0  0  0  0
   -2.7522   -2.9403   -0.0009 O   0  0  0  0  0  0  0  0  0  0  0  0
   -4.5999   -1.6162    0.0000 O   0  0  0  0  0  0  0  0  0  0  0  0
    0.2323    3.3537   -0.0014 N   0  0  0  0  0  0  0  0  0  0  0  0
   -0.4505    0.6394    0.0009 C   0  0  0  0  0  0  0  0  0  0  0  0
    0.9027    1.0286    0.0009 C   0  0  0  0  0  0  0  0  0  0  0  0
   -1.4240    1.6427   -0.0001 C   0  0  0  0  0  0  0  0  0  0  0  0
    1.9541    0.0421    0.0002 C   0  0  0  0  0  0  0  0  0  0  0  0
   -1.0496   -0.6647    0.0015 C   0  0  0  0  0  0  0  0  0  0  0  0
   -2.4236   -0.6219    0.0011 C   0  0  0  0  0  0  0  0  0  0  0  0
    1.1713    2.3878   -0.0002 C   0  0  0  0  0  0  0  0  0  0  0  0
   -1.0697    2.9932   -0.0012 C   0  0  0  0  0  0  0  0  0  0  0  0
    2.4641   -0.4342    1.2080 C   0  0  0  0  0  0  0  0  0  0  0  0
    2.4613   -0.4361   -1.2079 C   0  0  0  0  0  0  0  0  0  0  0  0
    3.4815   -1.3887    1.2076 C   0  0  0  0  0  0  0  0  0  0  0  0
    3.4785   -1.3904   -1.2084 C   0  0  0  0  0  0  0  0  0  0  0  0
    3.9886   -1.8668   -0.0006 C   0  0  0  0  0  0  0  0  0  0  0  0
   -3.3516   -1.7060    0.0002 C   0  0  0  0  0  0  0  0  0  0  0  0
   -0.4849   -1.5896    0.0019 H   0  0  0  0  0  0  0  0  0  0  0  0
    2.1928    2.7587   -0.0006 H   0  0  0  0  0  0  0  0  0  0  0  0
   -1.7971    3.7958   -0.0020 H   0  0  0  0  0  0  0  0  0  0  0  0
    2.0799   -0.0724    2.1588 H   0  0  0  0  0  0  0  0  0  0  0  0
    2.0750   -0.0757   -2.1585 H   0  0  0  0  0  0  0  0  0  0  0  0
    3.8785   -1.7597    2.1479 H   0  0  0  0  0  0  0  0  0  0  0  0
    3.8735   -1.7629   -2.1491 H   0  0  0  0  0  0  0  0  0  0  0  0
    4.7805   -2.6100   -0.0010 H   0  0  0  0  0  0  0  0  0  0  0  0
   -3.4147   -3.6638   -0.0016 H   0  0  0  0  0  0  0  0  0  0  0  0
  1  7  1  0  0  0  0
  1 10  1  0  0  0  0
  2 18  1  0  0  0  0
  2 27  1  0  0  0  0
  3 18  2  0  0  0  0
  4 11  1  0  0  0  0
  4 12  2  0  0  0  0
  5  6  1  0  0  0  0
  5  7  2  0  0  0  0
  5  9  1  0  0  0  0
  6  8  1  0  0  0  0
  6 11  2  0  0  0  0
  7 12  1  0  0  0  0
  8 13  2  0  0  0  0
  8 14  1  0  0  0  0
  9 10  2  0  0  0  0
  9 19  1  0  0  0  0
 10 18  1  0  0  0  0
 11 20  1  0  0  0  0
 12 21  1  0  0  0  0
 13 15  1  0  0  0  0
 13 22  1  0  0  0  0
 14 16  2  0  0  0  0
 14 23  1  0  0  0  0
 15 17  2  0  0  0  0
 15 24  1  0  0  0  0
 16 17  1  0  0  0  0
 16 25  1  0  0  0  0
 17 26  1  0  0  0  0
M  END
> <PUBCHEM_COMPOUND_CID>
49830794

> <PUBCHEM_CONFORMER_RMSD>
0.6

> <PUBCHEM_CONFORMER_DIVERSEORDER>
1
2
3

> <PUBCHEM_MMFF94_PARTIAL_CHARGES>
24
1 -0.08
10 -0.05
11 0.16
12 0.16
13 -0.15
14 -0.15
15 -0.15
16 -0.15
17 -0.15
18 0.81
19 0.15
2 -0.65
20 0.15
21 0.15
22 0.15
23 0.15
24 0.15
25 0.15
26 0.15
27 0.5
3 -0.57
4 -0.62
7 0.04
9 -0.15

> <PUBCHEM_EFFECTIVE_ROTOR_COUNT>
2

> <PUBCHEM_PHARMACOPHORE_FEATURES>
7
1 2 acceptor
1 3 acceptor
1 4 acceptor
3 2 3 18 anion
5 1 5 7 9 10 rings
6 4 5 6 7 11 12 rings
6 8 13 14 15 16 17 rings

> <PUBCHEM_HEAVY_ATOM_COUNT>
18

> <PUBCHEM_ATOM_DEF_STEREO_COUNT>
0

> <PUBCHEM_ATOM_UDEF_STEREO_COUNT>
0

> <PUBCHEM_BOND_DEF_STEREO_COUNT>
0

> <PUBCHEM_BOND_UDEF_STEREO_COUNT>
0

> <PUBCHEM_ISOTOPIC_ATOM_COUNT>
0

> <PUBCHEM_COMPONENT_COUNT>
1

> <PUBCHEM_CACTVS_TAUTO_COUNT>
1

> <PUBCHEM_CONFORMER_ID>
02F85B8A00000001

> <PUBCHEM_MMFF94_ENERGY>
48.6547

> <PUBCHEM_FEATURE_SELFOVERLAP>
35.643

> <PUBCHEM_SHAPE_FINGERPRINT>
10319926 262 17980172238336350138
10616163 171 18194403295098872774
10618630 7 18409729560316459646
11578080 2 17459444720642326052
11582403 64 15895521191221932040
116883 192 18413389834831274709
12363563 72 18411138043312326239
12403259 327 15482673528276701375
12553582 1 18409738360768025555
12714826 92 18040716931348786813
13083527 12 18121476193452888424
13140716 1 18412824668548388097
13538477 17 18044095653308493276
14787075 74 18114739456145627408
14790565 3 17979088088973706121
14863182 85 17037265550035784311
15042514 8 18193843643595412673
15422964 175 18342454820484962326
15442244 35 18340209686935137505
15885798 251 18411139143235170315
16752209 62 18045490920436814841
16945 1 18266740168989350309
17804303 29 18342458093138998993
18186145 218 11819278806647035670
19049666 15 17269191658052930220
19591789 44 17332255195336101921
20028762 73 18130224857952859685
20291156 8 18408605872301969707
20510252 161 17911514294821371696
20600515 1 18195510524724903232
20645477 70 18122339349057313943
20871998 22 18412261778450033185
21296965 67 18411417323629067009
21452121 199 18337947991052688896
21634736 98 18260839197905255702
21650355 55 18266447729145658600
21731516 1 18335147496081246616
221490 88 18119254101885843427
2255824 54 17833552679671480677
23184049 29 18410007732489797344
2334 1 18338515369185918665
23366157 5 18115873077671049197
23402539 116 18126833911915257773
23557571 272 18128814149800170552
23559900 14 17982165627015529134
257057 1 18410004463972309745
2748010 2 18339911697276599077
3084891 72 18122899829272521773
3091708 16 9208987676164238249
314173 41 18336833103484405595
335352 9 18410856526208706813
3421961 26 18267586990822255659
54173680 148 18338797788796958608
568465 68 17346310450026627374
5902787 121 18409727365640789000
633830 44 11242237555217473931
7364860 26 18125443265433423872
77492 1 17388552514455857352
7970288 3 18410292518845069579
81228 2 18198341758265008417
8863177 126 17752220632756620531
9709674 26 17911519801164461622

> <PUBCHEM_SHAPE_MULTIPOLES>
357.56
7.02
3.34
0.94
0.78
1.44
0
-6.27
0
-2.3
0
1.01
-0.22
0

> <PUBCHEM_SHAPE_SELFOVERLAP>
785.907

> <PUBCHEM_SHAPE_VOLUME>
194.3

> <PUBCHEM_COORDINATE_TYPE>
2
5
10

$$$$
