24905162
  -OEChem-10052115163D

 39 41  0     0  0  0  0  0  0999 V2000
    4.3229    0.3620    1.0521 S   0  0  0  0  0  0  0  0  0  0  0  0
    5.5261    0.9036    0.4360 O   0  0  0  0  0  0  0  0  0  0  0  0
    3.7686    0.9988    2.2387 O   0  0  0  0  0  0  0  0  0  0  0  0
   -2.5456    1.0254    0.1054 N   0  0  0  0  0  0  0  0  0  0  0  0
   -1.3048    1.3917   -0.2662 N   0  0  0  0  0  0  0  0  0  0  0  0
   -3.8164   -0.9770    0.5929 N   0  0  0  0  0  0  0  0  0  0  0  0
   -2.4596   -2.9891    0.3454 N   0  0  0  0  0  0  0  0  0  0  0  0
   -0.1628   -2.9246   -0.3009 N   0  0  0  0  0  0  0  0  0  0  0  0
    4.5726   -1.2952    1.3855 N   0  0  0  0  0  0  0  0  0  0  0  0
   -3.5521    2.0376    0.3208 C   0  0  0  0  0  0  0  0  0  0  0  0
   -1.4704   -0.8794   -0.0705 C   0  0  0  0  0  0  0  0  0  0  0  0
   -2.6994   -0.3228    0.2371 C   0  0  0  0  0  0  0  0  0  0  0  0
   -0.6549    0.2274   -0.3717 C   0  0  0  0  0  0  0  0  0  0  0  0
    0.7330    0.2144   -0.7598 C   0  0  0  0  0  0  0  0  0  0  0  0
   -3.8447    2.8223   -0.9606 C   0  0  0  0  0  0  0  0  0  0  0  0
   -3.1660    2.9818    1.4620 C   0  0  0  0  0  0  0  0  0  0  0  0
   -1.3702   -2.2652   -0.0073 C   0  0  0  0  0  0  0  0  0  0  0  0
    1.7307    0.2845    0.2125 C   0  0  0  0  0  0  0  0  0  0  0  0
    3.0736    0.2722   -0.1641 C   0  0  0  0  0  0  0  0  0  0  0  0
    1.0782    0.1319   -2.1088 C   0  0  0  0  0  0  0  0  0  0  0  0
    3.4189    0.1898   -1.5130 C   0  0  0  0  0  0  0  0  0  0  0  0
    2.4212    0.1197   -2.4853 C   0  0  0  0  0  0  0  0  0  0  0  0
   -3.5988   -2.3097    0.6197 C   0  0  0  0  0  0  0  0  0  0  0  0
   -4.4755    1.5233    0.6133 H   0  0  0  0  0  0  0  0  0  0  0  0
   -4.1292    2.1466   -1.7749 H   0  0  0  0  0  0  0  0  0  0  0  0
   -2.9720    3.3951   -1.2934 H   0  0  0  0  0  0  0  0  0  0  0  0
   -4.6687    3.5262   -0.8030 H   0  0  0  0  0  0  0  0  0  0  0  0
   -2.2672    3.5608    1.2224 H   0  0  0  0  0  0  0  0  0  0  0  0
   -2.9647    2.4203    2.3810 H   0  0  0  0  0  0  0  0  0  0  0  0
   -3.9760    3.6890    1.6693 H   0  0  0  0  0  0  0  0  0  0  0  0
    1.4550    0.3418    1.2631 H   0  0  0  0  0  0  0  0  0  0  0  0
    0.3126    0.0757   -2.8790 H   0  0  0  0  0  0  0  0  0  0  0  0
    4.4581    0.1723   -1.8289 H   0  0  0  0  0  0  0  0  0  0  0  0
    2.6900    0.0538   -3.5356 H   0  0  0  0  0  0  0  0  0  0  0  0
   -4.4513   -2.9196    0.8986 H   0  0  0  0  0  0  0  0  0  0  0  0
    0.6656   -2.4120   -0.5651 H   0  0  0  0  0  0  0  0  0  0  0  0
   -0.1332   -3.9336   -0.2419 H   0  0  0  0  0  0  0  0  0  0  0  0
    5.4501   -1.7198    1.0614 H   0  0  0  0  0  0  0  0  0  0  0  0
    4.2473   -1.6535    2.2917 H   0  0  0  0  0  0  0  0  0  0  0  0
  1  2  2  0  0  0  0
  1  3  2  0  0  0  0
  1  9  1  0  0  0  0
  1 19  1  0  0  0  0
  4  5  1  0  0  0  0
  4 10  1  0  0  0  0
  4 12  1  0  0  0  0
  5 13  2  0  0  0  0
  6 12  2  0  0  0  0
  6 23  1  0  0  0  0
  7 17  1  0  0  0  0
  7 23  2  0  0  0  0
  8 17  1  0  0  0  0
  8 36  1  0  0  0  0
  8 37  1  0  0  0  0
  9 38  1  0  0  0  0
  9 39  1  0  0  0  0
 10 15  1  0  0  0  0
 10 16  1  0  0  0  0
 10 24  1  0  0  0  0
 11 12  1  0  0  0  0
 11 13  1  0  0  0  0
 11 17  2  0  0  0  0
 13 14  1  0  0  0  0
 14 18  2  0  0  0  0
 14 20  1  0  0  0  0
 15 25  1  0  0  0  0
 15 26  1  0  0  0  0
 15 27  1  0  0  0  0
 16 28  1  0  0  0  0
 16 29  1  0  0  0  0
 16 30  1  0  0  0  0
 18 19  1  0  0  0  0
 18 31  1  0  0  0  0
 19 21  2  0  0  0  0
 20 22  2  0  0  0  0
 20 32  1  0  0  0  0
 21 22  1  0  0  0  0
 21 33  1  0  0  0  0
 22 34  1  0  0  0  0
 23 35  1  0  0  0  0
M  END
> <PUBCHEM_COMPOUND_CID>
24905162

> <PUBCHEM_CONFORMER_RMSD>
0.6

> <PUBCHEM_CONFORMER_DIVERSEORDER>
1
7
21
24
6
14
20
23
5
13
8
15
18
11
19
22
16
17
12
9
10
2
3
4

> <PUBCHEM_MMFF94_PARTIAL_CHARGES>
29
1 1.45
10 0.26
12 0.11
13 0.23
14 0.05
17 0.41
18 -0.15
19 -0.01
2 -0.65
20 -0.15
21 -0.15
22 -0.15
23 0.47
3 -0.65
31 0.15
32 0.15
33 0.15
34 0.15
35 0.15
36 0.4
37 0.4
38 0.42
39 0.42
4 0.31
5 -0.71
6 -0.57
7 -0.62
8 -0.9
9 -0.98

> <PUBCHEM_EFFECTIVE_ROTOR_COUNT>
3

> <PUBCHEM_PHARMACOPHORE_FEATURES>
12
1 2 acceptor
1 3 acceptor
1 5 acceptor
1 8 cation
1 8 donor
1 9 donor
3 10 15 16 hydrophobe
3 4 6 12 cation
3 6 7 23 cation
5 4 5 11 12 13 rings
6 14 18 19 20 21 22 rings
6 6 7 11 12 17 23 rings

> <PUBCHEM_HEAVY_ATOM_COUNT>
23

> <PUBCHEM_ATOM_DEF_STEREO_COUNT>
0

> <PUBCHEM_ATOM_UDEF_STEREO_COUNT>
0

> <PUBCHEM_BOND_DEF_STEREO_COUNT>
0

> <PUBCHEM_BOND_UDEF_STEREO_COUNT>
0

> <PUBCHEM_ISOTOPIC_ATOM_COUNT>
0

> <PUBCHEM_COMPONENT_COUNT>
1

> <PUBCHEM_CACTVS_TAUTO_COUNT>
5

> <PUBCHEM_CONFORMER_ID>
017C05CA00000001

> <PUBCHEM_MMFF94_ENERGY>
37.1992

> <PUBCHEM_FEATURE_SELFOVERLAP>
61.192

> <PUBCHEM_SHAPE_FINGERPRINT>
10319926 262 18342164571644017994
11049842 53 18119838853241037494
11545043 162 18272380754477427574
11552529 35 18266728250950800786
11582403 64 17771599296823888045
11725454 13 17773575157747112676
12107183 9 18045773495309860120
12160290 23 18337691775290089207
12236239 1 17603868956962373926
12403259 415 17988940950055315372
12553582 1 18048896361504374375
12633257 1 18059021716485891819
12788726 201 18045803409361762035
12892183 10 18338507642893116330
13140716 1 18122640611058899819
13583140 156 18130493206934429146
13965767 371 17827364280306507133
14178342 30 18408329864823856239
14420673 8 18119525432640983354
15375358 24 17775002354168474500
15537594 2 17241607222337291282
15842332 3 17604730973999358044
16752209 62 18335993042483418871
16945 1 18337972172219563087
16988056 13 10435928234987035474
173720 79 17967535641144290693
17818456 19 18041838381564321196
18219364 16 16558746871114920160
18915476 22 16702035136057131972
19049666 15 17916605140736283494
20510252 161 18270978919932887473
20554085 129 18126543658141503793
20645477 70 14924222785199561468
21033648 29 17418371394334231920
21065201 7 18339659883517893998
212916 134 18338796698081110717
21304303 282 18194092198170000719
21756936 100 17698142283237068696
22112679 90 17821732757900304604
22149856 69 17830478094223913785
23402539 116 18342450500190831359
23557571 272 18201172012900924908
23559900 14 18198921240269764990
23598291 2 17458069269949353526
312423 11 17458920326187690550
4340502 62 18267589001373534125
469060 322 18265358208292243745
495365 180 17560235791602454846
5104073 3 18408876327041238344
573450 72 18186519920996336140
58807428 26 18189623739474578067
6049 1 17702688625286653244
7064713 232 18262508217943939642
7097593 13 18186795847255141146
7615 1 17822864181013796676
77492 1 17531538675334687694
81228 2 18266481951935306523
84936 182 17622731916682853993
9849439 229 18051423863890892761
9862522 239 17823130130042538917
9981440 41 17488450902012180075

> <PUBCHEM_SHAPE_MULTIPOLES>
435.55
9.37
3.03
1.73
7.02
0.77
0.45
-3.03
-3.46
-5.16
-0.67
2.08
-0.57
0.3

> <PUBCHEM_SHAPE_SELFOVERLAP>
937.172

> <PUBCHEM_SHAPE_VOLUME>
243.6

> <PUBCHEM_COORDINATE_TYPE>
2
5
10

$$$$
