45908781
  -OEChem-10052115193D

 46 49  0     0  0  0  0  0  0999 V2000
    3.7019    2.9473   -0.3718 O   0  0  0  0  0  0  0  0  0  0  0  0
    1.5965   -1.6676    0.1106 O   0  0  0  0  0  0  0  0  0  0  0  0
    6.2754   -1.9072    0.0887 O   0  0  0  0  0  0  0  0  0  0  0  0
   -2.3606   -0.2397   -0.0112 N   0  0  0  0  0  0  0  0  0  0  0  0
   -2.0651    1.0824   -0.1598 N   0  0  0  0  0  0  0  0  0  0  0  0
    2.1688    0.5922   -0.1582 N   0  0  0  0  0  0  0  0  0  0  0  0
   -1.2333   -2.3622    0.1890 N   0  0  0  0  0  0  0  0  0  0  0  0
   -1.1935   -1.0074    0.0509 C   0  0  0  0  0  0  0  0  0  0  0  0
   -3.6298   -0.8388    0.0659 C   0  0  0  0  0  0  0  0  0  0  0  0
   -0.1400   -0.1283   -0.0535 C   0  0  0  0  0  0  0  0  0  0  0  0
   -4.8682   -0.0411    0.0159 C   0  0  0  0  0  0  0  0  0  0  0  0
   -0.7347    1.1324   -0.1800 C   0  0  0  0  0  0  0  0  0  0  0  0
   -3.7141   -2.1728    0.2026 C   0  0  0  0  0  0  0  0  0  0  0  0
    1.2499   -0.4725   -0.0340 C   0  0  0  0  0  0  0  0  0  0  0  0
    3.5850    0.5610   -0.1493 C   0  0  0  0  0  0  0  0  0  0  0  0
   -2.4160   -2.8899    0.2573 C   0  0  0  0  0  0  0  0  0  0  0  0
   -5.8070   -0.2729   -0.9895 C   0  0  0  0  0  0  0  0  0  0  0  0
   -5.1015    0.9455    0.9739 C   0  0  0  0  0  0  0  0  0  0  0  0
    4.3233    1.7396   -0.2566 C   0  0  0  0  0  0  0  0  0  0  0  0
    4.2408   -0.6645   -0.0328 C   0  0  0  0  0  0  0  0  0  0  0  0
    5.6347   -0.7116   -0.0237 C   0  0  0  0  0  0  0  0  0  0  0  0
    5.7174    1.6926   -0.2476 C   0  0  0  0  0  0  0  0  0  0  0  0
   -6.9791    0.4820   -1.0368 C   0  0  0  0  0  0  0  0  0  0  0  0
   -6.2734    1.7004    0.9266 C   0  0  0  0  0  0  0  0  0  0  0  0
    6.3730    0.4670   -0.1312 C   0  0  0  0  0  0  0  0  0  0  0  0
   -7.2123    1.4686   -0.0788 C   0  0  0  0  0  0  0  0  0  0  0  0
    3.4021    3.6388    0.8387 C   0  0  0  0  0  0  0  0  0  0  0  0
    5.4597   -3.0732    0.1948 C   0  0  0  0  0  0  0  0  0  0  0  0
   -0.2709    2.1023   -0.2883 H   0  0  0  0  0  0  0  0  0  0  0  0
   -4.6331   -2.7383    0.2816 H   0  0  0  0  0  0  0  0  0  0  0  0
    1.7859    1.5281   -0.2629 H   0  0  0  0  0  0  0  0  0  0  0  0
   -2.4976   -3.9837    0.3691 H   0  0  0  0  0  0  0  0  0  0  0  0
   -5.6415   -1.0329   -1.7493 H   0  0  0  0  0  0  0  0  0  0  0  0
   -4.3858    1.1359    1.7700 H   0  0  0  0  0  0  0  0  0  0  0  0
    3.6822   -1.5782    0.0418 H   0  0  0  0  0  0  0  0  0  0  0  0
    6.2993    2.6065   -0.3317 H   0  0  0  0  0  0  0  0  0  0  0  0
   -7.7095    0.3026   -1.8203 H   0  0  0  0  0  0  0  0  0  0  0  0
   -6.4560    2.4675    1.6734 H   0  0  0  0  0  0  0  0  0  0  0  0
    7.4592    0.4366   -0.1251 H   0  0  0  0  0  0  0  0  0  0  0  0
   -8.1248    2.0564   -0.1156 H   0  0  0  0  0  0  0  0  0  0  0  0
    2.7576    3.0341    1.4844 H   0  0  0  0  0  0  0  0  0  0  0  0
    4.3244    3.8990    1.3678 H   0  0  0  0  0  0  0  0  0  0  0  0
    2.8735    4.5614    0.5839 H   0  0  0  0  0  0  0  0  0  0  0  0
    4.8517   -3.0606    1.1060 H   0  0  0  0  0  0  0  0  0  0  0  0
    4.8607   -3.2315   -0.7086 H   0  0  0  0  0  0  0  0  0  0  0  0
    6.1358   -3.9306    0.2789 H   0  0  0  0  0  0  0  0  0  0  0  0
  1 19  1  0  0  0  0
  1 27  1  0  0  0  0
  2 14  2  0  0  0  0
  3 21  1  0  0  0  0
  3 28  1  0  0  0  0
  4  5  1  0  0  0  0
  4  8  1  0  0  0  0
  4  9  1  0  0  0  0
  5 12  2  0  0  0  0
  6 14  1  0  0  0  0
  6 15  1  0  0  0  0
  6 31  1  0  0  0  0
  7  8  1  0  0  0  0
  7 16  2  0  0  0  0
  8 10  2  0  0  0  0
  9 11  1  0  0  0  0
  9 13  2  0  0  0  0
 10 12  1  0  0  0  0
 10 14  1  0  0  0  0
 11 17  2  0  0  0  0
 11 18  1  0  0  0  0
 12 29  1  0  0  0  0
 13 16  1  0  0  0  0
 13 30  1  0  0  0  0
 15 19  2  0  0  0  0
 15 20  1  0  0  0  0
 16 32  1  0  0  0  0
 17 23  1  0  0  0  0
 17 33  1  0  0  0  0
 18 24  2  0  0  0  0
 18 34  1  0  0  0  0
 19 22  1  0  0  0  0
 20 21  2  0  0  0  0
 20 35  1  0  0  0  0
 21 25  1  0  0  0  0
 22 25  2  0  0  0  0
 22 36  1  0  0  0  0
 23 26  2  0  0  0  0
 23 37  1  0  0  0  0
 24 26  1  0  0  0  0
 24 38  1  0  0  0  0
 25 39  1  0  0  0  0
 26 40  1  0  0  0  0
 27 41  1  0  0  0  0
 27 42  1  0  0  0  0
 27 43  1  0  0  0  0
 28 44  1  0  0  0  0
 28 45  1  0  0  0  0
 28 46  1  0  0  0  0
M  END
> <PUBCHEM_COMPOUND_CID>
45908781

> <PUBCHEM_CONFORMER_RMSD>
0.8

> <PUBCHEM_CONFORMER_DIVERSEORDER>
1
8
5
4
24
20
21
14
12
27
13
31
29
9
7
23
16
19
11
10
18
2
30
17
15
26
22
25
3
6
28

> <PUBCHEM_MMFF94_PARTIAL_CHARGES>
40
1 -0.36
10 -0.09
11 0.03
12 0.14
13 -0.14
14 0.72
15 0.12
16 0.38
17 -0.15
18 -0.15
19 0.08
2 -0.57
20 -0.15
21 0.08
22 -0.15
23 -0.15
24 -0.15
25 -0.15
26 -0.15
27 0.28
28 0.28
29 0.15
3 -0.36
30 0.15
31 0.37
32 0.06
33 0.15
34 0.15
35 0.15
36 0.15
37 0.15
38 0.15
39 0.15
4 0.6
40 0.15
5 -0.71
6 -0.55
7 -0.58
8 -0.03
9 -0.06

> <PUBCHEM_EFFECTIVE_ROTOR_COUNT>
6

> <PUBCHEM_PHARMACOPHORE_FEATURES>
10
1 1 acceptor
1 2 acceptor
1 3 acceptor
1 5 acceptor
1 6 donor
1 7 acceptor
5 4 5 8 10 12 rings
6 11 17 18 23 24 26 rings
6 15 19 20 21 22 25 rings
6 4 7 8 9 13 16 rings

> <PUBCHEM_HEAVY_ATOM_COUNT>
28

> <PUBCHEM_ATOM_DEF_STEREO_COUNT>
0

> <PUBCHEM_ATOM_UDEF_STEREO_COUNT>
0

> <PUBCHEM_BOND_DEF_STEREO_COUNT>
0

> <PUBCHEM_BOND_UDEF_STEREO_COUNT>
0

> <PUBCHEM_ISOTOPIC_ATOM_COUNT>
0

> <PUBCHEM_COMPONENT_COUNT>
1

> <PUBCHEM_CACTVS_TAUTO_COUNT>
2

> <PUBCHEM_CONFORMER_ID>
02BC832D00000001

> <PUBCHEM_MMFF94_ENERGY>
103.3826

> <PUBCHEM_FEATURE_SELFOVERLAP>
50.878

> <PUBCHEM_SHAPE_FINGERPRINT>
10 15 18113908165404815313
10554248 39 18409162216680099702
10835480 77 18339076107336820496
10906281 52 18272104781232451671
11089746 13 18343582949674841089
11405975 8 18339645641495816114
11719270 70 17632577115496419438
12107183 9 18338798905947515354
12236239 1 18343863316286115503
12422481 6 17458063789840291645
12788726 201 17775010033786122545
13167372 99 18342742879504171200
13533116 47 18411698764752343986
14117953 113 18272374123433668518
14790565 3 18411141295293587825
15183329 4 18341897376589527626
15196674 1 18337392754739159918
15361156 5 17968387839580197686
17844677 252 18267594691418815096
18335252 114 18410002213636261365
19611394 137 17969518172573558075
20281389 69 18259703389656755661
21236236 1 18338799022280923095
21279426 13 18411140263767843487
21315763 28 18412543211204791805
21859007 373 17677603173252296149
23559900 14 18339637940540417504
23569917 315 18408891737622525987
249057 3 18410293597408413742
255183 451 17913497835932541254
2838139 119 18412543198409762109
3004659 81 18335420167134681546
335352 9 18410013225895283702
350125 39 18409167710191307148
3633792 109 18338794503948505773
397830 11 16516548731590883753
4073 2 18115029731267929434
4144715 1 18116161149722496243
44880568 143 14692572096513488363
5104073 3 18261390108648654602
59755656 215 18335140839188393206
59755656 520 18408880733757330871
6299153 45 18268998591789942305
6328613 192 18410857680932559865
7226269 152 18272092678231091057

> <PUBCHEM_SHAPE_MULTIPOLES>
538.69
19.98
3.22
0.79
5.46
0.07
0
4.52
1.19
-3.51
-0.61
0.77
0.19
-0.38

> <PUBCHEM_SHAPE_SELFOVERLAP>
1186.609

> <PUBCHEM_SHAPE_VOLUME>
290

> <PUBCHEM_COORDINATE_TYPE>
2
5
10

$$$$
