18450918
  -OEChem-10062121543D

 58 61  0     0  0  0  0  0  0999 V2000
   -3.5967    0.8724    0.9840 S   0  0  0  0  0  0  0  0  0  0  0  0
   -9.8996    1.9788   -0.2206 S   0  0  0  0  0  0  0  0  0  0  0  0
    5.0555    0.8816   -0.9730 O   0  0  0  0  0  0  0  0  0  0  0  0
  -10.1700    2.9796   -1.2341 O   0  0  0  0  0  0  0  0  0  0  0  0
   -9.6241    2.3661    1.1496 O   0  0  0  0  0  0  0  0  0  0  0  0
   -2.8226   -3.0250   -1.0829 N   0  0  0  0  0  0  0  0  0  0  0  0
    4.3773   -0.1971    0.9932 N   0  0  0  0  0  0  0  0  0  0  0  0
   -0.5074   -2.7002   -0.7339 N   0  0  0  0  0  0  0  0  0  0  0  0
    6.6295    0.0642    0.5512 N   0  0  0  0  0  0  0  0  0  0  0  0
   -8.6526    0.9416   -0.7478 N   0  0  0  0  0  0  0  0  0  0  0  0
   -1.2377   -0.0635    0.6500 C   0  0  0  0  0  0  0  0  0  0  0  0
   -2.1146   -1.0320    0.0566 C   0  0  0  0  0  0  0  0  0  0  0  0
    0.2015   -0.0985    0.7386 C   0  0  0  0  0  0  0  0  0  0  0  0
   -3.4514   -0.6401    0.1703 C   0  0  0  0  0  0  0  0  0  0  0  0
   -1.9094    1.0099    1.1848 C   0  0  0  0  0  0  0  0  0  0  0  0
   -1.8341   -2.2485   -0.5856 C   0  0  0  0  0  0  0  0  0  0  0  0
   -4.4873   -1.4323   -0.3390 C   0  0  0  0  0  0  0  0  0  0  0  0
    0.9755    0.4624   -0.2771 C   0  0  0  0  0  0  0  0  0  0  0  0
    0.8193   -0.6921    1.8394 C   0  0  0  0  0  0  0  0  0  0  0  0
    2.9852   -0.1634    0.9086 C   0  0  0  0  0  0  0  0  0  0  0  0
    2.3673    0.4301   -0.1921 C   0  0  0  0  0  0  0  0  0  0  0  0
    2.2112   -0.7246    1.9244 C   0  0  0  0  0  0  0  0  0  0  0  0
   -4.0976   -2.6101   -0.9520 C   0  0  0  0  0  0  0  0  0  0  0  0
   -5.8523   -1.0443   -0.2260 C   0  0  0  0  0  0  0  0  0  0  0  0
    5.3310    0.3110    0.0775 C   0  0  0  0  0  0  0  0  0  0  0  0
    7.8591    0.4079   -0.0586 C   0  0  0  0  0  0  0  0  0  0  0  0
   10.2748    0.4192   -0.0374 C   0  0  0  0  0  0  0  0  0  0  0  0
    9.0631    0.0790    0.5639 C   0  0  0  0  0  0  0  0  0  0  0  0
    7.8667    1.0770   -1.2825 C   0  0  0  0  0  0  0  0  0  0  0  0
   -8.4072   -0.3174   -0.0147 C   0  0  0  0  0  0  0  0  0  0  0  0
   10.2826    1.0884   -1.2613 C   0  0  0  0  0  0  0  0  0  0  0  0
   -7.0039   -0.7158   -0.1315 C   0  0  0  0  0  0  0  0  0  0  0  0
    9.0785    1.4173   -1.8838 C   0  0  0  0  0  0  0  0  0  0  0  0
   11.5625    0.0694    0.6289 C   0  0  0  0  0  0  0  0  0  0  0  0
  -11.2726    0.8492   -0.1871 C   0  0  0  0  0  0  0  0  0  0  0  0
   -1.4982    1.8755    1.6873 H   0  0  0  0  0  0  0  0  0  0  0  0
    0.5084    0.9276   -1.1422 H   0  0  0  0  0  0  0  0  0  0  0  0
    0.2305   -1.1350    2.6392 H   0  0  0  0  0  0  0  0  0  0  0  0
    2.8946    0.8848   -1.0185 H   0  0  0  0  0  0  0  0  0  0  0  0
    2.6793   -1.1910    2.7875 H   0  0  0  0  0  0  0  0  0  0  0  0
   -4.8326   -3.2891   -1.3763 H   0  0  0  0  0  0  0  0  0  0  0  0
    4.7538   -0.6468    1.8241 H   0  0  0  0  0  0  0  0  0  0  0  0
    0.2914   -2.1904   -0.3977 H   0  0  0  0  0  0  0  0  0  0  0  0
   -0.3600   -3.5834   -1.2053 H   0  0  0  0  0  0  0  0  0  0  0  0
    6.7059   -0.4212    1.4415 H   0  0  0  0  0  0  0  0  0  0  0  0
    9.0585   -0.4408    1.5194 H   0  0  0  0  0  0  0  0  0  0  0  0
    6.9797    1.3668   -1.8271 H   0  0  0  0  0  0  0  0  0  0  0  0
   -9.0522   -1.0985   -0.4300 H   0  0  0  0  0  0  0  0  0  0  0  0
   -8.6539   -0.1931    1.0447 H   0  0  0  0  0  0  0  0  0  0  0  0
   11.2199    1.3610   -1.7389 H   0  0  0  0  0  0  0  0  0  0  0  0
    9.0858    1.9390   -2.8365 H   0  0  0  0  0  0  0  0  0  0  0  0
   -8.5398    0.8490   -1.7662 H   0  0  0  0  0  0  0  0  0  0  0  0
   11.8590    0.8682    1.3159 H   0  0  0  0  0  0  0  0  0  0  0  0
   11.4730   -0.8651    1.1933 H   0  0  0  0  0  0  0  0  0  0  0  0
   12.3623   -0.0758   -0.1053 H   0  0  0  0  0  0  0  0  0  0  0  0
  -12.1675    1.4217    0.0682 H   0  0  0  0  0  0  0  0  0  0  0  0
  -11.3928    0.4070   -1.1779 H   0  0  0  0  0  0  0  0  0  0  0  0
  -11.1047    0.0838    0.5716 H   0  0  0  0  0  0  0  0  0  0  0  0
  1 14  1  0  0  0  0
  1 15  1  0  0  0  0
  2  4  2  0  0  0  0
  2  5  2  0  0  0  0
  2 10  1  0  0  0  0
  2 35  1  0  0  0  0
  3 25  2  0  0  0  0
  6 16  2  0  0  0  0
  6 23  1  0  0  0  0
  7 20  1  0  0  0  0
  7 25  1  0  0  0  0
  7 42  1  0  0  0  0
  8 16  1  0  0  0  0
  8 43  1  0  0  0  0
  8 44  1  0  0  0  0
  9 25  1  0  0  0  0
  9 26  1  0  0  0  0
  9 45  1  0  0  0  0
 10 30  1  0  0  0  0
 10 52  1  0  0  0  0
 11 12  1  0  0  0  0
 11 13  1  0  0  0  0
 11 15  2  0  0  0  0
 12 14  2  0  0  0  0
 12 16  1  0  0  0  0
 13 18  2  0  0  0  0
 13 19  1  0  0  0  0
 14 17  1  0  0  0  0
 15 36  1  0  0  0  0
 17 23  2  0  0  0  0
 17 24  1  0  0  0  0
 18 21  1  0  0  0  0
 18 37  1  0  0  0  0
 19 22  2  0  0  0  0
 19 38  1  0  0  0  0
 20 21  2  0  0  0  0
 20 22  1  0  0  0  0
 21 39  1  0  0  0  0
 22 40  1  0  0  0  0
 23 41  1  0  0  0  0
 24 32  3  0  0  0  0
 26 28  1  0  0  0  0
 26 29  2  0  0  0  0
 27 28  2  0  0  0  0
 27 31  1  0  0  0  0
 27 34  1  0  0  0  0
 28 46  1  0  0  0  0
 29 33  1  0  0  0  0
 29 47  1  0  0  0  0
 30 32  1  0  0  0  0
 30 48  1  0  0  0  0
 30 49  1  0  0  0  0
 31 33  2  0  0  0  0
 31 50  1  0  0  0  0
 33 51  1  0  0  0  0
 34 53  1  0  0  0  0
 34 54  1  0  0  0  0
 34 55  1  0  0  0  0
 35 56  1  0  0  0  0
 35 57  1  0  0  0  0
 35 58  1  0  0  0  0
M  END
> <PUBCHEM_COMPOUND_CID>
18450918

> <PUBCHEM_CONFORMER_RMSD>
1

> <PUBCHEM_CONFORMER_DIVERSEORDER>
1
34
8
52
25
18
11
29
30
43
38
28
16
12
37
17
60
27
61
13
51
50
53
56
21
6
33
57
41
58
64
44
31
20
19
40
32
62
15
63
9
49
39
26
22
48
23
46
42
36
10
14
4
7
59
55
35
47
24
5
45
54
3
2

> <PUBCHEM_MMFF94_PARTIAL_CHARGES>
49
1 -0.08
10 -0.91
11 -0.05
13 0.05
14 0.04
15 -0.11
16 0.41
17 0.07
18 -0.15
19 -0.15
2 1.33
20 0.12
21 -0.15
22 -0.15
23 0.16
24 -0.07
25 0.69
26 0.12
27 -0.14
28 -0.15
29 -0.15
3 -0.57
30 0.56
31 -0.15
32 -0.2
33 -0.15
34 0.14
35 0.11
36 0.15
37 0.15
38 0.15
39 0.15
4 -0.65
40 0.15
41 0.15
42 0.37
43 0.4
44 0.4
45 0.37
46 0.15
47 0.15
5 -0.65
50 0.15
51 0.15
52 0.42
6 -0.62
7 -0.55
8 -0.9
9 -0.55

> <PUBCHEM_EFFECTIVE_ROTOR_COUNT>
7

> <PUBCHEM_PHARMACOPHORE_FEATURES>
12
1 10 donor
1 3 acceptor
1 4 acceptor
1 5 acceptor
1 7 donor
1 8 donor
1 9 donor
3 6 8 16 cation
5 1 11 12 14 15 rings
6 13 18 19 20 21 22 rings
6 26 27 28 29 31 33 rings
6 6 12 14 16 17 23 rings

> <PUBCHEM_HEAVY_ATOM_COUNT>
35

> <PUBCHEM_ATOM_DEF_STEREO_COUNT>
0

> <PUBCHEM_ATOM_UDEF_STEREO_COUNT>
0

> <PUBCHEM_BOND_DEF_STEREO_COUNT>
0

> <PUBCHEM_BOND_UDEF_STEREO_COUNT>
0

> <PUBCHEM_ISOTOPIC_ATOM_COUNT>
0

> <PUBCHEM_COMPONENT_COUNT>
1

> <PUBCHEM_CACTVS_TAUTO_COUNT>
6

> <PUBCHEM_CONFORMER_ID>
011989E600000001

> <PUBCHEM_MMFF94_ENERGY>
94.5075

> <PUBCHEM_FEATURE_SELFOVERLAP>
61.028

> <PUBCHEM_SHAPE_FINGERPRINT>
10 15 13118272699326821010
10190206 1 17775291517912099281
10674148 151 18273213131708036866
11410812 94 13326585030212628203
11828042 53 17914903028350586441
12013929 94 10159695807242622053
12089408 11 18186798097375068074
12144603 126 18186800279160159299
12522641 33 18410015429857682082
12758862 11 17560797779219666082
12838862 33 16917347044028184646
13740195 50 11602543130620121005
14040221 8 18343868814309160344
14251764 46 18411136952786038098
14918687 75 11024103244422975904
15061470 23 18335700564291320352
15065858 18 17346597508893417654
15183329 4 17821723980089639514
15247644 1 13830132797489228509
15510794 2 16702030777773056598
16087824 20 18412824656333606905
20156587 128 18411983521268821530
20501277 279 14490190514654026873
20609170 92 18200879470542091839
20721686 146 18188765034764735029
21102433 48 11600006535430511900
21360443 120 18335138700617030826
21360443 89 7853565804504557905
21792961 116 16630533920968126330
21895431 317 12031518665876058900
23399689 5 18335421249857467165
23559900 14 17630598131698940187
249057 3 18201158853795979760
2835820 33 8214141858601917660
3092352 35 17894630383897834755
335352 9 18202278118147271967
3986486 107 16845574189337031401
3991529 128 18335145281039022097
4017518 198 17132115754067323383
4353968 344 13470693621070549987
58083652 198 15267063700981071290
58902169 19 18188209935895323710
59521270 166 18412542102934418143
59682541 35 13190337976481135455
6698420 124 17458911547364455536
9663363 56 16559030498503249098

> <PUBCHEM_SHAPE_MULTIPOLES>
685.47
43.43
2.24
1.38
19.25
0.55
-0.12
-29.61
10.65
-6.52
0.93
1.37
-0.11
-2.01

> <PUBCHEM_SHAPE_SELFOVERLAP>
1461.941

> <PUBCHEM_SHAPE_VOLUME>
381.9

> <PUBCHEM_COORDINATE_TYPE>
2
5
10

$$$$
