44352772
  -OEChem-10052115163D

 68 75  0     1  0  0  0  0  0999 V2000
    1.0912   -1.4093   -2.3596 O   0  0  0  0  0  0  0  0  0  0  0  0
    3.7197   -1.7965    0.2302 O   0  0  0  0  0  0  0  0  0  0  0  0
   -4.1696    3.0839    0.1808 O   0  0  0  0  0  0  0  0  0  0  0  0
    1.7545    0.2357   -0.8028 N   0  0  0  0  0  0  0  0  0  0  0  0
   -0.9060   -1.0830   -1.2307 N   0  0  0  0  0  0  0  0  0  0  0  0
    1.0644   -2.0372    1.3394 N   0  0  1  0  0  0  0  0  0  0  0  0
   -2.3385    4.4395    0.7138 N   0  0  0  0  0  0  0  0  0  0  0  0
   -3.0706   -2.5217    3.8254 N   0  0  0  0  0  0  0  0  0  0  0  0
    2.1602   -0.9778   -1.5147 C   0  0  1  0  0  0  0  0  0  0  0  0
    2.6357   -2.1523   -0.6156 C   0  0  2  0  0  0  0  0  0  0  0  0
    1.5267   -2.8258    0.1995 C   0  0  2  0  0  0  0  0  0  0  0  0
    0.0152   -2.0681   -1.7319 C   0  0  2  0  0  0  0  0  0  0  0  0
    0.3881   -3.1821   -0.7487 C   0  0  0  0  0  0  0  0  0  0  0  0
    0.5218    0.8261   -0.6037 C   0  0  0  0  0  0  0  0  0  0  0  0
   -0.7435    0.2050   -0.8167 C   0  0  0  0  0  0  0  0  0  0  0  0
    0.4305    2.1704   -0.0769 C   0  0  0  0  0  0  0  0  0  0  0  0
   -1.9062    1.0208   -0.5084 C   0  0  0  0  0  0  0  0  0  0  0  0
    3.2515   -0.6660   -2.5687 C   0  0  0  0  0  0  0  0  0  0  0  0
    2.6084    1.2270   -0.2700 C   0  0  0  0  0  0  0  0  0  0  0  0
   -2.2948   -1.2266   -1.2061 C   0  0  0  0  0  0  0  0  0  0  0  0
    1.8565    2.3793    0.1142 C   0  0  0  0  0  0  0  0  0  0  0  0
   -0.6934    2.9531    0.1732 C   0  0  0  0  0  0  0  0  0  0  0  0
   -1.9118    2.3394   -0.0651 C   0  0  0  0  0  0  0  0  0  0  0  0
   -2.9126   -0.0066   -0.8007 C   0  0  0  0  0  0  0  0  0  0  0  0
   -0.8946    4.3363    0.6968 C   0  0  0  0  0  0  0  0  0  0  0  0
   -0.2511   -2.4992    1.7820 C   0  0  0  0  0  0  0  0  0  0  0  0
    4.0107    1.2392   -0.0923 C   0  0  0  0  0  0  0  0  0  0  0  0
    2.0275   -2.1114    2.4380 C   0  0  0  0  0  0  0  0  0  0  0  0
   -2.9743    3.2829    0.2741 C   0  0  0  0  0  0  0  0  0  0  0  0
   -3.0693   -2.3619   -1.5255 C   0  0  0  0  0  0  0  0  0  0  0  0
    2.5504    3.5036    0.6335 C   0  0  0  0  0  0  0  0  0  0  0  0
   -4.3294    0.0099   -0.7332 C   0  0  0  0  0  0  0  0  0  0  0  0
    4.5549   -2.9131    0.5084 C   0  0  0  0  0  0  0  0  0  0  0  0
    4.6548    2.3652    0.4279 C   0  0  0  0  0  0  0  0  0  0  0  0
   -0.7167   -1.6953    2.9932 C   0  0  0  0  0  0  0  0  0  0  0  0
    3.9351    3.4901    0.7824 C   0  0  0  0  0  0  0  0  0  0  0  0
   -4.4594   -2.2938   -1.4447 C   0  0  0  0  0  0  0  0  0  0  0  0
   -5.0840   -1.1221   -1.0540 C   0  0  0  0  0  0  0  0  0  0  0  0
   -2.0322   -2.1579    3.4573 C   0  0  0  0  0  0  0  0  0  0  0  0
    2.9919   -2.9215   -1.3203 H   0  0  0  0  0  0  0  0  0  0  0  0
    1.8969   -3.7862    0.5846 H   0  0  0  0  0  0  0  0  0  0  0  0
   -0.5125   -2.5531   -2.5625 H   0  0  0  0  0  0  0  0  0  0  0  0
    0.8010   -3.9853   -1.3818 H   0  0  0  0  0  0  0  0  0  0  0  0
   -0.4834   -3.6709   -0.3049 H   0  0  0  0  0  0  0  0  0  0  0  0
    2.9972    0.2314   -3.1461 H   0  0  0  0  0  0  0  0  0  0  0  0
    3.3276   -1.4842   -3.2968 H   0  0  0  0  0  0  0  0  0  0  0  0
    4.2487   -0.5334   -2.1481 H   0  0  0  0  0  0  0  0  0  0  0  0
   -0.5191    4.4558    1.7158 H   0  0  0  0  0  0  0  0  0  0  0  0
   -0.4903    5.0988    0.0268 H   0  0  0  0  0  0  0  0  0  0  0  0
   -1.0319   -2.3400    1.0390 H   0  0  0  0  0  0  0  0  0  0  0  0
   -0.2355   -3.5688    2.0350 H   0  0  0  0  0  0  0  0  0  0  0  0
    4.6270    0.3855   -0.3443 H   0  0  0  0  0  0  0  0  0  0  0  0
    1.7426   -1.4754    3.2802 H   0  0  0  0  0  0  0  0  0  0  0  0
    3.0035   -1.6902    2.2149 H   0  0  0  0  0  0  0  0  0  0  0  0
    2.1618   -3.1330    2.8119 H   0  0  0  0  0  0  0  0  0  0  0  0
   -2.5993   -3.2923   -1.8314 H   0  0  0  0  0  0  0  0  0  0  0  0
    2.0016    4.3933    0.9325 H   0  0  0  0  0  0  0  0  0  0  0  0
   -4.8620    0.9030   -0.4272 H   0  0  0  0  0  0  0  0  0  0  0  0
   -2.8378    5.2698    1.0169 H   0  0  0  0  0  0  0  0  0  0  0  0
    5.3579   -2.5744    1.1695 H   0  0  0  0  0  0  0  0  0  0  0  0
    5.0137   -3.2869   -0.4125 H   0  0  0  0  0  0  0  0  0  0  0  0
    4.0196   -3.7197    1.0147 H   0  0  0  0  0  0  0  0  0  0  0  0
    5.7342    2.3528    0.5537 H   0  0  0  0  0  0  0  0  0  0  0  0
   -0.0618   -1.8163    3.8602 H   0  0  0  0  0  0  0  0  0  0  0  0
   -0.7627   -0.6264    2.7527 H   0  0  0  0  0  0  0  0  0  0  0  0
    4.4450    4.3602    1.1851 H   0  0  0  0  0  0  0  0  0  0  0  0
   -5.0550   -3.1688   -1.6900 H   0  0  0  0  0  0  0  0  0  0  0  0
   -6.1680   -1.0799   -0.9930 H   0  0  0  0  0  0  0  0  0  0  0  0
  1  9  1  0  0  0  0
  1 12  1  0  0  0  0
  2 10  1  0  0  0  0
  2 33  1  0  0  0  0
  3 29  2  0  0  0  0
  4  9  1  0  0  0  0
  4 14  1  0  0  0  0
  4 19  1  0  0  0  0
  5 12  1  0  0  0  0
  5 15  1  0  0  0  0
  5 20  1  0  0  0  0
  6 11  1  0  0  0  0
  6 26  1  0  0  0  0
  6 28  1  0  0  0  0
  7 25  1  0  0  0  0
  7 29  1  0  0  0  0
  7 59  1  0  0  0  0
  8 39  3  0  0  0  0
  9 10  1  0  0  0  0
  9 18  1  0  0  0  0
 10 11  1  0  0  0  0
 10 40  1  0  0  0  0
 11 13  1  0  0  0  0
 11 41  1  0  0  0  0
 12 13  1  0  0  0  0
 12 42  1  0  0  0  0
 13 43  1  0  0  0  0
 13 44  1  0  0  0  0
 14 15  2  0  0  0  0
 14 16  1  0  0  0  0
 15 17  1  0  0  0  0
 16 21  1  0  0  0  0
 16 22  2  0  0  0  0
 17 23  2  0  0  0  0
 17 24  1  0  0  0  0
 18 45  1  0  0  0  0
 18 46  1  0  0  0  0
 18 47  1  0  0  0  0
 19 21  1  0  0  0  0
 19 27  2  0  0  0  0
 20 24  1  0  0  0  0
 20 30  2  0  0  0  0
 21 31  2  0  0  0  0
 22 23  1  0  0  0  0
 22 25  1  0  0  0  0
 23 29  1  0  0  0  0
 24 32  2  0  0  0  0
 25 48  1  0  0  0  0
 25 49  1  0  0  0  0
 26 35  1  0  0  0  0
 26 50  1  0  0  0  0
 26 51  1  0  0  0  0
 27 34  1  0  0  0  0
 27 52  1  0  0  0  0
 28 53  1  0  0  0  0
 28 54  1  0  0  0  0
 28 55  1  0  0  0  0
 30 37  1  0  0  0  0
 30 56  1  0  0  0  0
 31 36  1  0  0  0  0
 31 57  1  0  0  0  0
 32 38  1  0  0  0  0
 32 58  1  0  0  0  0
 33 60  1  0  0  0  0
 33 61  1  0  0  0  0
 33 62  1  0  0  0  0
 34 36  2  0  0  0  0
 34 63  1  0  0  0  0
 35 39  1  0  0  0  0
 35 64  1  0  0  0  0
 35 65  1  0  0  0  0
 36 66  1  0  0  0  0
 37 38  2  0  0  0  0
 37 67  1  0  0  0  0
 38 68  1  0  0  0  0
M  END
> <PUBCHEM_COMPOUND_CID>
44352772

> <PUBCHEM_CONFORMER_RMSD>
1

> <PUBCHEM_CONFORMER_DIVERSEORDER>
1
4
2
3

> <PUBCHEM_MMFF94_PARTIAL_CHARGES>
44
1 -0.56
10 0.28
11 0.27
12 0.54
14 -0.05
15 -0.05
16 -0.01
17 -0.01
19 -0.15
2 -0.56
20 -0.15
22 -0.14
23 0.09
25 0.44
26 0.27
27 -0.15
28 0.27
29 0.54
3 -0.57
30 -0.15
31 -0.15
32 -0.15
33 0.28
34 -0.15
35 0.2
36 -0.15
37 -0.15
38 -0.15
39 0.36
4 -0.04
5 -0.04
52 0.15
56 0.15
57 0.15
58 0.15
59 0.37
6 -0.81
63 0.15
66 0.15
67 0.15
68 0.15
7 -0.73
8 -0.56
9 0.54

> <PUBCHEM_EFFECTIVE_ROTOR_COUNT>
5.2

> <PUBCHEM_PHARMACOPHORE_FEATURES>
16
1 1 acceptor
1 2 acceptor
1 3 acceptor
1 4 cation
1 5 cation
1 6 cation
1 7 donor
1 8 acceptor
5 4 14 16 19 21 rings
5 5 15 17 20 24 rings
5 7 22 23 25 29 rings
6 1 9 10 11 12 13 rings
6 14 15 16 17 22 23 rings
6 19 21 27 31 34 36 rings
6 20 24 30 32 37 38 rings
7 1 4 5 9 12 14 15 rings

> <PUBCHEM_HEAVY_ATOM_COUNT>
39

> <PUBCHEM_ATOM_DEF_STEREO_COUNT>
4

> <PUBCHEM_ATOM_UDEF_STEREO_COUNT>
0

> <PUBCHEM_BOND_DEF_STEREO_COUNT>
0

> <PUBCHEM_BOND_UDEF_STEREO_COUNT>
0

> <PUBCHEM_ISOTOPIC_ATOM_COUNT>
0

> <PUBCHEM_COMPONENT_COUNT>
1

> <PUBCHEM_CACTVS_TAUTO_COUNT>
2

> <PUBCHEM_CONFORMER_ID>
02A4C50400000001

> <PUBCHEM_MMFF94_ENERGY>
170.2336

> <PUBCHEM_FEATURE_SELFOVERLAP>
82.324

> <PUBCHEM_SHAPE_FINGERPRINT>
10006869 2 18200580480293310749
10675989 125 18122042244921395629
10906281 52 18051140485879231461
1100329 8 18125717890127143244
11607047 403 13028179046964607863
12107698 1 18339913827532814198
12156800 1 17914584328548377560
12608794 3 17915489196991511326
12788726 201 18195236944109124560
13140716 1 18270957942843518421
13583140 156 17390517298817207973
14020679 6 18045515109476101937
14790565 3 17981884452059490005
20691752 17 17895193247097094884
20764821 26 17827108339110298987
20905425 154 18272928332231362852
21421861 104 18410852140519544121
23558518 356 18409736131680278405
23559900 14 17915738682903888004
3178227 256 17905889528857673855
3380486 145 17833277793047741754
35225 105 17170412963300397938
469060 322 18057330698020934841
5265222 85 15821001631124636022
563151 248 17472133982021682890
56638632 10 17547866607743808089
57527573 199 18192144026189243572
6004065 56 17551777540950161541
70251023 43 18272102581861465719

> <PUBCHEM_SHAPE_MULTIPOLES>
760.09
7.89
5.78
2.57
0.94
4.61
-2.5
0.47
1.12
-0.61
-2.05
1.48
-3.15
0.45

> <PUBCHEM_SHAPE_SELFOVERLAP>
1730.206

> <PUBCHEM_SHAPE_VOLUME>
391.3

> <PUBCHEM_COORDINATE_TYPE>
2
5
10

$$$$
