15550318
  -OEChem-10052115143D

 53 55  0     0  0  0  0  0  0999 V2000
   -4.4402    2.9971   -0.0496 O   0  0  0  0  0  0  0  0  0  0  0  0
   -5.9153    0.8639    0.9220 O   0  0  0  0  0  0  0  0  0  0  0  0
   -1.9261    2.5498   -1.1233 O   0  0  0  0  0  0  0  0  0  0  0  0
   -2.3654   -2.1610   -0.2563 N   0  0  0  0  0  0  0  0  0  0  0  0
    5.2330    1.5450    0.5079 N   0  0  0  0  0  0  0  0  0  0  0  0
   -0.0604   -1.7551   -0.0881 N   0  0  0  0  0  0  0  0  0  0  0  0
    2.9889    0.8509    0.9053 N   0  0  0  0  0  0  0  0  0  0  0  0
   -0.9098   -4.0015   -0.2872 N   0  0  0  0  0  0  0  0  0  0  0  0
    8.7644    2.3613   -0.2040 N   0  0  0  0  0  0  0  0  0  0  0  0
   -2.8915   -0.8535   -0.2040 C   0  0  0  0  0  0  0  0  0  0  0  0
    2.2460   -1.2990    0.0845 C   0  0  0  0  0  0  0  0  0  0  0  0
   -3.9314    1.7331   -0.0997 C   0  0  0  0  0  0  0  0  0  0  0  0
   -4.6774    0.6611    0.3901 C   0  0  0  0  0  0  0  0  0  0  0  0
   -2.6653    1.5117   -0.6417 C   0  0  0  0  0  0  0  0  0  0  0  0
   -4.1574   -0.6322    0.3380 C   0  0  0  0  0  0  0  0  0  0  0  0
   -2.1454    0.2184   -0.6939 C   0  0  0  0  0  0  0  0  0  0  0  0
    1.1859   -2.2700   -0.0452 C   0  0  0  0  0  0  0  0  0  0  0  0
    6.5433    1.3500   -0.0218 C   0  0  0  0  0  0  0  0  0  0  0  0
    4.2019    0.5828    0.3717 C   0  0  0  0  0  0  0  0  0  0  0  0
   -1.0502   -2.6628   -0.2081 C   0  0  0  0  0  0  0  0  0  0  0  0
    3.5072   -1.5381   -0.4505 C   0  0  0  0  0  0  0  0  0  0  0  0
    4.5092   -0.5845   -0.3086 C   0  0  0  0  0  0  0  0  0  0  0  0
    7.4185    2.5479    0.3234 C   0  0  0  0  0  0  0  0  0  0  0  0
    2.0403   -0.0993    0.7474 C   0  0  0  0  0  0  0  0  0  0  0  0
    1.4605   -3.6205   -0.1164 C   0  0  0  0  0  0  0  0  0  0  0  0
    0.3626   -4.4474   -0.2382 C   0  0  0  0  0  0  0  0  0  0  0  0
   -5.6602    3.2314   -0.7492 C   0  0  0  0  0  0  0  0  0  0  0  0
   -6.6112   -0.2854    1.4001 C   0  0  0  0  0  0  0  0  0  0  0  0
   -1.0546    3.2060   -0.2046 C   0  0  0  0  0  0  0  0  0  0  0  0
   -4.6901   -1.5038    0.7045 H   0  0  0  0  0  0  0  0  0  0  0  0
   -1.1759    0.0799   -1.1620 H   0  0  0  0  0  0  0  0  0  0  0  0
   -3.0645   -2.8965   -0.2127 H   0  0  0  0  0  0  0  0  0  0  0  0
    7.0018    0.4481    0.4037 H   0  0  0  0  0  0  0  0  0  0  0  0
    6.5041    1.2395   -1.1130 H   0  0  0  0  0  0  0  0  0  0  0  0
    4.9934    2.3946    1.0062 H   0  0  0  0  0  0  0  0  0  0  0  0
    3.7414   -2.4436   -1.0036 H   0  0  0  0  0  0  0  0  0  0  0  0
    5.4780   -0.8005   -0.7433 H   0  0  0  0  0  0  0  0  0  0  0  0
    7.4739    2.6770    1.4103 H   0  0  0  0  0  0  0  0  0  0  0  0
    6.9886    3.4671   -0.0913 H   0  0  0  0  0  0  0  0  0  0  0  0
    1.0871    0.1577    1.2005 H   0  0  0  0  0  0  0  0  0  0  0  0
    2.4544   -4.0456   -0.0615 H   0  0  0  0  0  0  0  0  0  0  0  0
    0.4785   -5.5244   -0.2962 H   0  0  0  0  0  0  0  0  0  0  0  0
    8.7273    2.2751   -1.2188 H   0  0  0  0  0  0  0  0  0  0  0  0
    9.3224    3.1914   -0.0083 H   0  0  0  0  0  0  0  0  0  0  0  0
   -6.5079    3.1464   -0.0636 H   0  0  0  0  0  0  0  0  0  0  0  0
   -5.7871    2.5519   -1.5993 H   0  0  0  0  0  0  0  0  0  0  0  0
   -5.6369    4.2558   -1.1325 H   0  0  0  0  0  0  0  0  0  0  0  0
   -6.0849   -0.7576    2.2367 H   0  0  0  0  0  0  0  0  0  0  0  0
   -6.8294   -0.9911    0.5913 H   0  0  0  0  0  0  0  0  0  0  0  0
   -7.5754    0.0605    1.7872 H   0  0  0  0  0  0  0  0  0  0  0  0
   -0.5433    4.0141   -0.7347 H   0  0  0  0  0  0  0  0  0  0  0  0
   -1.6229    3.6366    0.6260 H   0  0  0  0  0  0  0  0  0  0  0  0
   -0.3032    2.5071    0.1765 H   0  0  0  0  0  0  0  0  0  0  0  0
  1 12  1  0  0  0  0
  1 27  1  0  0  0  0
  2 13  1  0  0  0  0
  2 28  1  0  0  0  0
  3 14  1  0  0  0  0
  3 29  1  0  0  0  0
  4 10  1  0  0  0  0
  4 20  1  0  0  0  0
  4 32  1  0  0  0  0
  5 18  1  0  0  0  0
  5 19  1  0  0  0  0
  5 35  1  0  0  0  0
  6 17  2  0  0  0  0
  6 20  1  0  0  0  0
  7 19  2  0  0  0  0
  7 24  1  0  0  0  0
  8 20  2  0  0  0  0
  8 26  1  0  0  0  0
  9 23  1  0  0  0  0
  9 43  1  0  0  0  0
  9 44  1  0  0  0  0
 10 15  2  0  0  0  0
 10 16  1  0  0  0  0
 11 17  1  0  0  0  0
 11 21  1  0  0  0  0
 11 24  2  0  0  0  0
 12 13  2  0  0  0  0
 12 14  1  0  0  0  0
 13 15  1  0  0  0  0
 14 16  2  0  0  0  0
 15 30  1  0  0  0  0
 16 31  1  0  0  0  0
 17 25  1  0  0  0  0
 18 23  1  0  0  0  0
 18 33  1  0  0  0  0
 18 34  1  0  0  0  0
 19 22  1  0  0  0  0
 21 22  2  0  0  0  0
 21 36  1  0  0  0  0
 22 37  1  0  0  0  0
 23 38  1  0  0  0  0
 23 39  1  0  0  0  0
 24 40  1  0  0  0  0
 25 26  2  0  0  0  0
 25 41  1  0  0  0  0
 26 42  1  0  0  0  0
 27 45  1  0  0  0  0
 27 46  1  0  0  0  0
 27 47  1  0  0  0  0
 28 48  1  0  0  0  0
 28 49  1  0  0  0  0
 28 50  1  0  0  0  0
 29 51  1  0  0  0  0
 29 52  1  0  0  0  0
 29 53  1  0  0  0  0
M  END
> <PUBCHEM_COMPOUND_CID>
15550318

> <PUBCHEM_CONFORMER_RMSD>
1

> <PUBCHEM_CONFORMER_DIVERSEORDER>
7
28
15
39
44
2
31
47
30
32
1
5
34
22
41
17
21
36
46
10
20
19
45
42
25
33
11
35
14
37
18
23
26
29
6
3
40
4
38
16
27
24
12
13
8
43
9

> <PUBCHEM_MMFF94_PARTIAL_CHARGES>
39
1 -0.36
10 0.1
12 0.08
13 0.08
14 0.08
15 -0.15
16 -0.15
17 0.31
18 0.37
19 0.41
2 -0.36
20 0.72
21 -0.15
22 -0.15
23 0.27
24 0.16
25 -0.15
26 0.16
27 0.28
28 0.28
29 0.28
3 -0.36
30 0.15
31 0.15
32 0.4
35 0.4
36 0.15
37 0.15
4 -0.6
40 0.15
41 0.15
42 0.15
43 0.36
44 0.36
5 -0.87
6 -0.62
7 -0.62
8 -0.62
9 -0.99

> <PUBCHEM_EFFECTIVE_ROTOR_COUNT>
9

> <PUBCHEM_PHARMACOPHORE_FEATURES>
13
1 1 acceptor
1 2 acceptor
1 3 acceptor
1 4 donor
1 5 donor
1 6 acceptor
1 9 cation
1 9 donor
3 5 7 19 cation
4 4 6 8 20 cation
6 10 12 13 14 15 16 rings
6 6 8 17 20 25 26 rings
6 7 11 19 21 22 24 rings

> <PUBCHEM_HEAVY_ATOM_COUNT>
29

> <PUBCHEM_ATOM_DEF_STEREO_COUNT>
0

> <PUBCHEM_ATOM_UDEF_STEREO_COUNT>
0

> <PUBCHEM_BOND_DEF_STEREO_COUNT>
0

> <PUBCHEM_BOND_UDEF_STEREO_COUNT>
0

> <PUBCHEM_ISOTOPIC_ATOM_COUNT>
0

> <PUBCHEM_COMPONENT_COUNT>
1

> <PUBCHEM_CACTVS_TAUTO_COUNT>
9

> <PUBCHEM_CONFORMER_ID>
00ED476E00000007

> <PUBCHEM_MMFF94_ENERGY>
124.3763

> <PUBCHEM_FEATURE_SELFOVERLAP>
65.981

> <PUBCHEM_SHAPE_FINGERPRINT>
10 15 18260831518292779672
10165383 225 18272093824628546203
10190206 1 18128804416919651071
10369192 42 18411419531226602188
10411042 1 17474104779342346526
10864689 126 18411700942422972604
11135609 187 18264190462508876341
12107183 9 18263628625273712058
12925494 130 18050848815388761729
13402501 40 18411418388722992729
13726171 33 18336266743206035553
14114211 80 18130795516607835483
14251764 75 18198911314126154993
14765038 42 18202015316860384761
14790565 3 18410578404763021788
15297060 5 18343305894520301664
16126227 98 18340772645225396336
18608769 82 18340491178838724307
19053607 189 18194946479280742457
21133410 127 18042683889116993068
21365058 113 17123685557482608999
21756936 100 18342169025145548862
23559900 14 17761208818106485259
23569914 152 7996836451865793441
2747138 104 18188228562894368091
5104073 3 18045789983947960739
5219985 13 18412543215225939966
5252454 2 18201428164972036923
6327066 14 18409160004740267172
636775 72 18125434474780503792
7288768 16 18113898264566805259
7808743 9 18338230574521235250

> <PUBCHEM_SHAPE_MULTIPOLES>
549.31
17.3
5.16
0.87
20.57
3
-0.09
-20.33
-2.96
0.14
0.99
-0.69
-0.18
1.21

> <PUBCHEM_SHAPE_SELFOVERLAP>
1173.211

> <PUBCHEM_SHAPE_VOLUME>
302

> <PUBCHEM_COORDINATE_TYPE>
2
5
10

$$$$
