9893493
  -OEChem-10052115173D

 63 65  0     0  0  0  0  0  0999 V2000
   10.1034   -0.4887    1.1072 S   0  0  0  0  0  0  0  0  0  0  0  0
   -3.9289   -3.4825   -1.3092 F   0  0  0  0  0  0  0  0  0  0  0  0
   -7.7422   -1.8511    0.9564 F   0  0  0  0  0  0  0  0  0  0  0  0
    5.1559    0.1794   -0.0120 O   0  0  0  0  0  0  0  0  0  0  0  0
    4.1514    2.0283   -0.9065 O   0  0  0  0  0  0  0  0  0  0  0  0
    9.8634   -0.6427    2.5323 O   0  0  0  0  0  0  0  0  0  0  0  0
   10.2018   -1.6540    0.2443 O   0  0  0  0  0  0  0  0  0  0  0  0
   -7.3640    0.3416    2.3554 O   0  0  0  0  0  0  0  0  0  0  0  0
   -6.7854    2.9231    1.9156 O   0  0  0  0  0  0  0  0  0  0  0  0
   -0.1048    1.5790   -1.4628 N   0  0  0  0  0  0  0  0  0  0  0  0
    2.9292    0.0992   -0.3639 N   0  0  0  0  0  0  0  0  0  0  0  0
   -2.5735   -1.1082   -0.8401 N   0  0  0  0  0  0  0  0  0  0  0  0
   -0.8816    2.5615   -1.9797 N   0  0  0  0  0  0  0  0  0  0  0  0
   -2.7320    1.0418   -1.7058 N   0  0  0  0  0  0  0  0  0  0  0  0
   -6.1272    1.9062    1.1966 N   0  0  0  0  0  0  0  0  0  0  0  0
    0.4790   -0.3856   -0.5960 C   0  0  0  0  0  0  0  0  0  0  0  0
    0.4474   -1.7639   -0.0633 C   0  0  0  0  0  0  0  0  0  0  0  0
   -0.5822    0.3561   -1.0680 C   0  0  0  0  0  0  0  0  0  0  0  0
    1.6376    0.4232   -0.7125 C   0  0  0  0  0  0  0  0  0  0  0  0
    1.2482    1.6313   -1.2506 C   0  0  0  0  0  0  0  0  0  0  0  0
    1.2760   -2.7644   -0.9002 C   0  0  0  0  0  0  0  0  0  0  0  0
    0.8775   -1.8584    1.4179 C   0  0  0  0  0  0  0  0  0  0  0  0
   -1.9929    0.0834   -1.2048 C   0  0  0  0  0  0  0  0  0  0  0  0
    7.4933   -0.0693    0.4867 C   0  0  0  0  0  0  0  0  0  0  0  0
    8.8645    0.5824    0.4505 C   0  0  0  0  0  0  0  0  0  0  0  0
    6.4173    0.8566   -0.0597 C   0  0  0  0  0  0  0  0  0  0  0  0
    4.0763    0.8850   -0.4730 C   0  0  0  0  0  0  0  0  0  0  0  0
   -2.1406    2.2377   -2.0704 C   0  0  0  0  0  0  0  0  0  0  0  0
   -3.8758   -1.2949   -0.3853 C   0  0  0  0  0  0  0  0  0  0  0  0
   11.6022    0.4489    0.9144 C   0  0  0  0  0  0  0  0  0  0  0  0
   -4.5194   -0.2769    0.3181 C   0  0  0  0  0  0  0  0  0  0  0  0
   -4.5374   -2.4977   -0.6329 C   0  0  0  0  0  0  0  0  0  0  0  0
   -5.8247   -0.4616    0.7739 C   0  0  0  0  0  0  0  0  0  0  0  0
   -5.8426   -2.6825   -0.1770 C   0  0  0  0  0  0  0  0  0  0  0  0
   -6.4862   -1.6643    0.5263 C   0  0  0  0  0  0  0  0  0  0  0  0
   -6.4930    0.6029    1.5058 C   0  0  0  0  0  0  0  0  0  0  0  0
   -6.2900    4.1790    1.4723 C   0  0  0  0  0  0  0  0  0  0  0  0
   -0.5631   -2.1609   -0.0612 H   0  0  0  0  0  0  0  0  0  0  0  0
    1.7970    2.5272   -1.5058 H   0  0  0  0  0  0  0  0  0  0  0  0
    1.1185   -3.7861   -0.5369 H   0  0  0  0  0  0  0  0  0  0  0  0
    0.9683   -2.7332   -1.9513 H   0  0  0  0  0  0  0  0  0  0  0  0
    2.3500   -2.5653   -0.8601 H   0  0  0  0  0  0  0  0  0  0  0  0
    0.2878   -1.1709    2.0347 H   0  0  0  0  0  0  0  0  0  0  0  0
    0.7130   -2.8728    1.7984 H   0  0  0  0  0  0  0  0  0  0  0  0
    1.9334   -1.6204    1.5695 H   0  0  0  0  0  0  0  0  0  0  0  0
    3.0723   -0.8270    0.0221 H   0  0  0  0  0  0  0  0  0  0  0  0
   -2.0922   -1.9692   -1.0745 H   0  0  0  0  0  0  0  0  0  0  0  0
    7.2328   -0.3624    1.5115 H   0  0  0  0  0  0  0  0  0  0  0  0
    7.4958   -1.0031   -0.0895 H   0  0  0  0  0  0  0  0  0  0  0  0
    8.8755    1.5008    1.0459 H   0  0  0  0  0  0  0  0  0  0  0  0
    9.1502    0.8231   -0.5784 H   0  0  0  0  0  0  0  0  0  0  0  0
    6.6428    1.1249   -1.0984 H   0  0  0  0  0  0  0  0  0  0  0  0
    6.3610    1.7682    0.5465 H   0  0  0  0  0  0  0  0  0  0  0  0
   -2.8279    2.9945   -2.4831 H   0  0  0  0  0  0  0  0  0  0  0  0
   12.4296   -0.1485    1.3028 H   0  0  0  0  0  0  0  0  0  0  0  0
   11.7547    0.6551   -0.1465 H   0  0  0  0  0  0  0  0  0  0  0  0
   11.5121    1.3773    1.4815 H   0  0  0  0  0  0  0  0  0  0  0  0
   -3.9825    0.6373    0.5566 H   0  0  0  0  0  0  0  0  0  0  0  0
   -6.3580   -3.6184   -0.3707 H   0  0  0  0  0  0  0  0  0  0  0  0
   -5.4612    2.1876    0.4852 H   0  0  0  0  0  0  0  0  0  0  0  0
   -5.2141    4.2559    1.6602 H   0  0  0  0  0  0  0  0  0  0  0  0
   -6.5013    4.3213    0.4075 H   0  0  0  0  0  0  0  0  0  0  0  0
   -6.7980    4.9667    2.0353 H   0  0  0  0  0  0  0  0  0  0  0  0
  1  6  2  0  0  0  0
  1  7  2  0  0  0  0
  1 25  1  0  0  0  0
  1 30  1  0  0  0  0
  2 32  1  0  0  0  0
  3 35  1  0  0  0  0
  4 26  1  0  0  0  0
  4 27  1  0  0  0  0
  5 27  2  0  0  0  0
  8 36  2  0  0  0  0
  9 15  1  0  0  0  0
  9 37  1  0  0  0  0
 10 13  1  0  0  0  0
 10 18  1  0  0  0  0
 10 20  1  0  0  0  0
 11 19  1  0  0  0  0
 11 27  1  0  0  0  0
 11 46  1  0  0  0  0
 12 23  1  0  0  0  0
 12 29  1  0  0  0  0
 12 47  1  0  0  0  0
 13 28  2  0  0  0  0
 14 23  2  0  0  0  0
 14 28  1  0  0  0  0
 15 36  1  0  0  0  0
 15 60  1  0  0  0  0
 16 17  1  0  0  0  0
 16 18  2  0  0  0  0
 16 19  1  0  0  0  0
 17 21  1  0  0  0  0
 17 22  1  0  0  0  0
 17 38  1  0  0  0  0
 18 23  1  0  0  0  0
 19 20  2  0  0  0  0
 20 39  1  0  0  0  0
 21 40  1  0  0  0  0
 21 41  1  0  0  0  0
 21 42  1  0  0  0  0
 22 43  1  0  0  0  0
 22 44  1  0  0  0  0
 22 45  1  0  0  0  0
 24 25  1  0  0  0  0
 24 26  1  0  0  0  0
 24 48  1  0  0  0  0
 24 49  1  0  0  0  0
 25 50  1  0  0  0  0
 25 51  1  0  0  0  0
 26 52  1  0  0  0  0
 26 53  1  0  0  0  0
 28 54  1  0  0  0  0
 29 31  1  0  0  0  0
 29 32  2  0  0  0  0
 30 55  1  0  0  0  0
 30 56  1  0  0  0  0
 30 57  1  0  0  0  0
 31 33  2  0  0  0  0
 31 58  1  0  0  0  0
 32 34  1  0  0  0  0
 33 35  1  0  0  0  0
 33 36  1  0  0  0  0
 34 35  2  0  0  0  0
 34 59  1  0  0  0  0
 37 61  1  0  0  0  0
 37 62  1  0  0  0  0
 37 63  1  0  0  0  0
M  END
> <PUBCHEM_COMPOUND_CID>
9893493

> <PUBCHEM_CONFORMER_RMSD>
1.2

> <PUBCHEM_CONFORMER_DIVERSEORDER>
1
8
47
14
58
30
9
39
57
49
26
53
34
43
55
22
36
61
28
50
24
21
12
11
51
31
19
35
45
32
60
42
13
56
46
33
52
15
18
54
38
3
17
16
41
7
40
59
44
2
29
5
23
4
25
48
10
27
20
37
6

> <PUBCHEM_MMFF94_PARTIAL_CHARGES>
41
1 1.09
10 0.51
11 -0.49
12 -0.55
13 -0.65
14 -0.66
15 -0.39
16 -0.18
17 0.18
18 -0.24
19 0.06
2 -0.19
20 -0.3
23 0.58
25 0.11
26 0.28
27 0.78
28 0.6
29 0.1
3 -0.19
30 0.11
31 -0.15
32 0.19
33 0.09
34 -0.15
35 0.19
36 0.54
37 0.28
39 0.15
4 -0.43
46 0.37
47 0.4
5 -0.57
54 0.06
58 0.15
59 0.15
6 -0.65
60 0.37
7 -0.65
8 -0.57
9 -0.32

> <PUBCHEM_EFFECTIVE_ROTOR_COUNT>
13

> <PUBCHEM_PHARMACOPHORE_FEATURES>
13
1 11 donor
1 12 donor
1 15 donor
1 5 acceptor
1 6 acceptor
1 7 acceptor
1 8 acceptor
3 12 14 23 cation
3 13 14 28 cation
3 17 21 22 hydrophobe
5 10 16 18 19 20 rings
6 10 13 14 18 23 28 rings
6 29 31 32 33 34 35 rings

> <PUBCHEM_HEAVY_ATOM_COUNT>
37

> <PUBCHEM_ATOM_DEF_STEREO_COUNT>
0

> <PUBCHEM_ATOM_UDEF_STEREO_COUNT>
0

> <PUBCHEM_BOND_DEF_STEREO_COUNT>
0

> <PUBCHEM_BOND_UDEF_STEREO_COUNT>
0

> <PUBCHEM_ISOTOPIC_ATOM_COUNT>
0

> <PUBCHEM_COMPONENT_COUNT>
1

> <PUBCHEM_CACTVS_TAUTO_COUNT>
12

> <PUBCHEM_CONFORMER_ID>
0096F67500000001

> <PUBCHEM_MMFF94_ENERGY>
90.4582

> <PUBCHEM_FEATURE_SELFOVERLAP>
66.223

> <PUBCHEM_SHAPE_FINGERPRINT>
11456790 92 18272088319013677608
11973863 73 17822005372633725088
12107183 9 18049736118537973507
13553643 46 15195564616211299034
14849402 71 18121790688138872333
15419008 145 18409732850588995441
1754911 235 9439407930641541338
1818759 1 17385442116726178074
20982279 24 16515972476039263730
21133410 32 14261050097225320021
21267235 1 17967528000434277740
21792961 116 17385991889240167159
21867018 265 11458431240778897080
21927370 108 16732703826881676388
23522609 53 17971221285092804213
23569914 2 16913931913525670529
3383291 50 17967807280799271098
44802255 64 15339117923100289533
54039377 194 17240483632384063302
6009941 240 14908180889070374614
6201320 215 17846502482657407985
9953998 17 18272931635113772062

> <PUBCHEM_SHAPE_MULTIPOLES>
685.64
32.21
3.39
1.88
89.78
0.96
0.38
-1.26
24.29
-8.22
-0.03
-1.55
0.98
-3.14

> <PUBCHEM_SHAPE_SELFOVERLAP>
1439.846

> <PUBCHEM_SHAPE_VOLUME>
390.9

> <PUBCHEM_COORDINATE_TYPE>
2
5
10

$$$$
