49830856
  -OEChem-10062121553D

 51 56  0     0  0  0  0  0  0999 V2000
   -0.0028    4.1798    0.0000 S   0  0  0  0  0  0  0  0  0  0  0  0
    8.1105   -4.2629   -0.6914 O   0  0  0  0  0  0  0  0  0  0  0  0
   -8.1081   -4.2647    0.6915 O   0  0  0  0  0  0  0  0  0  0  0  0
    4.5804   -0.8737   -0.5192 N   0  0  0  0  0  0  0  0  0  0  0  0
   -4.5799   -0.8735    0.5192 N   0  0  0  0  0  0  0  0  0  0  0  0
    5.8249    0.5837    0.6064 N   0  0  0  0  0  0  0  0  0  0  0  0
   -5.8252    0.5833   -0.6063 N   0  0  0  0  0  0  0  0  0  0  0  0
    4.6502    0.3626    0.0602 C   0  0  0  0  0  0  0  0  0  0  0  0
   -4.6504    0.3626   -0.0602 C   0  0  0  0  0  0  0  0  0  0  0  0
    5.7909   -1.4914   -0.3349 C   0  0  0  0  0  0  0  0  0  0  0  0
   -5.7900   -1.4919    0.3349 C   0  0  0  0  0  0  0  0  0  0  0  0
    3.5352    1.2773    0.0461 C   0  0  0  0  0  0  0  0  0  0  0  0
   -3.5356    1.2782   -0.0460 C   0  0  0  0  0  0  0  0  0  0  0  0
    6.5500   -0.5615    0.3700 C   0  0  0  0  0  0  0  0  0  0  0  0
   -6.5496   -0.5624   -0.3701 C   0  0  0  0  0  0  0  0  0  0  0  0
    6.2720   -2.7453   -0.7128 C   0  0  0  0  0  0  0  0  0  0  0  0
   -6.2705   -2.7461    0.7128 C   0  0  0  0  0  0  0  0  0  0  0  0
    3.3656    2.1868    1.0900 C   0  0  0  0  0  0  0  0  0  0  0  0
   -3.3666    2.1879   -1.0900 C   0  0  0  0  0  0  0  0  0  0  0  0
    2.6266    1.2528   -1.0120 C   0  0  0  0  0  0  0  0  0  0  0  0
   -2.6270    1.2542    1.0120 C   0  0  0  0  0  0  0  0  0  0  0  0
    1.3788    3.0469    0.0179 C   0  0  0  0  0  0  0  0  0  0  0  0
   -1.3802    3.0489   -0.0179 C   0  0  0  0  0  0  0  0  0  0  0  0
    7.8697   -0.8850    0.7278 C   0  0  0  0  0  0  0  0  0  0  0  0
   -7.8692   -0.8866   -0.7277 C   0  0  0  0  0  0  0  0  0  0  0  0
    2.2875    3.0716    1.0760 C   0  0  0  0  0  0  0  0  0  0  0  0
   -2.2890    3.0732   -1.0760 C   0  0  0  0  0  0  0  0  0  0  0  0
    1.5483    2.1374   -1.0261 C   0  0  0  0  0  0  0  0  0  0  0  0
   -1.5492    2.1394    1.0261 C   0  0  0  0  0  0  0  0  0  0  0  0
    7.5877   -3.0505   -0.3486 C   0  0  0  0  0  0  0  0  0  0  0  0
   -7.5859   -3.0521    0.3485 C   0  0  0  0  0  0  0  0  0  0  0  0
    8.3740   -2.1385    0.3590 C   0  0  0  0  0  0  0  0  0  0  0  0
   -8.3728   -2.1404   -0.3590 C   0  0  0  0  0  0  0  0  0  0  0  0
    3.7819   -1.2790   -0.9897 H   0  0  0  0  0  0  0  0  0  0  0  0
   -3.7812   -1.2783    0.9898 H   0  0  0  0  0  0  0  0  0  0  0  0
    5.6553   -3.4482   -1.2620 H   0  0  0  0  0  0  0  0  0  0  0  0
   -5.6534   -3.4487    1.2620 H   0  0  0  0  0  0  0  0  0  0  0  0
    4.0604    2.2206    1.9258 H   0  0  0  0  0  0  0  0  0  0  0  0
   -4.0615    2.2213   -1.9257 H   0  0  0  0  0  0  0  0  0  0  0  0
    2.7376    0.5670   -1.8482 H   0  0  0  0  0  0  0  0  0  0  0  0
   -2.7376    0.5683    1.8481 H   0  0  0  0  0  0  0  0  0  0  0  0
    8.4886   -0.1830    1.2775 H   0  0  0  0  0  0  0  0  0  0  0  0
   -8.4885   -0.1850   -1.2774 H   0  0  0  0  0  0  0  0  0  0  0  0
    2.1705    3.7725    1.8988 H   0  0  0  0  0  0  0  0  0  0  0  0
   -2.1726    3.7741   -1.8989 H   0  0  0  0  0  0  0  0  0  0  0  0
    0.8579    2.1062   -1.8654 H   0  0  0  0  0  0  0  0  0  0  0  0
   -0.8590    2.1084    1.8655 H   0  0  0  0  0  0  0  0  0  0  0  0
    9.3952   -2.3915    0.6347 H   0  0  0  0  0  0  0  0  0  0  0  0
   -9.3939   -2.3939   -0.6347 H   0  0  0  0  0  0  0  0  0  0  0  0
    9.0257   -4.3156   -0.3665 H   0  0  0  0  0  0  0  0  0  0  0  0
   -9.0233   -4.3179    0.3666 H   0  0  0  0  0  0  0  0  0  0  0  0
  1 22  1  0  0  0  0
  1 23  1  0  0  0  0
  2 30  1  0  0  0  0
  2 50  1  0  0  0  0
  3 31  1  0  0  0  0
  3 51  1  0  0  0  0
  4  8  1  0  0  0  0
  4 10  1  0  0  0  0
  4 34  1  0  0  0  0
  5  9  1  0  0  0  0
  5 11  1  0  0  0  0
  5 35  1  0  0  0  0
  6  8  2  0  0  0  0
  6 14  1  0  0  0  0
  7  9  2  0  0  0  0
  7 15  1  0  0  0  0
  8 12  1  0  0  0  0
  9 13  1  0  0  0  0
 10 14  2  0  0  0  0
 10 16  1  0  0  0  0
 11 15  2  0  0  0  0
 11 17  1  0  0  0  0
 12 18  2  0  0  0  0
 12 20  1  0  0  0  0
 13 19  2  0  0  0  0
 13 21  1  0  0  0  0
 14 24  1  0  0  0  0
 15 25  1  0  0  0  0
 16 30  2  0  0  0  0
 16 36  1  0  0  0  0
 17 31  2  0  0  0  0
 17 37  1  0  0  0  0
 18 26  1  0  0  0  0
 18 38  1  0  0  0  0
 19 27  1  0  0  0  0
 19 39  1  0  0  0  0
 20 28  2  0  0  0  0
 20 40  1  0  0  0  0
 21 29  2  0  0  0  0
 21 41  1  0  0  0  0
 22 26  2  0  0  0  0
 22 28  1  0  0  0  0
 23 27  2  0  0  0  0
 23 29  1  0  0  0  0
 24 32  2  0  0  0  0
 24 42  1  0  0  0  0
 25 33  2  0  0  0  0
 25 43  1  0  0  0  0
 26 44  1  0  0  0  0
 27 45  1  0  0  0  0
 28 46  1  0  0  0  0
 29 47  1  0  0  0  0
 30 32  1  0  0  0  0
 31 33  1  0  0  0  0
 32 48  1  0  0  0  0
 33 49  1  0  0  0  0
M  END
> <PUBCHEM_COMPOUND_CID>
49830856

> <PUBCHEM_CONFORMER_RMSD>
0.8

> <PUBCHEM_CONFORMER_DIVERSEORDER>
1
10
12
5
9
6
4
3
11
13
2
7
8

> <PUBCHEM_MMFF94_PARTIAL_CHARGES>
51
1 -0.2
10 -0.15
11 -0.15
12 0.05
13 0.05
14 0.23
15 0.23
16 -0.15
17 -0.15
18 -0.15
19 -0.15
2 -0.53
20 -0.15
21 -0.15
22 0.1
23 0.1
24 -0.15
25 -0.15
26 -0.15
27 -0.15
28 -0.15
29 -0.15
3 -0.53
30 0.08
31 0.08
32 -0.15
33 -0.15
34 0.27
35 0.27
36 0.15
37 0.15
38 0.15
39 0.15
4 0.03
40 0.15
41 0.15
42 0.15
43 0.15
44 0.15
45 0.15
46 0.15
47 0.15
48 0.15
49 0.15
5 0.03
50 0.45
51 0.45
6 -0.57
7 -0.57
8 0.13
9 0.13

> <PUBCHEM_EFFECTIVE_ROTOR_COUNT>
4

> <PUBCHEM_PHARMACOPHORE_FEATURES>
12
1 2 donor
1 3 donor
1 4 donor
1 5 donor
3 4 6 8 cation
3 5 7 9 cation
5 4 6 8 10 14 rings
5 5 7 9 11 15 rings
6 10 14 16 24 30 32 rings
6 11 15 17 25 31 33 rings
6 12 18 20 22 26 28 rings
6 13 19 21 23 27 29 rings

> <PUBCHEM_HEAVY_ATOM_COUNT>
33

> <PUBCHEM_ATOM_DEF_STEREO_COUNT>
0

> <PUBCHEM_ATOM_UDEF_STEREO_COUNT>
0

> <PUBCHEM_BOND_DEF_STEREO_COUNT>
0

> <PUBCHEM_BOND_UDEF_STEREO_COUNT>
0

> <PUBCHEM_ISOTOPIC_ATOM_COUNT>
0

> <PUBCHEM_COMPONENT_COUNT>
1

> <PUBCHEM_CACTVS_TAUTO_COUNT>
45

> <PUBCHEM_CONFORMER_ID>
02F85BC800000001

> <PUBCHEM_MMFF94_ENERGY>
77.9132

> <PUBCHEM_FEATURE_SELFOVERLAP>
61.115

> <PUBCHEM_SHAPE_FINGERPRINT>
10100884 174 18334293150716574106
10319688 140 18193278713573384556
10669705 251 18342460331244787070
10740516 88 18189624998364700459
11135609 201 10447928348021193721
11273773 46 18408599254712064525
11409948 35 18340486794605438603
11409948 8 18272075133991275064
11410812 94 16588575414986482052
11411753 3 18266155323362148296
11463208 1 17983865476235168334
117089 54 18410577279396654922
11761917 116 18410865326681248518
11761917 87 18188784967591839795
11828042 163 18262789668222291053
11828532 37 18189062056473647299
12013929 112 17386270036323878031
12013929 94 18413389827169624928
12124843 1 17821730541491470967
12342043 65 18340476833237109553
12522641 68 11097857397693325089
12841400 136 18410854373981600863
12895837 130 8646470925892230808
13248334 5 18122344854568181568
13383665 225 15286174223016594383
1361 4 18337111284057384089
1361 87 17313959639841040001
13782708 43 18410577283686899620
13944108 23 8429778066309477862
13947947 140 18336551520985624907
14068700 675 18187083940413263916
14344974 204 18269277851271189414
14359421 15 17894342268268851371
14565420 104 11239732871998487637
14664723 55 10665227021214275006
14931854 50 17603581898343620937
15152005 1 18411421717228611295
15152005 290 8827199301633432669
15152005 304 18411430513305847918
15152005 77 18273208703881903511
15347591 1 18410856568479014757
15455200 90 17386825298671520687
15510800 12 18410565189064015492
15530120 55 15432033381112848871
15773216 30 18191310588255667964
16067689 68 18059307474283520531
16126227 98 9439395835523115929
16990366 60 18409158901566675128
16992779 147 16485541409040621248
16994733 274 10807928263196000118
19301676 85 18262238940743675227
19303781 99 18337940268601017734
19438510 23 11239996754562014956
19841028 212 18408884061612868609
2026 5 18339921628159223159
20691028 202 9871457725866554336
208703 8 18410006637167531394
20982279 24 17604722217928125331
21095086 4 18410576184174739171
21130935 74 18342176691182670089
21197605 99 18271806792676713510
212700 22 18410566288576110979
21307412 95 17749112227479549233
21362267 20 17833832674024977138
21781055 127 12463272711251298982
21792965 25 18340219506206693401
21796203 349 17203602693144244640
23569943 247 18410579522493827443
25025965 108 17988626503311707783
255183 451 18260267468997425796
2851757 41 18410860957692517374
32027 91 18339077228776945969
3430473 40 18340488963184316667
3504750 166 18201720700459998093
406291 66 18411699885100998491
439807 62 18410012143595407141
44426699 153 18059852888191700408
4461854 278 17561362898759514598
44880568 143 17676760998928160892
4760202 70 18262248794073411300
5718773 13 18410573985151782433
636775 8 18199193885374184526
6691757 9 15194988449652113917
9980921 177 11239728423076553148
9980921 52 17771606109333265935

> <PUBCHEM_SHAPE_MULTIPOLES>
651.31
29.41
5.67
1.03
0.04
1.11
0
45.82
0
-0.01
0
0
-0.32
2.64

> <PUBCHEM_SHAPE_SELFOVERLAP>
1469.622

> <PUBCHEM_SHAPE_VOLUME>
344.3

> <PUBCHEM_COORDINATE_TYPE>
2
5
10

$$$$
