25016361
  -OEChem-10062121553D

 53 56  0     0  0  0  0  0  0999 V2000
   -0.5107   -2.3974   -1.7851 F   0  0  0  0  0  0  0  0  0  0  0  0
    2.2666   -4.8331    1.1670 F   0  0  0  0  0  0  0  0  0  0  0  0
    5.7379    0.4235   -0.7779 O   0  0  0  0  0  0  0  0  0  0  0  0
   -2.3958    1.1728    0.2041 N   0  0  0  0  0  0  0  0  0  0  0  0
   -2.6954   -1.0012   -0.2029 N   0  0  0  0  0  0  0  0  0  0  0  0
    3.3163    1.6786    0.1041 N   0  0  0  0  0  0  0  0  0  0  0  0
    1.0469    1.1378    0.3580 N   0  0  0  0  0  0  0  0  0  0  0  0
   -4.9608    1.8026   -0.6800 N   0  0  0  0  0  0  0  0  0  0  0  0
    2.1756    2.5288    1.9699 N   0  0  0  0  0  0  0  0  0  0  0  0
    4.8217    1.0049   -1.7092 C   0  0  0  0  0  0  0  0  0  0  0  0
   -1.2269    0.5646    0.5636 C   0  0  0  0  0  0  0  0  0  0  0  0
    3.4104    0.9261   -1.1073 C   0  0  0  0  0  0  0  0  0  0  0  0
   -3.2415    0.1906   -0.2482 C   0  0  0  0  0  0  0  0  0  0  0  0
   -1.4361   -0.7740    0.3036 C   0  0  0  0  0  0  0  0  0  0  0  0
   -4.5633    0.5567   -0.6984 C   0  0  0  0  0  0  0  0  0  0  0  0
   -0.0774    1.2625    1.0930 C   0  0  0  0  0  0  0  0  0  0  0  0
    4.8771    0.1766   -2.9968 C   0  0  0  0  0  0  0  0  0  0  0  0
    5.2559    2.4452   -1.9941 C   0  0  0  0  0  0  0  0  0  0  0  0
   -0.4828   -1.8207    0.5222 C   0  0  0  0  0  0  0  0  0  0  0  0
   -2.8182    2.4883    0.2224 C   0  0  0  0  0  0  0  0  0  0  0  0
   -5.4873   -0.5196   -1.1918 C   0  0  0  0  0  0  0  0  0  0  0  0
    2.1205    1.7871    0.8472 C   0  0  0  0  0  0  0  0  0  0  0  0
   -0.1526    1.9927    2.2615 C   0  0  0  0  0  0  0  0  0  0  0  0
   -4.0645    2.7553   -0.2126 C   0  0  0  0  0  0  0  0  0  0  0  0
   -0.0466   -2.6068   -0.5443 C   0  0  0  0  0  0  0  0  0  0  0  0
    0.0097   -2.0521    1.8065 C   0  0  0  0  0  0  0  0  0  0  0  0
   -5.0897   -0.9493   -2.5852 C   0  0  0  0  0  0  0  0  0  0  0  0
    1.0165    2.6107    2.6556 C   0  0  0  0  0  0  0  0  0  0  0  0
    0.8819   -3.6246   -0.3265 C   0  0  0  0  0  0  0  0  0  0  0  0
    0.9382   -3.0701    2.0242 C   0  0  0  0  0  0  0  0  0  0  0  0
    1.3743   -3.8563    0.9578 C   0  0  0  0  0  0  0  0  0  0  0  0
    3.1692   -0.1232   -0.8932 H   0  0  0  0  0  0  0  0  0  0  0  0
    2.6804    1.2972   -1.8377 H   0  0  0  0  0  0  0  0  0  0  0  0
    4.6231   -0.8709   -2.7978 H   0  0  0  0  0  0  0  0  0  0  0  0
    4.1886    0.5634   -3.7553 H   0  0  0  0  0  0  0  0  0  0  0  0
    5.8891    0.1732   -3.4179 H   0  0  0  0  0  0  0  0  0  0  0  0
    5.3600    3.0291   -1.0738 H   0  0  0  0  0  0  0  0  0  0  0  0
    6.2425    2.4643   -2.4720 H   0  0  0  0  0  0  0  0  0  0  0  0
    4.5466    2.9545   -2.6546 H   0  0  0  0  0  0  0  0  0  0  0  0
    4.1339    2.1206    0.5073 H   0  0  0  0  0  0  0  0  0  0  0  0
   -2.1447    3.2590    0.5732 H   0  0  0  0  0  0  0  0  0  0  0  0
   -6.5138   -0.1366   -1.1997 H   0  0  0  0  0  0  0  0  0  0  0  0
   -5.4570   -1.3727   -0.5055 H   0  0  0  0  0  0  0  0  0  0  0  0
   -1.0585    2.0805    2.8483 H   0  0  0  0  0  0  0  0  0  0  0  0
   -4.4295    3.7768   -0.2157 H   0  0  0  0  0  0  0  0  0  0  0  0
    6.6294    0.4720   -1.1634 H   0  0  0  0  0  0  0  0  0  0  0  0
   -0.3226   -1.4579    2.6545 H   0  0  0  0  0  0  0  0  0  0  0  0
   -5.0886   -0.0987   -3.2753 H   0  0  0  0  0  0  0  0  0  0  0  0
   -5.7926   -1.6962   -2.9674 H   0  0  0  0  0  0  0  0  0  0  0  0
   -4.0883   -1.3913   -2.6038 H   0  0  0  0  0  0  0  0  0  0  0  0
    1.0553    3.2053    3.5620 H   0  0  0  0  0  0  0  0  0  0  0  0
    1.2218   -4.2365   -1.1568 H   0  0  0  0  0  0  0  0  0  0  0  0
    1.3207   -3.2519    3.0243 H   0  0  0  0  0  0  0  0  0  0  0  0
  1 25  1  0  0  0  0
  2 31  1  0  0  0  0
  3 10  1  0  0  0  0
  3 46  1  0  0  0  0
  4 11  1  0  0  0  0
  4 13  1  0  0  0  0
  4 20  1  0  0  0  0
  5 13  2  0  0  0  0
  5 14  1  0  0  0  0
  6 12  1  0  0  0  0
  6 22  1  0  0  0  0
  6 40  1  0  0  0  0
  7 16  2  0  0  0  0
  7 22  1  0  0  0  0
  8 15  2  0  0  0  0
  8 24  1  0  0  0  0
  9 22  2  0  0  0  0
  9 28  1  0  0  0  0
 10 12  1  0  0  0  0
 10 17  1  0  0  0  0
 10 18  1  0  0  0  0
 11 14  2  0  0  0  0
 11 16  1  0  0  0  0
 12 32  1  0  0  0  0
 12 33  1  0  0  0  0
 13 15  1  0  0  0  0
 14 19  1  0  0  0  0
 15 21  1  0  0  0  0
 16 23  1  0  0  0  0
 17 34  1  0  0  0  0
 17 35  1  0  0  0  0
 17 36  1  0  0  0  0
 18 37  1  0  0  0  0
 18 38  1  0  0  0  0
 18 39  1  0  0  0  0
 19 25  2  0  0  0  0
 19 26  1  0  0  0  0
 20 24  2  0  0  0  0
 20 41  1  0  0  0  0
 21 27  1  0  0  0  0
 21 42  1  0  0  0  0
 21 43  1  0  0  0  0
 23 28  2  0  0  0  0
 23 44  1  0  0  0  0
 24 45  1  0  0  0  0
 25 29  1  0  0  0  0
 26 30  2  0  0  0  0
 26 47  1  0  0  0  0
 27 48  1  0  0  0  0
 27 49  1  0  0  0  0
 27 50  1  0  0  0  0
 28 51  1  0  0  0  0
 29 31  2  0  0  0  0
 29 52  1  0  0  0  0
 30 31  1  0  0  0  0
 30 53  1  0  0  0  0
M  END
> <PUBCHEM_COMPOUND_CID>
25016361

> <PUBCHEM_CONFORMER_RMSD>
0.8

> <PUBCHEM_CONFORMER_DIVERSEORDER>
1
133
154
202
7
112
31
88
105
57
18
61
5
102
66
129
65
49
119
139
64
96
86
19
148
183
200
114
198
143
177
51
216
4
35
173
101
72
23
140
42
171
149
187
220
48
189
211
108
93
3
168
98
60
217
83
193
99
54
156
55
225
56
58
134
190
52
184
214
95
166
196
128
174
150
152
203
106
81
195
125
75
208
191
176
26
85
132
126
155
127
120
122
197
110
181
30
207
188
141
103
178
212
206
111
116
159
218
115
205
107
53
94
22
165
169
87
92
209
164
180
118
153
44
14
20
192
82
113
167
2
224
15
121
157
185
163
59
39
147
222
11
170
104
32
210
109
138
201
204
37
145
80
213
12
215
186
84
199
219
130
25
136
135
100
175
70
160
151
8
161
89
90
46
142
117
162
50
76
16
10
172
123
34
131
71
24
27
144
194
182
63
6
146
158
40
29
79
28
124
221
223
77
179
91
67
78
74
47
97
9
62
73
21
43
41
68
33
137
17
36
69
38
45
13

> <PUBCHEM_MMFF94_PARTIAL_CHARGES>
37
1 -0.19
10 0.28
11 -0.2
12 0.37
13 0.1
14 0.17
15 0.47
16 0.36
19 0.05
2 -0.19
20 -0.18
21 0.06
22 0.72
23 -0.15
24 0.02
25 0.19
26 -0.15
28 0.16
29 -0.15
3 -0.68
30 -0.15
31 0.19
4 0.33
40 0.4
41 0.15
44 0.15
45 0.15
46 0.4
47 0.15
5 -0.57
51 0.15
52 0.15
53 0.15
6 -0.87
7 -0.62
8 -0.62
9 -0.62

> <PUBCHEM_EFFECTIVE_ROTOR_COUNT>
6

> <PUBCHEM_PHARMACOPHORE_FEATURES>
13
1 27 hydrophobe
1 3 acceptor
1 3 donor
1 6 donor
1 7 acceptor
1 8 acceptor
3 10 17 18 hydrophobe
3 4 5 13 cation
4 6 7 9 22 cation
5 4 5 11 13 14 rings
6 19 25 26 29 30 31 rings
6 4 8 13 15 20 24 rings
6 7 9 16 22 23 28 rings

> <PUBCHEM_HEAVY_ATOM_COUNT>
31

> <PUBCHEM_ATOM_DEF_STEREO_COUNT>
0

> <PUBCHEM_ATOM_UDEF_STEREO_COUNT>
0

> <PUBCHEM_BOND_DEF_STEREO_COUNT>
0

> <PUBCHEM_BOND_UDEF_STEREO_COUNT>
0

> <PUBCHEM_ISOTOPIC_ATOM_COUNT>
0

> <PUBCHEM_COMPONENT_COUNT>
1

> <PUBCHEM_CACTVS_TAUTO_COUNT>
6

> <PUBCHEM_CONFORMER_ID>
017DB82900000001

> <PUBCHEM_MMFF94_ENERGY>
83.5345

> <PUBCHEM_FEATURE_SELFOVERLAP>
66.091

> <PUBCHEM_SHAPE_FINGERPRINT>
10190108 129 18267036123471889315
10675989 125 18339652127197912184
107951 10 17604158133053148418
11578080 2 17390264496936359193
12788726 201 17177705031663234419
13257819 37 18042412493984575519
133893 2 17970052362697971025
13540713 5 18196646303588867065
140371 6 16611360959378269299
14713325 29 17969241060529414665
14931854 50 18271537429037870420
15163728 17 17604448322096152021
15463212 79 17969223524457753312
15775530 1 17553202512025089408
20465049 17 18201438120922155871
20642791 178 18121494657638424977
21133410 230 17609256563955152306
21781051 124 18189335839464461971
22393880 68 18130495393125965781
23366157 5 17970897878592195683
23419403 2 17319620844396310987
23559900 14 17987801963885041808
3298306 158 18411982459847507498
44802255 64 17750533930310698494
474144 1 18195244416993029534
5265222 85 18264498450223590188
57527295 17 18202569470667782525
6669772 16 17986092214343831824
81228 2 17261016144866079155

> <PUBCHEM_SHAPE_MULTIPOLES>
587.66
10.37
4.88
2.55
0.83
5.39
0.3
-6.69
10.84
2.38
-2.4
1.93
-0.47
-1.57

> <PUBCHEM_SHAPE_SELFOVERLAP>
1287.734

> <PUBCHEM_SHAPE_VOLUME>
320.3

> <PUBCHEM_COORDINATE_TYPE>
2
5
10

$$$$
