46898022
  -OEChem-10052115143D

 43 46  0     0  0  0  0  0  0999 V2000
    5.6739   -0.6692    0.0989 S   0  0  0  0  0  0  0  0  0  0  0  0
   -3.0379   -4.4830    0.1000 O   0  0  0  0  0  0  0  0  0  0  0  0
    6.6922    0.3677    0.0084 O   0  0  0  0  0  0  0  0  0  0  0  0
    5.7111   -1.6254    1.1965 O   0  0  0  0  0  0  0  0  0  0  0  0
   -2.6842   -1.7021   -0.1017 N   0  0  0  0  0  0  0  0  0  0  0  0
   -1.2071    0.0970   -0.0270 N   0  0  0  0  0  0  0  0  0  0  0  0
   -3.6240    0.4262   -0.0686 N   0  0  0  0  0  0  0  0  0  0  0  0
    0.3280    1.9377    0.0517 N   0  0  0  0  0  0  0  0  0  0  0  0
   -2.2453    3.6244    0.0406 N   0  0  0  0  0  0  0  0  0  0  0  0
   -4.2994    2.7611   -0.0242 N   0  0  0  0  0  0  0  0  0  0  0  0
    5.6304   -1.5295   -1.3768 N   0  0  0  0  0  0  0  0  0  0  0  0
   -3.9021   -2.2537    0.5078 C   0  0  0  0  0  0  0  0  0  0  0  0
   -1.5228   -2.5983   -0.0978 C   0  0  0  0  0  0  0  0  0  0  0  0
   -4.1793   -3.6409   -0.0604 C   0  0  0  0  0  0  0  0  0  0  0  0
   -1.9270   -3.9677   -0.6329 C   0  0  0  0  0  0  0  0  0  0  0  0
   -2.4962   -0.3166   -0.0637 C   0  0  0  0  0  0  0  0  0  0  0  0
   -0.9810    1.4295    0.0114 C   0  0  0  0  0  0  0  0  0  0  0  0
   -2.0772    2.2693    0.0098 C   0  0  0  0  0  0  0  0  0  0  0  0
   -3.3665    1.7558   -0.0300 C   0  0  0  0  0  0  0  0  0  0  0  0
    1.5975    1.3194    0.0620 C   0  0  0  0  0  0  0  0  0  0  0  0
    4.1047    0.0964    0.0843 C   0  0  0  0  0  0  0  0  0  0  0  0
    2.6952    1.9685   -0.5031 C   0  0  0  0  0  0  0  0  0  0  0  0
    1.7535    0.0587    0.6385 C   0  0  0  0  0  0  0  0  0  0  0  0
   -3.5927    3.8705    0.0185 C   0  0  0  0  0  0  0  0  0  0  0  0
    3.9489    1.3570   -0.4919 C   0  0  0  0  0  0  0  0  0  0  0  0
    3.0071   -0.5528    0.6496 C   0  0  0  0  0  0  0  0  0  0  0  0
   -3.7533   -2.3166    1.5928 H   0  0  0  0  0  0  0  0  0  0  0  0
   -4.7858   -1.6339    0.3206 H   0  0  0  0  0  0  0  0  0  0  0  0
   -0.7114   -2.2168   -0.7284 H   0  0  0  0  0  0  0  0  0  0  0  0
   -1.1494   -2.6919    0.9293 H   0  0  0  0  0  0  0  0  0  0  0  0
   -5.0155   -4.1031    0.4738 H   0  0  0  0  0  0  0  0  0  0  0  0
   -4.4497   -3.5917   -1.1222 H   0  0  0  0  0  0  0  0  0  0  0  0
   -2.1837   -3.9206   -1.6982 H   0  0  0  0  0  0  0  0  0  0  0  0
   -1.0957   -4.6714   -0.5232 H   0  0  0  0  0  0  0  0  0  0  0  0
    0.3774    2.9469   -0.0580 H   0  0  0  0  0  0  0  0  0  0  0  0
   -1.5130    4.3212    0.0736 H   0  0  0  0  0  0  0  0  0  0  0  0
    2.5863    2.9501   -0.9573 H   0  0  0  0  0  0  0  0  0  0  0  0
    0.9301   -0.4638    1.1147 H   0  0  0  0  0  0  0  0  0  0  0  0
   -3.9894    4.8756    0.0355 H   0  0  0  0  0  0  0  0  0  0  0  0
    4.7884    1.8778   -0.9437 H   0  0  0  0  0  0  0  0  0  0  0  0
    3.1058   -1.5346    1.1040 H   0  0  0  0  0  0  0  0  0  0  0  0
    6.2254   -1.1919   -2.1432 H   0  0  0  0  0  0  0  0  0  0  0  0
    5.5538   -2.5529   -1.3300 H   0  0  0  0  0  0  0  0  0  0  0  0
  1  3  2  0  0  0  0
  1  4  2  0  0  0  0
  1 11  1  0  0  0  0
  1 21  1  0  0  0  0
  2 14  1  0  0  0  0
  2 15  1  0  0  0  0
  5 12  1  0  0  0  0
  5 13  1  0  0  0  0
  5 16  1  0  0  0  0
  6 16  1  0  0  0  0
  6 17  2  0  0  0  0
  7 16  2  0  0  0  0
  7 19  1  0  0  0  0
  8 17  1  0  0  0  0
  8 20  1  0  0  0  0
  8 35  1  0  0  0  0
  9 18  1  0  0  0  0
  9 24  1  0  0  0  0
  9 36  1  0  0  0  0
 10 19  1  0  0  0  0
 10 24  2  0  0  0  0
 11 42  1  0  0  0  0
 11 43  1  0  0  0  0
 12 14  1  0  0  0  0
 12 27  1  0  0  0  0
 12 28  1  0  0  0  0
 13 15  1  0  0  0  0
 13 29  1  0  0  0  0
 13 30  1  0  0  0  0
 14 31  1  0  0  0  0
 14 32  1  0  0  0  0
 15 33  1  0  0  0  0
 15 34  1  0  0  0  0
 17 18  1  0  0  0  0
 18 19  2  0  0  0  0
 20 22  2  0  0  0  0
 20 23  1  0  0  0  0
 21 25  2  0  0  0  0
 21 26  1  0  0  0  0
 22 25  1  0  0  0  0
 22 37  1  0  0  0  0
 23 26  2  0  0  0  0
 23 38  1  0  0  0  0
 24 39  1  0  0  0  0
 25 40  1  0  0  0  0
 26 41  1  0  0  0  0
M  END
> <PUBCHEM_COMPOUND_CID>
46898022

> <PUBCHEM_CONFORMER_RMSD>
0.8

> <PUBCHEM_CONFORMER_DIVERSEORDER>
1
25
50
28
20
8
60
7
56
61
42
52
9
24
34
41
64
3
18
53
13
63
45
62
47
55
11
46
44
5
48
2
19
12
51
58
16
6
36
33
43
38
4
37
40
30
57
39
10
23
15
21
54
14
49
17
59
32
26
31
35
27
22
29

> <PUBCHEM_MMFF94_PARTIAL_CHARGES>
35
1 1.45
10 -0.57
11 -0.98
12 0.37
13 0.37
14 0.28
15 0.28
16 0.72
17 0.41
18 -0.15
19 0.48
2 -0.56
20 0.1
21 -0.01
22 -0.15
23 -0.15
24 0.04
25 -0.15
26 -0.15
3 -0.65
35 0.4
36 0.27
37 0.15
38 0.15
39 0.15
4 -0.65
40 0.15
41 0.15
42 0.42
43 0.42
5 -0.84
6 -0.62
7 -0.57
8 -0.6
9 0.03

> <PUBCHEM_EFFECTIVE_ROTOR_COUNT>
5.2

> <PUBCHEM_PHARMACOPHORE_FEATURES>
12
1 11 donor
1 2 acceptor
1 3 acceptor
1 4 acceptor
1 8 donor
1 9 donor
3 9 10 24 cation
4 5 6 7 16 cation
5 9 10 18 19 24 rings
6 2 5 12 13 14 15 rings
6 20 21 22 23 25 26 rings
6 6 7 16 17 18 19 rings

> <PUBCHEM_HEAVY_ATOM_COUNT>
26

> <PUBCHEM_ATOM_DEF_STEREO_COUNT>
0

> <PUBCHEM_ATOM_UDEF_STEREO_COUNT>
0

> <PUBCHEM_BOND_DEF_STEREO_COUNT>
0

> <PUBCHEM_BOND_UDEF_STEREO_COUNT>
0

> <PUBCHEM_ISOTOPIC_ATOM_COUNT>
0

> <PUBCHEM_COMPONENT_COUNT>
1

> <PUBCHEM_CACTVS_TAUTO_COUNT>
8

> <PUBCHEM_CONFORMER_ID>
02CB9B6600000001

> <PUBCHEM_MMFF94_ENERGY>
60.6466

> <PUBCHEM_FEATURE_SELFOVERLAP>
61.047

> <PUBCHEM_SHAPE_FINGERPRINT>
10050765 1 18410574024861737352
10411042 1 18122342647550278371
10483366 6 18339626920546022807
10595046 47 18262240027707328628
10616163 171 18410573993915770858
10940486 97 18333737901185645508
11014199 57 18264489670703314436
11796584 16 18341050714799040496
11809386 21 18260259767967504986
12107183 9 18046617916051162866
12553582 1 17978503466846605859
12643181 29 18267024952072320966
12760667 363 18269834367041399471
12788726 201 18261947552797289987
12969540 37 17184183384676659439
13004483 165 18196084671726285823
13690498 29 18266756821073111470
13785724 45 17978806923703924899
138480 1 16753530488619541169
14347332 77 18337672030750812702
14790565 3 17834959672302801768
14844126 61 18408885157193454603
14866123 147 18411702093473675283
15042514 8 18338519741942336177
15230672 131 18120942698923902878
15250474 111 18261383439218980450
15439362 3 17328016573986019197
15927050 60 18197497321209603951
16719943 64 18267299842024779411
17492 89 18337672043951712524
19141452 34 18335983061011311716
19958102 18 18192706748535415028
21133410 171 17401426897632599826
21307412 95 17841734923805640318
21478907 32 18266177425784839155
21703447 108 18124864905617373480
22849339 104 18340223898385730646
23379529 103 18269847548343679174
23559900 14 18342730806947571592
3004659 81 17969773271106765134
3091708 16 9344396936051607633
3383291 50 18412257316643774507
3421961 26 17547291563721305659
38695281 34 18120653526668789833
397830 11 18058717131445429736
4073 2 18412544289489489976
4214541 1 18409729530547568320
44062 13 18411704266299625038
4409770 3 18408035222374136941
44880168 125 17417268644064232334
463206 1 17830173867501981067
508706 21 18343306946270578222
5104073 3 18343016705729677816
532947 4 17836649617595724799
5364581 5 18127669725789701656
5385378 56 17692536615954570193
559249 180 18262514776190162944
56633871 153 18125452057923043235
613672 6 17835215107035461867
7164475 11 18265053720369141972
7970288 3 17978507855850209727
9709674 26 18343023280775701980
9981440 41 18121786032747381369

> <PUBCHEM_SHAPE_MULTIPOLES>
486.44
12.75
5.39
0.78
20.12
2.28
0.02
4.03
0.02
-10.27
0.4
0.67
0.25
-0.28

> <PUBCHEM_SHAPE_SELFOVERLAP>
1049.466

> <PUBCHEM_SHAPE_VOLUME>
267.9

> <PUBCHEM_COORDINATE_TYPE>
2
5
10

$$$$
