24905198
  -OEChem-10052115143D

 50 52  0     1  0  0  0  0  0999 V2000
   -2.6972   -0.5370   -2.4738 O   0  0  0  0  0  0  0  0  0  0  0  0
   -5.8313    1.5582    0.6984 O   0  0  0  0  0  0  0  0  0  0  0  0
    3.4009   -0.9587    0.1337 N   0  0  0  0  0  0  0  0  0  0  0  0
    2.1348   -1.4134    0.0890 N   0  0  0  0  0  0  0  0  0  0  0  0
   -4.1930   -0.6262   -0.1105 N   0  0  0  0  0  0  0  0  0  0  0  0
    4.6149    1.1356    0.1815 N   0  0  0  0  0  0  0  0  0  0  0  0
    3.1078    3.0531    0.1358 N   0  0  0  0  0  0  0  0  0  0  0  0
    0.7331    2.8256    0.0551 N   0  0  0  0  0  0  0  0  0  0  0  0
    4.4946   -1.9005    0.1683 C   0  0  0  0  0  0  0  0  0  0  0  0
    1.4026   -0.2943    0.0673 C   0  0  0  0  0  0  0  0  0  0  0  0
    2.1907    0.8713    0.0978 C   0  0  0  0  0  0  0  0  0  0  0  0
    3.4917    0.4015    0.1408 C   0  0  0  0  0  0  0  0  0  0  0  0
   -0.0299   -0.3795    0.0178 C   0  0  0  0  0  0  0  0  0  0  0  0
    4.5333   -2.7651   -1.0942 C   0  0  0  0  0  0  0  0  0  0  0  0
    4.4468   -2.7728    1.4251 C   0  0  0  0  0  0  0  0  0  0  0  0
   -5.0205   -0.6764    1.0785 C   0  0  1  0  0  0  0  0  0  0  0  0
   -2.8133   -0.5445   -0.0776 C   0  0  0  0  0  0  0  0  0  0  0  0
   -0.6847   -0.4171   -1.2133 C   0  0  0  0  0  0  0  0  0  0  0  0
   -0.7669   -0.4243    1.2013 C   0  0  0  0  0  0  0  0  0  0  0  0
    2.0165    2.2513    0.0960 C   0  0  0  0  0  0  0  0  0  0  0  0
   -2.0763   -0.4998   -1.2610 C   0  0  0  0  0  0  0  0  0  0  0  0
   -2.1586   -0.5067    1.1535 C   0  0  0  0  0  0  0  0  0  0  0  0
   -5.1781    0.7293    1.6530 C   0  0  0  0  0  0  0  0  0  0  0  0
   -6.3711   -1.2772    0.7117 C   0  0  0  0  0  0  0  0  0  0  0  0
    4.3219    2.4540    0.1755 C   0  0  0  0  0  0  0  0  0  0  0  0
   -3.0689    0.7135   -3.0495 C   0  0  0  0  0  0  0  0  0  0  0  0
    5.4245   -1.3202    0.2020 H   0  0  0  0  0  0  0  0  0  0  0  0
   -4.5909   -1.3440    1.8344 H   0  0  0  0  0  0  0  0  0  0  0  0
    3.6471   -3.4042   -1.1752 H   0  0  0  0  0  0  0  0  0  0  0  0
    5.4160   -3.4133   -1.0918 H   0  0  0  0  0  0  0  0  0  0  0  0
    4.5759   -2.1403   -1.9933 H   0  0  0  0  0  0  0  0  0  0  0  0
    3.5573   -3.4123    1.4412 H   0  0  0  0  0  0  0  0  0  0  0  0
    4.4275   -2.1536    2.3288 H   0  0  0  0  0  0  0  0  0  0  0  0
    5.3278   -3.4212    1.4792 H   0  0  0  0  0  0  0  0  0  0  0  0
   -0.1177   -0.3831   -2.1414 H   0  0  0  0  0  0  0  0  0  0  0  0
   -0.2709   -0.3960    2.1688 H   0  0  0  0  0  0  0  0  0  0  0  0
   -4.6465   -0.5929   -1.0170 H   0  0  0  0  0  0  0  0  0  0  0  0
   -2.6725   -0.5419    2.1078 H   0  0  0  0  0  0  0  0  0  0  0  0
   -5.7928    0.7032    2.5591 H   0  0  0  0  0  0  0  0  0  0  0  0
   -4.2213    1.1948    1.9041 H   0  0  0  0  0  0  0  0  0  0  0  0
   -6.8766   -0.7080   -0.0764 H   0  0  0  0  0  0  0  0  0  0  0  0
   -7.0331   -1.3136    1.5833 H   0  0  0  0  0  0  0  0  0  0  0  0
   -6.2486   -2.3012    0.3408 H   0  0  0  0  0  0  0  0  0  0  0  0
    5.1736    3.1249    0.2067 H   0  0  0  0  0  0  0  0  0  0  0  0
   -0.0982    2.2541    0.0244 H   0  0  0  0  0  0  0  0  0  0  0  0
    0.6515    3.8335    0.0554 H   0  0  0  0  0  0  0  0  0  0  0  0
   -5.9296    2.4368    1.1034 H   0  0  0  0  0  0  0  0  0  0  0  0
   -3.5917    0.5159   -3.9893 H   0  0  0  0  0  0  0  0  0  0  0  0
   -2.1788    1.3135   -3.2640 H   0  0  0  0  0  0  0  0  0  0  0  0
   -3.7410    1.2656   -2.3850 H   0  0  0  0  0  0  0  0  0  0  0  0
  1 21  1  0  0  0  0
  1 26  1  0  0  0  0
  2 23  1  0  0  0  0
  2 47  1  0  0  0  0
  3  4  1  0  0  0  0
  3  9  1  0  0  0  0
  3 12  1  0  0  0  0
  4 10  2  0  0  0  0
  5 16  1  0  0  0  0
  5 17  1  0  0  0  0
  5 37  1  0  0  0  0
  6 12  2  0  0  0  0
  6 25  1  0  0  0  0
  7 20  1  0  0  0  0
  7 25  2  0  0  0  0
  8 20  1  0  0  0  0
  8 45  1  0  0  0  0
  8 46  1  0  0  0  0
  9 14  1  0  0  0  0
  9 15  1  0  0  0  0
  9 27  1  0  0  0  0
 10 11  1  0  0  0  0
 10 13  1  0  0  0  0
 11 12  1  0  0  0  0
 11 20  2  0  0  0  0
 13 18  2  0  0  0  0
 13 19  1  0  0  0  0
 14 29  1  0  0  0  0
 14 30  1  0  0  0  0
 14 31  1  0  0  0  0
 15 32  1  0  0  0  0
 15 33  1  0  0  0  0
 15 34  1  0  0  0  0
 16 23  1  0  0  0  0
 16 24  1  0  0  0  0
 16 28  1  0  0  0  0
 17 21  2  0  0  0  0
 17 22  1  0  0  0  0
 18 21  1  0  0  0  0
 18 35  1  0  0  0  0
 19 22  2  0  0  0  0
 19 36  1  0  0  0  0
 22 38  1  0  0  0  0
 23 39  1  0  0  0  0
 23 40  1  0  0  0  0
 24 41  1  0  0  0  0
 24 42  1  0  0  0  0
 24 43  1  0  0  0  0
 25 44  1  0  0  0  0
 26 48  1  0  0  0  0
 26 49  1  0  0  0  0
 26 50  1  0  0  0  0
M  END
> <PUBCHEM_COMPOUND_CID>
24905198

> <PUBCHEM_CONFORMER_RMSD>
0.8

> <PUBCHEM_CONFORMER_DIVERSEORDER>
1
43
37
9
53
54
10
36
42
57
56
12
52
8
48
35
21
51
32
33
40
49
26
15
34
5
28
16
23
38
7
50
20
18
46
3
19
29
30
47
31
11
17
39
41
44
6
4
22
13
45
55
14
2
25
24
27

> <PUBCHEM_MMFF94_PARTIAL_CHARGES>
30
1 -0.36
10 0.23
12 0.11
13 0.05
16 0.37
17 0.1
18 -0.15
19 -0.15
2 -0.68
20 0.41
21 0.08
22 -0.15
23 0.28
25 0.47
26 0.28
3 0.31
35 0.15
36 0.15
37 0.4
38 0.15
4 -0.71
44 0.15
45 0.4
46 0.4
47 0.4
5 -0.87
6 -0.57
7 -0.62
8 -0.9
9 0.26

> <PUBCHEM_EFFECTIVE_ROTOR_COUNT>
6

> <PUBCHEM_PHARMACOPHORE_FEATURES>
14
1 1 acceptor
1 2 acceptor
1 2 donor
1 4 acceptor
1 5 cation
1 5 donor
1 8 cation
1 8 donor
3 3 6 12 cation
3 6 7 25 cation
3 9 14 15 hydrophobe
5 3 4 10 11 12 rings
6 13 17 18 19 21 22 rings
6 6 7 11 12 20 25 rings

> <PUBCHEM_HEAVY_ATOM_COUNT>
26

> <PUBCHEM_ATOM_DEF_STEREO_COUNT>
0

> <PUBCHEM_ATOM_UDEF_STEREO_COUNT>
1

> <PUBCHEM_BOND_DEF_STEREO_COUNT>
0

> <PUBCHEM_BOND_UDEF_STEREO_COUNT>
0

> <PUBCHEM_ISOTOPIC_ATOM_COUNT>
0

> <PUBCHEM_COMPONENT_COUNT>
1

> <PUBCHEM_CACTVS_TAUTO_COUNT>
9

> <PUBCHEM_CONFORMER_ID>
017C05EE00000001

> <PUBCHEM_MMFF94_ENERGY>
82.1532

> <PUBCHEM_FEATURE_SELFOVERLAP>
71.328

> <PUBCHEM_SHAPE_FINGERPRINT>
10369192 42 17752210749925907780
10411042 1 18266744572354306154
10595046 47 18270965781812525955
11135926 11 18340477972331117372
11370993 144 18260833704779240827
11545043 162 17168414970152097086
11552529 35 18053380191555673359
11796584 16 14979690926634525692
12107183 9 18197506117059539811
12236239 1 17703793660447866144
12403259 118 17988927730731449889
12403259 415 17748821899741778287
12422481 6 17845378747740739557
12553582 1 18268707221836991398
12616971 3 18060131029266226454
12730499 353 18189059844770724386
12788726 201 17203343194707449753
13140716 1 18122336055196835992
13533116 47 18408610270306413131
13583140 156 17985558981416961443
13617811 41 15791450444115374639
13631057 29 10810502250293053273
13782708 43 17603585197005644147
13785724 45 17911814470075490222
14114211 80 17612050552050777436
14341114 176 18409740568850207697
14739800 52 17203319070314154128
15081414 286 18335136522973315500
15131766 46 18125717035756238061
15806764 133 17967245386505451821
15842332 3 17702650206703886255
173720 79 17060339613530690591
17818456 19 17417257515571255096
17844677 252 18411710867864682987
17980427 23 16844708924729641592
1813 80 18057900052203169678
20511986 3 17560513005950827144
20645477 70 18410292510845140706
20739085 24 18412272718053534948
20832881 197 18115311059725200362
21033648 29 17677037023506190053
21065201 7 16226314928851104926
21344244 78 18130498670006230050
21792961 116 17969217829558251510
22182313 1 17676472965171306909
23557571 272 17022896869869372084
23559900 14 17458638842563419114
2838139 119 18268990887574167945
4073 2 18042976552045081395
4144715 1 18337969930373092667
46194498 28 17603592958480474830
5104073 3 18410582790446442603
5281201 14 18040148513764718070
8272917 22 18341901813681257934
8863177 126 18113627806160311515

> <PUBCHEM_SHAPE_MULTIPOLES>
493.44
13.15
2.84
1.74
10.76
0.95
1.42
-3.03
-3.61
-5.33
-0.37
2.4
-0.16
0.28

> <PUBCHEM_SHAPE_SELFOVERLAP>
1058.401

> <PUBCHEM_SHAPE_VOLUME>
273.1

> <PUBCHEM_COORDINATE_TYPE>
2
5
10

$$$$
