49830525
  -OEChem-10052120433D

 45 47  0     1  0  0  0  0  0999 V2000
    5.5738    0.1384    1.0554 O   0  0  0  0  0  0  0  0  0  0  0  0
    3.8403   -1.2019    1.6598 O   0  0  0  0  0  0  0  0  0  0  0  0
   -2.7349   -1.0592    0.3706 N   0  0  0  0  0  0  0  0  0  0  0  0
   -2.2261    2.6199    0.2254 N   0  0  0  0  0  0  0  0  0  0  0  0
   -0.4409   -1.0701    0.0308 N   0  0  0  0  0  0  0  0  0  0  0  0
   -1.7940   -2.9926   -0.4989 N   0  0  0  0  0  0  0  0  0  0  0  0
    1.9106   -1.1387   -0.3385 N   0  0  0  0  0  0  0  0  0  0  0  0
   -2.7054    0.3000    0.8809 C   0  0  1  0  0  0  0  0  0  0  0  0
   -2.6045    1.2985   -0.2885 C   0  0  1  0  0  0  0  0  0  0  0  0
   -3.9358    0.5414    1.7651 C   0  0  0  0  0  0  0  0  0  0  0  0
   -3.9282    1.4144   -1.0623 C   0  0  0  0  0  0  0  0  0  0  0  0
   -5.2317    0.6477    0.9613 C   0  0  0  0  0  0  0  0  0  0  0  0
   -5.1273    1.6834   -0.1536 C   0  0  0  0  0  0  0  0  0  0  0  0
   -1.6084   -1.7364   -0.0505 C   0  0  0  0  0  0  0  0  0  0  0  0
    0.6392   -1.7611   -0.3888 C   0  0  0  0  0  0  0  0  0  0  0  0
   -0.6724   -3.6248   -0.9020 C   0  0  0  0  0  0  0  0  0  0  0  0
    0.5834   -3.0535   -0.8695 C   0  0  0  0  0  0  0  0  0  0  0  0
    2.3150    0.2015   -0.4489 C   0  0  0  0  0  0  0  0  0  0  0  0
    3.4537    0.6629    0.2114 C   0  0  0  0  0  0  0  0  0  0  0  0
    1.5610    1.0752   -1.2325 C   0  0  0  0  0  0  0  0  0  0  0  0
    3.8386    1.9978    0.0881 C   0  0  0  0  0  0  0  0  0  0  0  0
    1.9459    2.4103   -1.3559 C   0  0  0  0  0  0  0  0  0  0  0  0
    3.0847    2.8716   -0.6956 C   0  0  0  0  0  0  0  0  0  0  0  0
    4.2632   -0.2248    1.0367 C   0  0  0  0  0  0  0  0  0  0  0  0
   -1.8300    0.4055    1.5370 H   0  0  0  0  0  0  0  0  0  0  0  0
   -1.8254    0.9915   -0.9952 H   0  0  0  0  0  0  0  0  0  0  0  0
   -4.0360   -0.2622    2.5052 H   0  0  0  0  0  0  0  0  0  0  0  0
   -3.7970    1.4712    2.3313 H   0  0  0  0  0  0  0  0  0  0  0  0
   -3.8605    2.2040   -1.8211 H   0  0  0  0  0  0  0  0  0  0  0  0
   -4.1029    0.4799   -1.6112 H   0  0  0  0  0  0  0  0  0  0  0  0
   -6.0551    0.9168    1.6330 H   0  0  0  0  0  0  0  0  0  0  0  0
   -5.4875   -0.3275    0.5307 H   0  0  0  0  0  0  0  0  0  0  0  0
   -6.0470    1.6730   -0.7497 H   0  0  0  0  0  0  0  0  0  0  0  0
   -5.0472    2.6860    0.2834 H   0  0  0  0  0  0  0  0  0  0  0  0
   -3.6213   -1.5401    0.2739 H   0  0  0  0  0  0  0  0  0  0  0  0
   -1.3144    2.5621    0.6776 H   0  0  0  0  0  0  0  0  0  0  0  0
   -2.1199    3.2717   -0.5509 H   0  0  0  0  0  0  0  0  0  0  0  0
   -0.8157   -4.6372   -1.2642 H   0  0  0  0  0  0  0  0  0  0  0  0
    1.4585   -3.5967   -1.2037 H   0  0  0  0  0  0  0  0  0  0  0  0
    2.6471   -1.7792   -0.0567 H   0  0  0  0  0  0  0  0  0  0  0  0
    0.6783    0.7388   -1.7695 H   0  0  0  0  0  0  0  0  0  0  0  0
    4.7125    2.3921    0.6000 H   0  0  0  0  0  0  0  0  0  0  0  0
    1.3600    3.0901   -1.9675 H   0  0  0  0  0  0  0  0  0  0  0  0
    3.3826    3.9118   -0.7899 H   0  0  0  0  0  0  0  0  0  0  0  0
    6.1117   -0.4635    1.6128 H   0  0  0  0  0  0  0  0  0  0  0  0
  1 24  1  0  0  0  0
  1 45  1  0  0  0  0
  2 24  2  0  0  0  0
  3  8  1  0  0  0  0
  3 14  1  0  0  0  0
  3 35  1  0  0  0  0
  4  9  1  0  0  0  0
  4 36  1  0  0  0  0
  4 37  1  0  0  0  0
  5 14  1  0  0  0  0
  5 15  2  0  0  0  0
  6 14  2  0  0  0  0
  6 16  1  0  0  0  0
  7 15  1  0  0  0  0
  7 18  1  0  0  0  0
  7 40  1  0  0  0  0
  8  9  1  0  0  0  0
  8 10  1  0  0  0  0
  8 25  1  0  0  0  0
  9 11  1  0  0  0  0
  9 26  1  0  0  0  0
 10 12  1  0  0  0  0
 10 27  1  0  0  0  0
 10 28  1  0  0  0  0
 11 13  1  0  0  0  0
 11 29  1  0  0  0  0
 11 30  1  0  0  0  0
 12 13  1  0  0  0  0
 12 31  1  0  0  0  0
 12 32  1  0  0  0  0
 13 33  1  0  0  0  0
 13 34  1  0  0  0  0
 15 17  1  0  0  0  0
 16 17  2  0  0  0  0
 16 38  1  0  0  0  0
 17 39  1  0  0  0  0
 18 19  1  0  0  0  0
 18 20  2  0  0  0  0
 19 21  2  0  0  0  0
 19 24  1  0  0  0  0
 20 22  1  0  0  0  0
 20 41  1  0  0  0  0
 21 23  1  0  0  0  0
 21 42  1  0  0  0  0
 22 23  2  0  0  0  0
 22 43  1  0  0  0  0
 23 44  1  0  0  0  0
M  END
> <PUBCHEM_COMPOUND_CID>
49830525

> <PUBCHEM_CONFORMER_RMSD>
1.2

> <PUBCHEM_CONFORMER_DIVERSEORDER>
1
35
44
5
45
65
12
64
43
18
42
53
58
50
24
13
67
72
51
21
66
23
70
30
9
62
26
40
14
54
68
46
6
22
15
10
73
34
56
39
32
69
59
19
31
38
27
17
60
20
41
52
28
57
16
36
2
55
74
8
61
48
25
47
71
49
33
7
11
4
37
29
63
3

> <PUBCHEM_MMFF94_PARTIAL_CHARGES>
31
1 -0.65
14 0.72
15 0.41
16 0.16
17 -0.15
18 0.1
19 0.09
2 -0.57
20 -0.15
21 -0.15
22 -0.15
23 -0.15
24 0.63
3 -0.87
35 0.4
36 0.36
37 0.36
38 0.15
39 0.15
4 -0.99
40 0.4
41 0.15
42 0.15
43 0.15
44 0.15
45 0.5
5 -0.62
6 -0.62
7 -0.6
8 0.37
9 0.27

> <PUBCHEM_EFFECTIVE_ROTOR_COUNT>
6.2

> <PUBCHEM_PHARMACOPHORE_FEATURES>
11
1 1 acceptor
1 2 acceptor
1 3 donor
1 4 cation
1 4 donor
1 7 donor
3 1 2 24 anion
4 3 5 6 14 cation
6 18 19 20 21 22 23 rings
6 5 6 14 15 16 17 rings
6 8 9 10 11 12 13 rings

> <PUBCHEM_HEAVY_ATOM_COUNT>
24

> <PUBCHEM_ATOM_DEF_STEREO_COUNT>
0

> <PUBCHEM_ATOM_UDEF_STEREO_COUNT>
2

> <PUBCHEM_BOND_DEF_STEREO_COUNT>
0

> <PUBCHEM_BOND_UDEF_STEREO_COUNT>
0

> <PUBCHEM_ISOTOPIC_ATOM_COUNT>
0

> <PUBCHEM_COMPONENT_COUNT>
1

> <PUBCHEM_CACTVS_TAUTO_COUNT>
21

> <PUBCHEM_CONFORMER_ID>
02F85A7D00000001

> <PUBCHEM_MMFF94_ENERGY>
71.906

> <PUBCHEM_FEATURE_SELFOVERLAP>
55.878

> <PUBCHEM_SHAPE_FINGERPRINT>
10759866 29 18041572463128163132
10871710 139 17471312002690281853
11370993 70 18411697656165796885
12107183 9 18410284792962840730
12403259 327 17022914427648095035
12633257 1 18412263956199055308
12788726 201 17911237548435004839
12978246 48 18409732850293427345
13140716 1 18336269045191492936
13583140 156 17458334230729519931
13965767 371 18334573559891840340
14117953 113 18338235960088815861
14739800 52 17625250198180425880
14957384 54 18260818306815114784
15403338 16 17097196252178456089
1601671 61 18408608037767164934
17818456 19 18412822517038349656
1813 80 12107793969053097995
1979834 28 18265636324435794609
19930381 70 18339088082074867909
20261772 1 18334015007990269684
20715895 44 18264203600692514753
21033648 29 18199447905939205640
21792964 463 17171807187410790647
22113638 7 18409728495223125477
22149856 69 18058192591490401995
22749437 52 18412549790562277005
23227448 37 18411141372354767663
23559900 14 18121510055370740631
23598288 3 18194684997334381807
474 4 18341897342567613719
57527585 21 15193894573036676640
6287921 2 18055929697031969607
6328613 192 18337677516326181916
6438718 38 17844815986512581375
7064713 232 18342460356581716705
7097593 13 18261382386909599810
7808743 9 18124042483694104060
9862522 239 18335972099805950903

> <PUBCHEM_SHAPE_MULTIPOLES>
457.27
10.31
3.8
1.31
1.51
2.28
0.26
-6.41
4.02
-0.03
-1.62
-0.15
-0.1
-0.88

> <PUBCHEM_SHAPE_SELFOVERLAP>
975.671

> <PUBCHEM_SHAPE_VOLUME>
250.1

> <PUBCHEM_COORDINATE_TYPE>
2
5
10

$$$$
