44355373
  -OEChem-10052115143D

 71 77  0     1  0  0  0  0  0999 V2000
    4.1589   -0.8376   -0.8318 O   0  0  0  0  0  0  0  0  0  0  0  0
    2.7571    1.1100    1.9473 O   0  0  0  0  0  0  0  0  0  0  0  0
    5.4978    0.6691    2.7588 O   0  0  0  0  0  0  0  0  0  0  0  0
    7.2788    0.5972    0.4389 O   0  0  0  0  0  0  0  0  0  0  0  0
   -3.2244   -2.7758   -0.5692 O   0  0  0  0  0  0  0  0  0  0  0  0
   -4.2109    1.7591   -0.5410 O   0  0  0  0  0  0  0  0  0  0  0  0
    3.2119   -5.4107   -0.2364 O   0  0  0  0  0  0  0  0  0  0  0  0
    0.5446    6.8279   -0.1574 O   0  0  0  0  0  0  0  0  0  0  0  0
   -6.2571   -2.4736    2.5457 O   0  0  0  0  0  0  0  0  0  0  0  0
   -7.7129    0.6427    0.0921 O   0  0  0  0  0  0  0  0  0  0  0  0
    1.8599   -0.7187   -0.2247 N   0  0  0  0  0  0  0  0  0  0  0  0
    1.2677    1.9994   -0.2077 N   0  0  0  0  0  0  0  0  0  0  0  0
   -4.0956   -0.5914   -0.5796 N   0  0  0  0  0  0  0  0  0  0  0  0
   -5.4365   -0.8741   -0.6651 N   0  0  0  0  0  0  0  0  0  0  0  0
    3.2074   -0.0300   -0.1312 C   0  0  1  0  0  0  0  0  0  0  0  0
    3.6441    0.1802    1.3254 C   0  0  1  0  0  0  0  0  0  0  0  0
    0.5793   -0.2901   -0.2934 C   0  0  0  0  0  0  0  0  0  0  0  0
    5.0686    0.7349    1.3977 C   0  0  2  0  0  0  0  0  0  0  0  0
   -0.5359   -1.1894   -0.3780 C   0  0  0  0  0  0  0  0  0  0  0  0
    6.0250   -0.0750    0.5219 C   0  0  1  0  0  0  0  0  0  0  0  0
    5.4555   -0.2415   -0.8896 C   0  0  1  0  0  0  0  0  0  0  0  0
    1.6780   -2.0931   -0.2625 C   0  0  0  0  0  0  0  0  0  0  0  0
    0.2813    1.0776   -0.2849 C   0  0  0  0  0  0  0  0  0  0  0  0
    0.2810   -2.4117   -0.3529 C   0  0  0  0  0  0  0  0  0  0  0  0
   -1.8764   -0.8205   -0.4513 C   0  0  0  0  0  0  0  0  0  0  0  0
   -1.1071    1.4323   -0.3616 C   0  0  0  0  0  0  0  0  0  0  0  0
   -2.1727    0.5400   -0.4428 C   0  0  0  0  0  0  0  0  0  0  0  0
   -0.8728    2.8832   -0.3196 C   0  0  0  0  0  0  0  0  0  0  0  0
    6.3349   -1.1437   -1.7499 C   0  0  0  0  0  0  0  0  0  0  0  0
    0.5303    3.1737   -0.2295 C   0  0  0  0  0  0  0  0  0  0  0  0
   -3.1247   -1.5653   -0.5402 C   0  0  0  0  0  0  0  0  0  0  0  0
    2.6627   -3.0921   -0.2229 C   0  0  0  0  0  0  0  0  0  0  0  0
   -3.6177    0.6989   -0.5261 C   0  0  0  0  0  0  0  0  0  0  0  0
   -0.0660   -3.7835   -0.4011 C   0  0  0  0  0  0  0  0  0  0  0  0
    2.2666   -4.4291   -0.2733 C   0  0  0  0  0  0  0  0  0  0  0  0
    0.9237   -4.7716   -0.3611 C   0  0  0  0  0  0  0  0  0  0  0  0
   -1.7595    3.9866   -0.3519 C   0  0  0  0  0  0  0  0  0  0  0  0
    1.0100    4.4913   -0.1752 C   0  0  0  0  0  0  0  0  0  0  0  0
   -6.0156   -0.9770    0.6679 C   0  0  0  0  0  0  0  0  0  0  0  0
   -1.2705    5.2963   -0.2972 C   0  0  0  0  0  0  0  0  0  0  0  0
    0.0932    5.5427   -0.2102 C   0  0  0  0  0  0  0  0  0  0  0  0
   -5.7469   -2.3764    1.2216 C   0  0  0  0  0  0  0  0  0  0  0  0
   -7.5152   -0.6712    0.6017 C   0  0  0  0  0  0  0  0  0  0  0  0
    3.1654    0.8456   -0.7693 H   0  0  0  0  0  0  0  0  0  0  0  0
    3.5761   -0.7587    1.8877 H   0  0  0  0  0  0  0  0  0  0  0  0
    5.0976    1.7947    1.1184 H   0  0  0  0  0  0  0  0  0  0  0  0
    6.2064   -1.0538    0.9820 H   0  0  0  0  0  0  0  0  0  0  0  0
    5.3846    0.7308   -1.3952 H   0  0  0  0  0  0  0  0  0  0  0  0
    2.2401    1.9745    0.0114 H   0  0  0  0  0  0  0  0  0  0  0  0
    6.4190   -2.1432   -1.3089 H   0  0  0  0  0  0  0  0  0  0  0  0
    7.3394   -0.7294   -1.8763 H   0  0  0  0  0  0  0  0  0  0  0  0
    5.8876   -1.2761   -2.7412 H   0  0  0  0  0  0  0  0  0  0  0  0
    3.7165   -2.8746   -0.1011 H   0  0  0  0  0  0  0  0  0  0  0  0
   -1.1047   -4.0907   -0.4697 H   0  0  0  0  0  0  0  0  0  0  0  0
    3.1053    2.0094    1.8289 H   0  0  0  0  0  0  0  0  0  0  0  0
    5.5065   -0.2652    3.0282 H   0  0  0  0  0  0  0  0  0  0  0  0
    7.1284    1.4651    0.0270 H   0  0  0  0  0  0  0  0  0  0  0  0
    0.6291   -5.8176   -0.3997 H   0  0  0  0  0  0  0  0  0  0  0  0
   -2.8319    3.8345   -0.4194 H   0  0  0  0  0  0  0  0  0  0  0  0
    2.0775    4.6818   -0.1068 H   0  0  0  0  0  0  0  0  0  0  0  0
   -5.8749   -0.1092   -1.1779 H   0  0  0  0  0  0  0  0  0  0  0  0
   -5.5814   -0.2241    1.3413 H   0  0  0  0  0  0  0  0  0  0  0  0
   -1.9739    6.1252   -0.3235 H   0  0  0  0  0  0  0  0  0  0  0  0
    4.0928   -5.0022   -0.1797 H   0  0  0  0  0  0  0  0  0  0  0  0
   -4.6815   -2.5899    1.3064 H   0  0  0  0  0  0  0  0  0  0  0  0
   -6.2196   -3.1514    0.6082 H   0  0  0  0  0  0  0  0  0  0  0  0
   -8.0377   -1.3788   -0.0520 H   0  0  0  0  0  0  0  0  0  0  0  0
   -7.9688   -0.7184    1.5971 H   0  0  0  0  0  0  0  0  0  0  0  0
    1.5155    6.8197   -0.0990 H   0  0  0  0  0  0  0  0  0  0  0  0
   -6.0768   -3.3772    2.8565 H   0  0  0  0  0  0  0  0  0  0  0  0
   -8.6726    0.7971    0.0672 H   0  0  0  0  0  0  0  0  0  0  0  0
  1 15  1  0  0  0  0
  1 21  1  0  0  0  0
  2 16  1  0  0  0  0
  2 55  1  0  0  0  0
  3 18  1  0  0  0  0
  3 56  1  0  0  0  0
  4 20  1  0  0  0  0
  4 57  1  0  0  0  0
  5 31  2  0  0  0  0
  6 33  2  0  0  0  0
  7 35  1  0  0  0  0
  7 64  1  0  0  0  0
  8 41  1  0  0  0  0
  8 69  1  0  0  0  0
  9 42  1  0  0  0  0
  9 70  1  0  0  0  0
 10 43  1  0  0  0  0
 10 71  1  0  0  0  0
 11 15  1  0  0  0  0
 11 17  1  0  0  0  0
 11 22  1  0  0  0  0
 12 23  1  0  0  0  0
 12 30  1  0  0  0  0
 12 49  1  0  0  0  0
 13 14  1  0  0  0  0
 13 31  1  0  0  0  0
 13 33  1  0  0  0  0
 14 39  1  0  0  0  0
 14 61  1  0  0  0  0
 15 16  1  0  0  0  0
 15 44  1  0  0  0  0
 16 18  1  0  0  0  0
 16 45  1  0  0  0  0
 17 19  1  0  0  0  0
 17 23  2  0  0  0  0
 18 20  1  0  0  0  0
 18 46  1  0  0  0  0
 19 24  1  0  0  0  0
 19 25  2  0  0  0  0
 20 21  1  0  0  0  0
 20 47  1  0  0  0  0
 21 29  1  0  0  0  0
 21 48  1  0  0  0  0
 22 24  2  0  0  0  0
 22 32  1  0  0  0  0
 23 26  1  0  0  0  0
 24 34  1  0  0  0  0
 25 27  1  0  0  0  0
 25 31  1  0  0  0  0
 26 27  2  0  0  0  0
 26 28  1  0  0  0  0
 27 33  1  0  0  0  0
 28 30  2  0  0  0  0
 28 37  1  0  0  0  0
 29 50  1  0  0  0  0
 29 51  1  0  0  0  0
 29 52  1  0  0  0  0
 30 38  1  0  0  0  0
 32 35  2  0  0  0  0
 32 53  1  0  0  0  0
 34 36  2  0  0  0  0
 34 54  1  0  0  0  0
 35 36  1  0  0  0  0
 36 58  1  0  0  0  0
 37 40  2  0  0  0  0
 37 59  1  0  0  0  0
 38 41  2  0  0  0  0
 38 60  1  0  0  0  0
 39 42  1  0  0  0  0
 39 43  1  0  0  0  0
 39 62  1  0  0  0  0
 40 41  1  0  0  0  0
 40 63  1  0  0  0  0
 42 65  1  0  0  0  0
 42 66  1  0  0  0  0
 43 67  1  0  0  0  0
 43 68  1  0  0  0  0
M  END
> <PUBCHEM_COMPOUND_CID>
44355373

> <PUBCHEM_CONFORMER_RMSD>
1

> <PUBCHEM_CONFORMER_DIVERSEORDER>
1
5
6
2
3
4

> <PUBCHEM_MMFF94_PARTIAL_CHARGES>
55
1 -0.56
10 -0.68
11 -0.04
12 -0.05
13 -0.11
14 -0.64
15 0.54
16 0.28
17 -0.05
18 0.28
19 -0.01
2 -0.68
20 0.28
21 0.28
22 -0.15
23 -0.05
25 0.09
26 -0.01
27 0.09
3 -0.68
30 -0.15
31 0.54
32 -0.15
33 0.54
34 -0.15
35 0.08
36 -0.15
37 -0.15
38 -0.15
39 0.27
4 -0.68
40 -0.15
41 0.08
42 0.28
43 0.28
49 0.27
5 -0.57
53 0.15
54 0.15
55 0.4
56 0.4
57 0.4
58 0.15
59 0.15
6 -0.57
60 0.15
61 0.36
63 0.15
64 0.45
69 0.45
7 -0.53
70 0.4
71 0.4
8 -0.53
9 -0.68

> <PUBCHEM_EFFECTIVE_ROTOR_COUNT>
6.4

> <PUBCHEM_PHARMACOPHORE_FEATURES>
26
1 1 acceptor
1 10 acceptor
1 10 donor
1 11 cation
1 12 cation
1 12 donor
1 14 donor
1 2 acceptor
1 2 donor
1 3 acceptor
1 3 donor
1 4 acceptor
1 4 donor
1 5 acceptor
1 6 acceptor
1 7 donor
1 8 donor
1 9 acceptor
1 9 donor
5 11 17 19 22 24 rings
5 12 23 26 28 30 rings
5 13 25 27 31 33 rings
6 1 15 16 18 20 21 rings
6 17 19 23 25 26 27 rings
6 22 24 32 34 35 36 rings
6 28 30 37 38 40 41 rings

> <PUBCHEM_HEAVY_ATOM_COUNT>
43

> <PUBCHEM_ATOM_DEF_STEREO_COUNT>
5

> <PUBCHEM_ATOM_UDEF_STEREO_COUNT>
0

> <PUBCHEM_BOND_DEF_STEREO_COUNT>
0

> <PUBCHEM_BOND_UDEF_STEREO_COUNT>
0

> <PUBCHEM_ISOTOPIC_ATOM_COUNT>
0

> <PUBCHEM_COMPONENT_COUNT>
1

> <PUBCHEM_CACTVS_TAUTO_COUNT>
209

> <PUBCHEM_CONFORMER_ID>
02A4CF2D00000001

> <PUBCHEM_MMFF94_ENERGY>
160.3069

> <PUBCHEM_FEATURE_SELFOVERLAP>
132.449

> <PUBCHEM_SHAPE_FINGERPRINT>
10050765 1 17977948982315923222
10190108 129 18269573683552625363
102385 1 17906448823182152502
1100329 8 18194679495565275494
11227688 84 18341035325446280495
11445158 3 17896593079938806551
12058002 1 17460342987055223974
12758862 65 17751380584160494419
12788726 201 18260824848235222080
13140716 1 18122628524884012455
13617811 41 18408889538192147268
13911987 19 18263625377671515220
140371 6 18408327670364736205
14068700 686 18269551650818860956
14394314 77 18411979195419317390
14790565 3 18410857706850251724
14918310 93 17488758765178716566
14955137 171 18337113457500635981
15131766 46 15193851666862126216
15219462 58 18053365627410503612
15320467 1 18411134732209117300
15439362 3 18051414273139048597
15840311 113 17632580487461919201
16087824 20 18266463110463347317
16112460 7 18270129052873321841
18393751 57 18197758077221627952
19301679 30 18264202526290976955
19611394 137 18114753749174868451
21033648 29 17916006044723455410
21133410 127 17755301168423112732
21796203 349 18118710904439505313
22223350 30 17697029606742941131
22311459 1 18410853300498473767
24180151 248 18127705841763375142
24771293 8 18057591265112633576
24771750 20 18043540623407174725
3178227 256 18337967799684561875
469060 322 18339092509495320648
5104073 3 18266458711725434827
6004065 56 18337666525251488303
9961470 85 17762601903512668428

> <PUBCHEM_SHAPE_MULTIPOLES>
806.3
14.66
7.73
1.28
8.83
7.88
-0.85
-7.59
-4.51
-0.79
1.08
-0.87
-0.28
2.44

> <PUBCHEM_SHAPE_SELFOVERLAP>
1819.747

> <PUBCHEM_SHAPE_VOLUME>
421.7

> <PUBCHEM_COORDINATE_TYPE>
2
5
10

$$$$
