66553589
  -OEChem-10062121563D

 54 57  0     1  0  0  0  0  0999 V2000
   -4.2897   -1.7947    2.4510 Cl  0  0  0  0  0  0  0  0  0  0  0  0
   -3.3309   -0.5931   -2.7778 Cl  0  0  0  0  0  0  0  0  0  0  0  0
   -3.9059   -4.5456    1.5063 F   0  0  0  0  0  0  0  0  0  0  0  0
    6.8644   -3.0156    0.0046 O   0  0  0  0  0  0  0  0  0  0  0  0
   -3.0580    2.4661    1.5618 O   0  0  0  0  0  0  0  0  0  0  0  0
    3.9495    0.1195    0.0567 N   0  0  0  0  0  0  0  0  0  0  0  0
    4.7172    1.1869    0.3353 N   0  0  0  0  0  0  0  0  0  0  0  0
   -2.7307    0.8777   -0.0956 N   0  0  0  0  0  0  0  0  0  0  0  0
    0.1454    4.5706   -0.4606 N   0  0  0  0  0  0  0  0  0  0  0  0
   -2.2080    4.7081   -0.2097 N   0  0  0  0  0  0  0  0  0  0  0  0
    4.5826   -1.2534   -0.0611 C   0  0  0  0  0  0  0  0  0  0  0  0
    5.6015   -1.3315   -1.2094 C   0  0  0  0  0  0  0  0  0  0  0  0
    5.2374   -1.7106    1.2523 C   0  0  0  0  0  0  0  0  0  0  0  0
    6.2559   -2.7079   -1.2492 C   0  0  0  0  0  0  0  0  0  0  0  0
    5.9137   -3.0646    1.0681 C   0  0  0  0  0  0  0  0  0  0  0  0
    2.6266    0.4164   -0.0933 C   0  0  0  0  0  0  0  0  0  0  0  0
    2.5219    1.7722    0.1006 C   0  0  0  0  0  0  0  0  0  0  0  0
    3.8396    2.1934    0.3608 C   0  0  0  0  0  0  0  0  0  0  0  0
    1.2935    2.5007    0.0320 C   0  0  0  0  0  0  0  0  0  0  0  0
    0.0847    1.9020    0.3696 C   0  0  0  0  0  0  0  0  0  0  0  0
   -3.9622    0.1529    0.1210 C   0  0  2  0  0  0  0  0  0  0  0  0
   -1.0937    2.6361    0.2924 C   0  0  0  0  0  0  0  0  0  0  0  0
    1.2701    3.8255   -0.3733 C   0  0  0  0  0  0  0  0  0  0  0  0
   -3.7959   -1.3193   -0.1881 C   0  0  0  0  0  0  0  0  0  0  0  0
   -2.3550    2.0008    0.6487 C   0  0  0  0  0  0  0  0  0  0  0  0
   -1.0103    3.9547   -0.1246 C   0  0  0  0  0  0  0  0  0  0  0  0
   -5.1065    0.7891   -0.6656 C   0  0  0  0  0  0  0  0  0  0  0  0
   -3.9321   -2.2655    0.8278 C   0  0  0  0  0  0  0  0  0  0  0  0
   -3.5062   -1.7297   -1.4893 C   0  0  0  0  0  0  0  0  0  0  0  0
   -3.7783   -3.6222    0.5423 C   0  0  0  0  0  0  0  0  0  0  0  0
   -3.3525   -3.0864   -1.7749 C   0  0  0  0  0  0  0  0  0  0  0  0
   -3.4883   -4.0326   -0.7590 C   0  0  0  0  0  0  0  0  0  0  0  0
    3.7411   -1.9220   -0.2885 H   0  0  0  0  0  0  0  0  0  0  0  0
    6.3794   -0.5723   -1.0587 H   0  0  0  0  0  0  0  0  0  0  0  0
    5.1171   -1.1127   -2.1676 H   0  0  0  0  0  0  0  0  0  0  0  0
    4.4927   -1.7634    2.0543 H   0  0  0  0  0  0  0  0  0  0  0  0
    5.9921   -0.9752    1.5586 H   0  0  0  0  0  0  0  0  0  0  0  0
    7.0396   -2.7247   -2.0132 H   0  0  0  0  0  0  0  0  0  0  0  0
    5.5286   -3.4878   -1.5037 H   0  0  0  0  0  0  0  0  0  0  0  0
    5.1791   -3.8528    0.8655 H   0  0  0  0  0  0  0  0  0  0  0  0
    6.4497   -3.3395    1.9821 H   0  0  0  0  0  0  0  0  0  0  0  0
    1.8996   -0.3504   -0.3262 H   0  0  0  0  0  0  0  0  0  0  0  0
    4.2045    3.1891    0.5711 H   0  0  0  0  0  0  0  0  0  0  0  0
   -4.2231    0.3142    1.1681 H   0  0  0  0  0  0  0  0  0  0  0  0
    0.0457    0.8697    0.7106 H   0  0  0  0  0  0  0  0  0  0  0  0
    2.1740    4.3568   -0.6571 H   0  0  0  0  0  0  0  0  0  0  0  0
   -2.1266    0.5821   -0.8578 H   0  0  0  0  0  0  0  0  0  0  0  0
   -4.8441    1.1345   -1.6671 H   0  0  0  0  0  0  0  0  0  0  0  0
   -5.9754    0.1250   -0.7316 H   0  0  0  0  0  0  0  0  0  0  0  0
   -5.4392    1.6960   -0.1434 H   0  0  0  0  0  0  0  0  0  0  0  0
   -3.1268   -3.4230   -2.7836 H   0  0  0  0  0  0  0  0  0  0  0  0
   -3.3686   -5.0889   -0.9809 H   0  0  0  0  0  0  0  0  0  0  0  0
   -3.0696    4.2254   -0.4330 H   0  0  0  0  0  0  0  0  0  0  0  0
   -2.1162    5.6697   -0.5142 H   0  0  0  0  0  0  0  0  0  0  0  0
  1 28  1  0  0  0  0
  2 29  1  0  0  0  0
  3 30  1  0  0  0  0
  4 14  1  0  0  0  0
  4 15  1  0  0  0  0
  5 25  2  0  0  0  0
  6  7  1  0  0  0  0
  6 11  1  0  0  0  0
  6 16  1  0  0  0  0
  7 18  2  0  0  0  0
  8 21  1  0  0  0  0
  8 25  1  0  0  0  0
  8 47  1  0  0  0  0
  9 23  2  0  0  0  0
  9 26  1  0  0  0  0
 10 26  1  0  0  0  0
 10 53  1  0  0  0  0
 10 54  1  0  0  0  0
 11 12  1  0  0  0  0
 11 13  1  0  0  0  0
 11 33  1  0  0  0  0
 12 14  1  0  0  0  0
 12 34  1  0  0  0  0
 12 35  1  0  0  0  0
 13 15  1  0  0  0  0
 13 36  1  0  0  0  0
 13 37  1  0  0  0  0
 14 38  1  0  0  0  0
 14 39  1  0  0  0  0
 15 40  1  0  0  0  0
 15 41  1  0  0  0  0
 16 17  2  0  0  0  0
 16 42  1  0  0  0  0
 17 18  1  0  0  0  0
 17 19  1  0  0  0  0
 18 43  1  0  0  0  0
 19 20  2  0  0  0  0
 19 23  1  0  0  0  0
 20 22  1  0  0  0  0
 20 45  1  0  0  0  0
 21 24  1  0  0  0  0
 21 27  1  0  0  0  0
 21 44  1  0  0  0  0
 22 25  1  0  0  0  0
 22 26  2  0  0  0  0
 23 46  1  0  0  0  0
 24 28  1  0  0  0  0
 24 29  2  0  0  0  0
 27 48  1  0  0  0  0
 27 49  1  0  0  0  0
 27 50  1  0  0  0  0
 28 30  2  0  0  0  0
 29 31  1  0  0  0  0
 30 32  1  0  0  0  0
 31 32  2  0  0  0  0
 31 51  1  0  0  0  0
 32 52  1  0  0  0  0
M  END
> <PUBCHEM_COMPOUND_CID>
66553589

> <PUBCHEM_CONFORMER_RMSD>
1

> <PUBCHEM_CONFORMER_DIVERSEORDER>
1
112
121
8
66
69
118
127
120
119
104
19
46
70
144
155
122
151
129
84
47
76
22
59
149
89
68
17
107
154
153
126
98
115
34
152
81
27
142
150
10
60
64
116
42
109
30
43
36
16
140
51
105
113
7
5
82
103
23
32
148
138
37
44
21
156
146
40
100
123
50
15
87
74
11
52
4
78
25
106
39
61
38
101
9
141
88
48
12
73
131
20
18
130
41
94
80
31
63
79
14
108
83
53
125
110
124
62
86
136
28
96
24
3
49
102
135
139
33
145
133
57
114
45
128
85
35
91
55
2
72
67
26
65
56
54
134
132
95
13
77
137
6
75
147
71
143
111
97
92
58
29
90
117
99
93

> <PUBCHEM_MMFF94_PARTIAL_CHARGES>
38
1 -0.18
10 -0.9
11 0.26
14 0.28
15 0.28
16 -0.3
17 -0.05
18 0.14
19 0.05
2 -0.18
20 -0.15
21 0.44
22 0.09
23 0.16
24 -0.14
25 0.54
26 0.41
28 0.18
29 0.18
3 -0.19
30 0.19
31 -0.15
32 -0.15
4 -0.56
42 0.15
43 0.15
45 0.15
46 0.15
47 0.37
5 -0.57
51 0.15
52 0.15
53 0.4
54 0.4
6 0.31
7 -0.71
8 -0.73
9 -0.62

> <PUBCHEM_EFFECTIVE_ROTOR_COUNT>
7.2

> <PUBCHEM_PHARMACOPHORE_FEATURES>
11
1 10 cation
1 10 donor
1 4 acceptor
1 5 acceptor
1 7 acceptor
1 8 donor
1 9 acceptor
5 6 7 16 17 18 rings
6 24 28 29 30 31 32 rings
6 4 11 12 13 14 15 rings
6 9 19 20 22 23 26 rings

> <PUBCHEM_HEAVY_ATOM_COUNT>
32

> <PUBCHEM_ATOM_DEF_STEREO_COUNT>
1

> <PUBCHEM_ATOM_UDEF_STEREO_COUNT>
0

> <PUBCHEM_BOND_DEF_STEREO_COUNT>
0

> <PUBCHEM_BOND_UDEF_STEREO_COUNT>
0

> <PUBCHEM_ISOTOPIC_ATOM_COUNT>
0

> <PUBCHEM_COMPONENT_COUNT>
1

> <PUBCHEM_CACTVS_TAUTO_COUNT>
7

> <PUBCHEM_CONFORMER_ID>
03F786F500000001

> <PUBCHEM_MMFF94_ENERGY>
90.3151

> <PUBCHEM_FEATURE_SELFOVERLAP>
55.823

> <PUBCHEM_SHAPE_FINGERPRINT>
10254770 206 18192692489044012907
10290309 65 17185881593107624460
10319688 45 18266740191092194088
10391435 84 18411127036086171586
10462674 125 15835309000927102190
10622 236 17700113681114319255
10928967 22 17696200574959669583
11211813 140 17972012783425556498
11227688 84 18118146846732758560
11455722 242 18411144603093925510
117089 54 18265625453235875698
11963148 33 18337666525504540026
12107183 9 18269294503064358233
12174731 88 18338511928875248202
12422481 6 17489312962431646182
12559416 138 18057596775672297854
12655387 17 18339380638536882511
13690498 29 18265064552688093404
14117953 113 18269829814428774693
14444916 359 17549558309499753424
15320291 9 18126278886013454294
15320294 125 17682678411863260602
15320467 1 18338515210256876194
15684393 108 17531830007652278066
15728490 83 18336834173036907371
15803439 3 17175712287155654021
16628084 112 17975403617366370071
17492 89 18267305515755835051
18603816 31 17825948122910951882
19301676 85 18410565189802793135
19311894 1 18409163316440127443
19315092 285 16197594766395612471
20580484 66 18118960301324639578
20775530 9 18341617057165053312
21315759 227 18045207499829103363
21585480 29 17772447209837117730
21599406 157 17530966912710288166
23379529 103 18411422838340766304
3044373 233 17899992817184632843
3146122 67 18410298046915774970
3991529 202 17974877230877028483
404807 14 18266452291150513727
437795 163 18408045122606134950
437795 96 17985551048534030662
463206 1 18410011018028976633
50080093 196 17189244436737203678
508706 21 18199192793476934838
56633871 153 18342748450635741443
613672 6 18266157586861459136
6431902 208 18267860760580086350
6636798 310 16701730652925532455
7970288 3 18266741466064004210

> <PUBCHEM_SHAPE_MULTIPOLES>
618.37
15.08
7.05
1.68
21.14
2.24
-0.23
-18.83
0.24
-2.12
0.28
-2.03
-1.49
0.23

> <PUBCHEM_SHAPE_SELFOVERLAP>
1321.379

> <PUBCHEM_SHAPE_VOLUME>
345.9

> <PUBCHEM_COORDINATE_TYPE>
2
5
10

$$$$
