49830796
  -OEChem-10062121553D

 30 32  0     0  0  0  0  0  0999 V2000
   -2.9058    1.5402   -0.1867 S   0  0  0  0  0  0  0  0  0  0  0  0
    3.9272   -2.0506   -1.8501 F   0  0  0  0  0  0  0  0  0  0  0  0
   -2.9870   -2.3730    0.0970 O   0  0  0  0  0  0  0  0  0  0  0  0
   -4.7211   -0.8760   -0.1279 O   0  0  0  0  0  0  0  0  0  0  0  0
    0.5391    3.6155   -0.1146 N   0  0  0  0  0  0  0  0  0  0  0  0
   -0.3910    0.9792    0.0217 C   0  0  0  0  0  0  0  0  0  0  0  0
    0.9895    1.2470    0.0932 C   0  0  0  0  0  0  0  0  0  0  0  0
   -1.2651    2.0613   -0.1172 C   0  0  0  0  0  0  0  0  0  0  0  0
    1.9427    0.1746    0.2350 C   0  0  0  0  0  0  0  0  0  0  0  0
   -1.1071   -0.2637    0.0672 C   0  0  0  0  0  0  0  0  0  0  0  0
   -2.4682   -0.1006   -0.0353 C   0  0  0  0  0  0  0  0  0  0  0  0
    1.3824    2.5736    0.0197 C   0  0  0  0  0  0  0  0  0  0  0  0
   -0.7879    3.3716   -0.1839 C   0  0  0  0  0  0  0  0  0  0  0  0
    2.4837   -0.4320   -0.8986 C   0  0  0  0  0  0  0  0  0  0  0  0
    2.3262   -0.2545    1.5058 C   0  0  0  0  0  0  0  0  0  0  0  0
    3.4080   -1.4676   -0.7618 C   0  0  0  0  0  0  0  0  0  0  0  0
    3.2503   -1.2904    1.6427 C   0  0  0  0  0  0  0  0  0  0  0  0
   -3.4906   -1.0961   -0.0300 C   0  0  0  0  0  0  0  0  0  0  0  0
    3.7914   -1.8968    0.5089 C   0  0  0  0  0  0  0  0  0  0  0  0
   -3.9167   -3.4615    0.1149 C   0  0  0  0  0  0  0  0  0  0  0  0
   -0.6310   -1.2316    0.1708 H   0  0  0  0  0  0  0  0  0  0  0  0
    2.4317    2.8523    0.0679 H   0  0  0  0  0  0  0  0  0  0  0  0
   -1.4361    4.2327   -0.2914 H   0  0  0  0  0  0  0  0  0  0  0  0
    2.1960   -0.1100   -1.8966 H   0  0  0  0  0  0  0  0  0  0  0  0
    1.9144    0.2074    2.4000 H   0  0  0  0  0  0  0  0  0  0  0  0
    3.5488   -1.6248    2.6319 H   0  0  0  0  0  0  0  0  0  0  0  0
    4.5109   -2.7032    0.6152 H   0  0  0  0  0  0  0  0  0  0  0  0
   -4.5958   -3.3614    0.9666 H   0  0  0  0  0  0  0  0  0  0  0  0
   -4.4768   -3.4925   -0.8241 H   0  0  0  0  0  0  0  0  0  0  0  0
   -3.3516   -4.3912    0.2205 H   0  0  0  0  0  0  0  0  0  0  0  0
  1  8  1  0  0  0  0
  1 11  1  0  0  0  0
  2 16  1  0  0  0  0
  3 18  1  0  0  0  0
  3 20  1  0  0  0  0
  4 18  2  0  0  0  0
  5 12  1  0  0  0  0
  5 13  2  0  0  0  0
  6  7  1  0  0  0  0
  6  8  2  0  0  0  0
  6 10  1  0  0  0  0
  7  9  1  0  0  0  0
  7 12  2  0  0  0  0
  8 13  1  0  0  0  0
  9 14  2  0  0  0  0
  9 15  1  0  0  0  0
 10 11  2  0  0  0  0
 10 21  1  0  0  0  0
 11 18  1  0  0  0  0
 12 22  1  0  0  0  0
 13 23  1  0  0  0  0
 14 16  1  0  0  0  0
 14 24  1  0  0  0  0
 15 17  2  0  0  0  0
 15 25  1  0  0  0  0
 16 19  2  0  0  0  0
 17 19  1  0  0  0  0
 17 26  1  0  0  0  0
 19 27  1  0  0  0  0
 20 28  1  0  0  0  0
 20 29  1  0  0  0  0
 20 30  1  0  0  0  0
M  END
> <PUBCHEM_COMPOUND_CID>
49830796

> <PUBCHEM_CONFORMER_RMSD>
0.6

> <PUBCHEM_CONFORMER_DIVERSEORDER>
1
19
15
20
14
6
17
7
13
8
16
5
11
10
9
18
12
4
2
3

> <PUBCHEM_MMFF94_PARTIAL_CHARGES>
24
1 -0.08
10 -0.15
11 -0.05
12 0.16
13 0.16
14 -0.15
15 -0.15
16 0.19
17 -0.15
18 0.81
19 -0.15
2 -0.19
20 0.28
21 0.15
22 0.15
23 0.15
24 0.15
25 0.15
26 0.15
27 0.15
3 -0.43
4 -0.57
5 -0.62
8 0.04

> <PUBCHEM_EFFECTIVE_ROTOR_COUNT>
3

> <PUBCHEM_PHARMACOPHORE_FEATURES>
5
1 4 acceptor
1 5 acceptor
5 1 6 8 10 11 rings
6 5 6 7 8 12 13 rings
6 9 14 15 16 17 19 rings

> <PUBCHEM_HEAVY_ATOM_COUNT>
20

> <PUBCHEM_ATOM_DEF_STEREO_COUNT>
0

> <PUBCHEM_ATOM_UDEF_STEREO_COUNT>
0

> <PUBCHEM_BOND_DEF_STEREO_COUNT>
0

> <PUBCHEM_BOND_UDEF_STEREO_COUNT>
0

> <PUBCHEM_ISOTOPIC_ATOM_COUNT>
0

> <PUBCHEM_COMPONENT_COUNT>
1

> <PUBCHEM_CACTVS_TAUTO_COUNT>
1

> <PUBCHEM_CONFORMER_ID>
02F85B8C00000001

> <PUBCHEM_MMFF94_ENERGY>
52.288

> <PUBCHEM_FEATURE_SELFOVERLAP>
25.436

> <PUBCHEM_SHAPE_FINGERPRINT>
11582403 64 15678496296181385792
116883 192 18412260623441473181
12107183 9 18340783593803903163
12363563 72 18410009931497209135
12403259 327 15626221368336644615
12553582 1 18336550434517063547
12596599 1 18341901804907103891
12714826 92 17968375646115309685
12788726 201 18189061901611549418
12839892 36 17619045666137131529
12990986 174 18408880711707552762
13083527 12 18046038700660744632
13140716 1 18411975845577071777
13533116 47 18054791956407337179
13583140 156 14476089243019097995
14251757 5 18263373498892213727
14787075 74 18040989700796066952
14790565 3 17690851064165101937
14863182 85 17397269811823488925
15003188 105 17753877617415894491
15042514 8 18121218684383139825
15342816 4 18333728014038625450
15422964 175 18342168951730100110
15885798 251 18410291402584933161
16752209 62 17901093132013321361
16945 1 18121493557715814368
17492 89 18195529427187338787
18186145 218 11531052811367162572
19591789 44 17331687843078229441
20028762 73 18128811955431039949
20291156 8 18408322202760436203
20600515 1 18267568152784874968
20645477 70 18121492729404103463
20871998 22 18411696608014532520
21197605 99 16461371097603070315
21452121 199 18337100267508584896
21634736 98 18259993660510028724
221490 88 18191028009096763147
2255824 54 17760648466070162477
23184049 29 18409159996113649384
23366157 5 18114744957239844717
23379529 103 18270977738843937382
23557571 272 18270672066084141232
23559900 14 18413103978671456381
238078 22 18338809918185366948
2748010 2 18339345418607608685
3084891 72 17977372846797215149
314173 41 18408888472755472595
33824 294 17688306107289325609
3421961 26 18267021841861253643
5902787 121 18408598154251013608
602551 16 18123744258587214098
7364860 26 18196090173183967529
77492 1 17171815648554365392
81228 2 18197772198383448257

> <PUBCHEM_SHAPE_MULTIPOLES>
391.45
7.68
4.05
1.07
1.58
1.26
0
-8.2
0.41
2.32
0.22
-1.48
-0.53
0.41

> <PUBCHEM_SHAPE_SELFOVERLAP>
854.597

> <PUBCHEM_SHAPE_VOLUME>
215.8

> <PUBCHEM_COORDINATE_TYPE>
2
5
10

$$$$
