49830750
  -OEChem-10052115183D

 28 29  0     0  0  0  0  0  0999 V2000
   -4.5219    1.3452    0.3420 O   0  0  0  0  0  0  0  0  0  0  0  0
   -2.8700   -1.8183   -0.3969 N   0  0  0  0  0  0  0  0  0  0  0  0
    5.3693    0.5237    0.0313 N   0  0  0  0  0  0  0  0  0  0  0  0
   -1.1974   -0.0947   -0.1198 C   0  0  0  0  0  0  0  0  0  0  0  0
    0.2258    0.2871   -0.1087 C   0  0  0  0  0  0  0  0  0  0  0  0
   -2.1943    0.8437    0.1237 C   0  0  0  0  0  0  0  0  0  0  0  0
    2.6679   -0.1952    0.0438 C   0  0  0  0  0  0  0  0  0  0  0  0
    1.2626   -0.5695    0.0500 C   0  0  0  0  0  0  0  0  0  0  0  0
   -3.5286    0.4526    0.1073 C   0  0  0  0  0  0  0  0  0  0  0  0
   -1.5842   -1.4009   -0.3726 C   0  0  0  0  0  0  0  0  0  0  0  0
   -3.8110   -0.8782   -0.1556 C   0  0  0  0  0  0  0  0  0  0  0  0
    3.0680    1.0058   -0.5316 C   0  0  0  0  0  0  0  0  0  0  0  0
    3.6170   -1.0371    0.6130 C   0  0  0  0  0  0  0  0  0  0  0  0
    4.4183    1.3162   -0.5122 C   0  0  0  0  0  0  0  0  0  0  0  0
    4.9427   -0.6353    0.5813 C   0  0  0  0  0  0  0  0  0  0  0  0
   -5.8639    0.8550    0.3052 C   0  0  0  0  0  0  0  0  0  0  0  0
    0.3975    1.3541   -0.2215 H   0  0  0  0  0  0  0  0  0  0  0  0
   -1.9431    1.8817    0.3287 H   0  0  0  0  0  0  0  0  0  0  0  0
    1.0774   -1.6282    0.2116 H   0  0  0  0  0  0  0  0  0  0  0  0
   -0.8764   -2.1936   -0.5911 H   0  0  0  0  0  0  0  0  0  0  0  0
   -4.8135   -1.2884   -0.1920 H   0  0  0  0  0  0  0  0  0  0  0  0
    2.3851    1.6985   -1.0101 H   0  0  0  0  0  0  0  0  0  0  0  0
    3.3464   -1.9820    1.0730 H   0  0  0  0  0  0  0  0  0  0  0  0
    4.7829    2.2386   -0.9522 H   0  0  0  0  0  0  0  0  0  0  0  0
    5.7216   -1.2560    1.0119 H   0  0  0  0  0  0  0  0  0  0  0  0
   -6.5248    1.7025    0.5139 H   0  0  0  0  0  0  0  0  0  0  0  0
   -6.0383    0.1083    1.0872 H   0  0  0  0  0  0  0  0  0  0  0  0
   -6.1247    0.4783   -0.6896 H   0  0  0  0  0  0  0  0  0  0  0  0
  1  9  1  0  0  0  0
  1 16  1  0  0  0  0
  2 10  2  0  0  0  0
  2 11  1  0  0  0  0
  3 14  2  0  0  0  0
  3 15  1  0  0  0  0
  4  5  1  0  0  0  0
  4  6  2  0  0  0  0
  4 10  1  0  0  0  0
  5  8  2  3  0  0  0
  5 17  1  0  0  0  0
  6  9  1  0  0  0  0
  6 18  1  0  0  0  0
  7  8  1  0  0  0  0
  7 12  2  0  0  0  0
  7 13  1  0  0  0  0
  8 19  1  0  0  0  0
  9 11  2  0  0  0  0
 10 20  1  0  0  0  0
 11 21  1  0  0  0  0
 12 14  1  0  0  0  0
 12 22  1  0  0  0  0
 13 15  2  0  0  0  0
 13 23  1  0  0  0  0
 14 24  1  0  0  0  0
 15 25  1  0  0  0  0
 16 26  1  0  0  0  0
 16 27  1  0  0  0  0
 16 28  1  0  0  0  0
M  END
> <PUBCHEM_COMPOUND_CID>
49830750

> <PUBCHEM_CONFORMER_RMSD>
0.6

> <PUBCHEM_CONFORMER_DIVERSEORDER>
4
2
3
5
6
1

> <PUBCHEM_MMFF94_PARTIAL_CHARGES>
25
1 -0.36
10 0.16
11 0.16
12 -0.15
13 -0.15
14 0.16
15 0.16
16 0.28
17 0.15
18 0.15
19 0.15
2 -0.62
20 0.15
21 0.15
22 0.15
23 0.15
24 0.15
25 0.15
3 -0.62
4 0.03
5 -0.18
6 -0.15
7 0.03
8 -0.18
9 0.08

> <PUBCHEM_EFFECTIVE_ROTOR_COUNT>
3

> <PUBCHEM_PHARMACOPHORE_FEATURES>
5
1 1 acceptor
1 2 acceptor
1 3 acceptor
6 2 4 6 9 10 11 rings
6 3 7 12 13 14 15 rings

> <PUBCHEM_HEAVY_ATOM_COUNT>
16

> <PUBCHEM_ATOM_DEF_STEREO_COUNT>
0

> <PUBCHEM_ATOM_UDEF_STEREO_COUNT>
0

> <PUBCHEM_BOND_DEF_STEREO_COUNT>
0

> <PUBCHEM_BOND_UDEF_STEREO_COUNT>
1

> <PUBCHEM_ISOTOPIC_ATOM_COUNT>
0

> <PUBCHEM_COMPONENT_COUNT>
1

> <PUBCHEM_CACTVS_TAUTO_COUNT>
1

> <PUBCHEM_CONFORMER_ID>
02F85B5E00000004

> <PUBCHEM_MMFF94_ENERGY>
56.6514

> <PUBCHEM_FEATURE_SELFOVERLAP>
25.373

> <PUBCHEM_SHAPE_FINGERPRINT>
10014705 185 18408038511839083197
10354089 29 18113903753903793616
10616163 171 18339642355741183998
10912923 1 18260823830348889762
117890 112 18202282476779552273
12107183 9 17688024211047195864
12236239 1 18334294275142579251
12390115 104 17630341752986851449
12616971 3 18040148531102894310
13167372 99 18337111142492671321
13167823 11 18335699464188745050
13533116 47 17346037745246859646
13675066 3 17385726876424325277
13760787 19 18411981373157601478
14251718 22 8502651515476818338
14251764 75 15795424212487691356
15048467 5 18412263934523719689
15196674 1 18410292540250074062
15242433 33 18410575084847818662
15375358 24 17346601871725381815
17834072 33 18410291449328432934
17834076 25 17989487411703127009
18186145 218 17095518517751699122
19050596 39 18334573555686361754
19489759 90 17203890743187578793
200 152 18410006671590579774
20279233 1 16128377081905950550
20281389 69 18408040697903992985
20645477 56 18343585131697400129
20645477 70 18335419028858065438
212847 35 18341894082608399448
23402539 116 18130781261648154077
23402655 69 18409730694757323742
23503953 91 18410566297571519610
23559900 14 17988373585234340110
26918003 58 17240486909359740224
300161 21 18411412921319191592
34797466 226 17345763017695263564
3545911 37 18413390917115397996
42 15 18113899351488345254
4214541 1 18411136947995049143
42788 4 18409449176229702729
465052 167 11025810777180026753
474 4 17532658030255105868
5104073 3 18335136535572621202
542803 24 18113337522426423220
573450 72 18411692205741502490
77779 3 18409730685877414054
8272917 22 18337111172921302670

> <PUBCHEM_SHAPE_MULTIPOLES>
313.44
12.94
1.46
0.72
0.3
0.19
0
-3.05
1.4
0.45
-0.11
-0.18
0.02
-1.01

> <PUBCHEM_SHAPE_SELFOVERLAP>
668.92

> <PUBCHEM_SHAPE_VOLUME>
171.9

> <PUBCHEM_COORDINATE_TYPE>
2
5
10

$$$$
