23829003
  -OEChem-10052120443D

 35 37  0     0  0  0  0  0  0999 V2000
   -3.4951   -1.8597   -0.0003 O   0  0  0  0  0  0  0  0  0  0  0  0
   -4.0275    0.8630    0.0010 O   0  0  0  0  0  0  0  0  0  0  0  0
    1.4333   -3.2466    0.0026 O   0  0  0  0  0  0  0  0  0  0  0  0
    4.6023    0.1060   -0.0005 O   0  0  0  0  0  0  0  0  0  0  0  0
    2.0345    1.4465   -0.0005 N   0  0  0  0  0  0  0  0  0  0  0  0
    3.3050   -1.8478    0.0006 N   0  0  0  0  0  0  0  0  0  0  0  0
   -0.0817   -0.5011   -0.0004 C   0  0  0  0  0  0  0  0  0  0  0  0
   -0.3590    0.8890   -0.0003 C   0  0  0  0  0  0  0  0  0  0  0  0
    1.2635   -0.8600   -0.0003 C   0  0  0  0  0  0  0  0  0  0  0  0
    0.7242    1.7934   -0.0004 C   0  0  0  0  0  0  0  0  0  0  0  0
    2.2308    0.1261   -0.0008 C   0  0  0  0  0  0  0  0  0  0  0  0
    0.4886    3.2719    0.0003 C   0  0  0  0  0  0  0  0  0  0  0  0
   -1.1564   -1.4132   -0.0009 C   0  0  0  0  0  0  0  0  0  0  0  0
   -1.6925    1.3285    0.0001 C   0  0  0  0  0  0  0  0  0  0  0  0
    1.9625   -2.1518    0.0006 C   0  0  0  0  0  0  0  0  0  0  0  0
   -2.4750   -0.9562   -0.0011 C   0  0  0  0  0  0  0  0  0  0  0  0
   -2.7423    0.4103   -0.0005 C   0  0  0  0  0  0  0  0  0  0  0  0
    3.5464   -0.4963    0.0000 C   0  0  0  0  0  0  0  0  0  0  0  0
    1.7922    4.0619    0.0002 C   0  0  0  0  0  0  0  0  0  0  0  0
   -3.1376   -3.2402   -0.0010 C   0  0  0  0  0  0  0  0  0  0  0  0
   -4.2162    2.2766    0.0016 C   0  0  0  0  0  0  0  0  0  0  0  0
   -0.0835    3.5566   -0.8903 H   0  0  0  0  0  0  0  0  0  0  0  0
   -0.0830    3.5559    0.8915 H   0  0  0  0  0  0  0  0  0  0  0  0
   -0.9074   -2.4674   -0.0011 H   0  0  0  0  0  0  0  0  0  0  0  0
   -1.8756    2.3958    0.0007 H   0  0  0  0  0  0  0  0  0  0  0  0
    4.0379   -2.5485    0.0013 H   0  0  0  0  0  0  0  0  0  0  0  0
    2.3959    3.8532   -0.8902 H   0  0  0  0  0  0  0  0  0  0  0  0
    2.3964    3.8526    0.8900 H   0  0  0  0  0  0  0  0  0  0  0  0
    1.5720    5.1349    0.0006 H   0  0  0  0  0  0  0  0  0  0  0  0
   -4.0707   -3.8135   -0.0008 H   0  0  0  0  0  0  0  0  0  0  0  0
   -2.5961   -3.5185    0.9096 H   0  0  0  0  0  0  0  0  0  0  0  0
   -2.5966   -3.5178   -0.9122 H   0  0  0  0  0  0  0  0  0  0  0  0
   -5.2967    2.4557    0.0022 H   0  0  0  0  0  0  0  0  0  0  0  0
   -3.8211    2.7385   -0.9098 H   0  0  0  0  0  0  0  0  0  0  0  0
   -3.8203    2.7379    0.9129 H   0  0  0  0  0  0  0  0  0  0  0  0
  1 16  1  0  0  0  0
  1 20  1  0  0  0  0
  2 17  1  0  0  0  0
  2 21  1  0  0  0  0
  3 15  2  0  0  0  0
  4 18  2  0  0  0  0
  5 10  2  0  0  0  0
  5 11  1  0  0  0  0
  6 15  1  0  0  0  0
  6 18  1  0  0  0  0
  6 26  1  0  0  0  0
  7  8  1  0  0  0  0
  7  9  1  0  0  0  0
  7 13  2  0  0  0  0
  8 10  1  0  0  0  0
  8 14  2  0  0  0  0
  9 11  2  0  0  0  0
  9 15  1  0  0  0  0
 10 12  1  0  0  0  0
 11 18  1  0  0  0  0
 12 19  1  0  0  0  0
 12 22  1  0  0  0  0
 12 23  1  0  0  0  0
 13 16  1  0  0  0  0
 13 24  1  0  0  0  0
 14 17  1  0  0  0  0
 14 25  1  0  0  0  0
 16 17  2  0  0  0  0
 19 27  1  0  0  0  0
 19 28  1  0  0  0  0
 19 29  1  0  0  0  0
 20 30  1  0  0  0  0
 20 31  1  0  0  0  0
 20 32  1  0  0  0  0
 21 33  1  0  0  0  0
 21 34  1  0  0  0  0
 21 35  1  0  0  0  0
M  END
> <PUBCHEM_COMPOUND_CID>
23829003

> <PUBCHEM_CONFORMER_RMSD>
0.6

> <PUBCHEM_CONFORMER_DIVERSEORDER>
3
1
2

> <PUBCHEM_MMFF94_PARTIAL_CHARGES>
21
1 -0.36
10 0.17
11 0.4
12 0.14
13 -0.15
14 -0.15
15 0.54
16 0.08
17 0.08
18 0.54
2 -0.36
20 0.28
21 0.28
24 0.15
25 0.15
26 0.37
3 -0.57
4 -0.57
5 -0.62
6 -0.49
9 0.09

> <PUBCHEM_EFFECTIVE_ROTOR_COUNT>
3.2

> <PUBCHEM_PHARMACOPHORE_FEATURES>
10
1 1 acceptor
1 19 hydrophobe
1 2 acceptor
1 3 acceptor
1 4 acceptor
1 5 acceptor
1 6 donor
5 6 9 11 15 18 rings
6 5 7 8 9 10 11 rings
6 7 8 13 14 16 17 rings

> <PUBCHEM_HEAVY_ATOM_COUNT>
21

> <PUBCHEM_ATOM_DEF_STEREO_COUNT>
0

> <PUBCHEM_ATOM_UDEF_STEREO_COUNT>
0

> <PUBCHEM_BOND_DEF_STEREO_COUNT>
0

> <PUBCHEM_BOND_UDEF_STEREO_COUNT>
0

> <PUBCHEM_ISOTOPIC_ATOM_COUNT>
0

> <PUBCHEM_COMPONENT_COUNT>
1

> <PUBCHEM_CACTVS_TAUTO_COUNT>
11

> <PUBCHEM_CONFORMER_ID>
016B9A0B00000003

> <PUBCHEM_MMFF94_ENERGY>
82.4297

> <PUBCHEM_FEATURE_SELFOVERLAP>
50.885

> <PUBCHEM_SHAPE_FINGERPRINT>
10411042 1 18410575054973835118
10616163 171 18411420635102100007
10967382 1 18266458711176255846
1100329 8 18410859849764534857
116883 192 17908988708000907718
12553582 1 18338511924368647382
12788726 201 17901388892420082554
13132413 78 18413389825935501948
13140716 1 18411689998544985512
138480 1 18410855486120050816
14178342 30 18340189877933798633
14223421 5 18193275423843615699
14790565 3 18265340680346747820
15042514 8 16390987389700999466
15196674 1 18410855451986925410
15442244 35 18411419514257612249
16945 1 18410293575379487845
19591789 44 18122066678478671396
20028762 73 16038318631138256894
20510252 161 17765709131424199328
20642791 178 18261965149357747284
20739085 24 17691437138422411769
21267235 1 18267031548334757842
21501502 16 18337394962637089285
221490 88 18192435379500706771
2334 1 18194683897917231680
23366157 5 18042120032534548332
23402539 116 18127397961158435877
23558518 356 18115871987181359577
23559900 14 18340476880808082801
266924 87 18050558849124050237
2748010 2 18339634637795001684
3084891 72 17978221656809334723
335352 9 18266458694118024702
34934 24 18338230462335003842
350125 39 18266182927279437561
5104073 3 18410853239915323082
5939293 188 18411696586929800216
7364860 26 18195528314347288264
74978 22 18410855464913875905
7832392 63 18411697660539560561
81228 2 17981619173287758368
9709674 26 18412547613214513103

> <PUBCHEM_SHAPE_MULTIPOLES>
398.73
6.83
4.32
0.59
1.77
1.55
0
-1
0
-0.06
0
0.02
0.02
0

> <PUBCHEM_SHAPE_SELFOVERLAP>
886.439

> <PUBCHEM_SHAPE_VOLUME>
215.4

> <PUBCHEM_COORDINATE_TYPE>
2
5
10

$$$$
