44299187
  -OEChem-10052120443D

 60 67  0     1  0  0  0  0  0999 V2000
   -1.0113    1.9353    1.7370 O   0  0  0  0  0  0  0  0  0  0  0  0
   -3.7993    1.5632   -0.7008 O   0  0  0  0  0  0  0  0  0  0  0  0
    2.8054   -4.0548   -0.4850 O   0  0  0  0  0  0  0  0  0  0  0  0
    4.5057   -2.5050   -0.3881 O   0  0  0  0  0  0  0  0  0  0  0  0
   -1.5995   -0.0492    0.6039 N   0  0  0  0  0  0  0  0  0  0  0  0
    0.9389    1.5607    0.5432 N   0  0  0  0  0  0  0  0  0  0  0  0
   -1.1813    1.6629   -1.9112 N   0  0  0  0  0  0  0  0  0  0  0  0
   -2.0823    1.2483    1.0826 C   0  0  2  0  0  0  0  0  0  0  0  0
   -2.7128    2.1600   -0.0081 C   0  0  1  0  0  0  0  0  0  0  0  0
   -0.0453    2.5438    0.9105 C   0  0  1  0  0  0  0  0  0  0  0  0
   -1.7052    2.7011   -1.0259 C   0  0  1  0  0  0  0  0  0  0  0  0
   -0.5854    3.3836   -0.2507 C   0  0  0  0  0  0  0  0  0  0  0  0
   -0.3283   -0.5493    0.3986 C   0  0  0  0  0  0  0  0  0  0  0  0
    0.8771    0.2099    0.3790 C   0  0  0  0  0  0  0  0  0  0  0  0
   -0.1305   -1.9556    0.1234 C   0  0  0  0  0  0  0  0  0  0  0  0
    2.0916   -0.5467    0.1223 C   0  0  0  0  0  0  0  0  0  0  0  0
   -2.3773   -1.2012    0.3510 C   0  0  0  0  0  0  0  0  0  0  0  0
   -3.0714    1.0812    2.2614 C   0  0  0  0  0  0  0  0  0  0  0  0
    2.3016    1.8156    0.3767 C   0  0  0  0  0  0  0  0  0  0  0  0
   -1.5348   -2.3305    0.1148 C   0  0  0  0  0  0  0  0  0  0  0  0
    1.0507   -2.6634   -0.0844 C   0  0  0  0  0  0  0  0  0  0  0  0
    3.0083    0.5998    0.1409 C   0  0  0  0  0  0  0  0  0  0  0  0
    2.2013   -1.9204   -0.0765 C   0  0  0  0  0  0  0  0  0  0  0  0
    1.3644   -4.0801   -0.3576 C   0  0  0  0  0  0  0  0  0  0  0  0
   -3.7787   -1.3805    0.3131 C   0  0  0  0  0  0  0  0  0  0  0  0
    2.9793    3.0525    0.4226 C   0  0  0  0  0  0  0  0  0  0  0  0
   -2.1373   -3.5948   -0.1172 C   0  0  0  0  0  0  0  0  0  0  0  0
    3.3295   -2.7958   -0.3280 C   0  0  0  0  0  0  0  0  0  0  0  0
    4.4117    0.6921   -0.0431 C   0  0  0  0  0  0  0  0  0  0  0  0
   -0.6380    2.2477   -3.1275 C   0  0  0  0  0  0  0  0  0  0  0  0
   -4.7230    2.5392   -1.1649 C   0  0  0  0  0  0  0  0  0  0  0  0
   -4.3323   -2.6418    0.0754 C   0  0  0  0  0  0  0  0  0  0  0  0
   -3.5221   -3.7413   -0.1315 C   0  0  0  0  0  0  0  0  0  0  0  0
    4.3604    3.0897    0.2368 C   0  0  0  0  0  0  0  0  0  0  0  0
    5.0704    1.9238    0.0075 C   0  0  0  0  0  0  0  0  0  0  0  0
   -3.0932    3.0378    0.5390 H   0  0  0  0  0  0  0  0  0  0  0  0
    0.4781    3.2366    1.5806 H   0  0  0  0  0  0  0  0  0  0  0  0
   -2.2044    3.4617   -1.6378 H   0  0  0  0  0  0  0  0  0  0  0  0
    0.2251    3.7266   -0.9022 H   0  0  0  0  0  0  0  0  0  0  0  0
   -1.0150    4.2969    0.1859 H   0  0  0  0  0  0  0  0  0  0  0  0
   -2.7023    0.3452    2.9862 H   0  0  0  0  0  0  0  0  0  0  0  0
   -4.0764    0.7898    1.9546 H   0  0  0  0  0  0  0  0  0  0  0  0
   -3.1769    2.0253    2.8119 H   0  0  0  0  0  0  0  0  0  0  0  0
   -1.9383    1.0293   -2.1686 H   0  0  0  0  0  0  0  0  0  0  0  0
    1.0932   -4.7368    0.4730 H   0  0  0  0  0  0  0  0  0  0  0  0
    0.9332   -4.4317   -1.2984 H   0  0  0  0  0  0  0  0  0  0  0  0
   -4.4630   -0.5526    0.4524 H   0  0  0  0  0  0  0  0  0  0  0  0
    2.4412    3.9798    0.5978 H   0  0  0  0  0  0  0  0  0  0  0  0
   -1.5177   -4.4696   -0.2981 H   0  0  0  0  0  0  0  0  0  0  0  0
    5.0083   -0.1934   -0.2308 H   0  0  0  0  0  0  0  0  0  0  0  0
    0.2222    2.8941   -2.9325 H   0  0  0  0  0  0  0  0  0  0  0  0
   -1.3948    2.8118   -3.6827 H   0  0  0  0  0  0  0  0  0  0  0  0
   -0.2857    1.4432   -3.7813 H   0  0  0  0  0  0  0  0  0  0  0  0
   -5.5694    2.0093   -1.6118 H   0  0  0  0  0  0  0  0  0  0  0  0
   -4.2878    3.1767   -1.9379 H   0  0  0  0  0  0  0  0  0  0  0  0
   -5.1062    3.1449   -0.3377 H   0  0  0  0  0  0  0  0  0  0  0  0
   -5.4130   -2.7550    0.0520 H   0  0  0  0  0  0  0  0  0  0  0  0
   -3.9618   -4.7171   -0.3151 H   0  0  0  0  0  0  0  0  0  0  0  0
    4.8815    4.0425    0.2718 H   0  0  0  0  0  0  0  0  0  0  0  0
    6.1465    1.9639   -0.1372 H   0  0  0  0  0  0  0  0  0  0  0  0
  1  8  1  0  0  0  0
  1 10  1  0  0  0  0
  2  9  1  0  0  0  0
  2 31  1  0  0  0  0
  3 24  1  0  0  0  0
  3 28  1  0  0  0  0
  4 28  2  0  0  0  0
  5  8  1  0  0  0  0
  5 13  1  0  0  0  0
  5 17  1  0  0  0  0
  6 10  1  0  0  0  0
  6 14  1  0  0  0  0
  6 19  1  0  0  0  0
  7 11  1  0  0  0  0
  7 30  1  0  0  0  0
  7 44  1  0  0  0  0
  8  9  1  0  0  0  0
  8 18  1  0  0  0  0
  9 11  1  0  0  0  0
  9 36  1  0  0  0  0
 10 12  1  0  0  0  0
 10 37  1  0  0  0  0
 11 12  1  0  0  0  0
 11 38  1  0  0  0  0
 12 39  1  0  0  0  0
 12 40  1  0  0  0  0
 13 14  2  0  0  0  0
 13 15  1  0  0  0  0
 14 16  1  0  0  0  0
 15 20  1  0  0  0  0
 15 21  2  0  0  0  0
 16 22  1  0  0  0  0
 16 23  2  0  0  0  0
 17 20  1  0  0  0  0
 17 25  2  0  0  0  0
 18 41  1  0  0  0  0
 18 42  1  0  0  0  0
 18 43  1  0  0  0  0
 19 22  1  0  0  0  0
 19 26  2  0  0  0  0
 20 27  2  0  0  0  0
 21 23  1  0  0  0  0
 21 24  1  0  0  0  0
 22 29  2  0  0  0  0
 23 28  1  0  0  0  0
 24 45  1  0  0  0  0
 24 46  1  0  0  0  0
 25 32  1  0  0  0  0
 25 47  1  0  0  0  0
 26 34  1  0  0  0  0
 26 48  1  0  0  0  0
 27 33  1  0  0  0  0
 27 49  1  0  0  0  0
 29 35  1  0  0  0  0
 29 50  1  0  0  0  0
 30 51  1  0  0  0  0
 30 52  1  0  0  0  0
 30 53  1  0  0  0  0
 31 54  1  0  0  0  0
 31 55  1  0  0  0  0
 31 56  1  0  0  0  0
 32 33  2  0  0  0  0
 32 57  1  0  0  0  0
 33 58  1  0  0  0  0
 34 35  2  0  0  0  0
 34 59  1  0  0  0  0
 35 60  1  0  0  0  0
M  END
> <PUBCHEM_COMPOUND_CID>
44299187

> <PUBCHEM_CONFORMER_RMSD>
0.8

> <PUBCHEM_CONFORMER_DIVERSEORDER>
1
2

> <PUBCHEM_MMFF94_PARTIAL_CHARGES>
40
1 -0.56
10 0.54
11 0.27
13 -0.05
14 -0.05
15 -0.01
16 -0.01
17 -0.15
19 -0.15
2 -0.56
21 -0.14
23 0.09
24 0.42
25 -0.15
26 -0.15
27 -0.15
28 0.63
29 -0.15
3 -0.43
30 0.27
31 0.28
32 -0.15
33 -0.15
34 -0.15
35 -0.15
4 -0.57
44 0.36
47 0.15
48 0.15
49 0.15
5 -0.04
50 0.15
57 0.15
58 0.15
59 0.15
6 -0.04
60 0.15
7 -0.9
8 0.54
9 0.28

> <PUBCHEM_EFFECTIVE_ROTOR_COUNT>
3.2

> <PUBCHEM_PHARMACOPHORE_FEATURES>
15
1 1 acceptor
1 2 acceptor
1 4 acceptor
1 5 cation
1 6 cation
1 7 cation
1 7 donor
5 3 21 23 24 28 rings
5 5 13 15 17 20 rings
5 6 14 16 19 22 rings
6 1 8 9 10 11 12 rings
6 13 14 15 16 21 23 rings
6 17 20 25 27 32 33 rings
6 19 22 26 29 34 35 rings
7 1 5 6 8 10 13 14 rings

> <PUBCHEM_HEAVY_ATOM_COUNT>
35

> <PUBCHEM_ATOM_DEF_STEREO_COUNT>
3

> <PUBCHEM_ATOM_UDEF_STEREO_COUNT>
1

> <PUBCHEM_BOND_DEF_STEREO_COUNT>
0

> <PUBCHEM_BOND_UDEF_STEREO_COUNT>
0

> <PUBCHEM_ISOTOPIC_ATOM_COUNT>
0

> <PUBCHEM_COMPONENT_COUNT>
1

> <PUBCHEM_CACTVS_TAUTO_COUNT>
1

> <PUBCHEM_CONFORMER_ID>
02A3F3B300000001

> <PUBCHEM_MMFF94_ENERGY>
146.1332

> <PUBCHEM_FEATURE_SELFOVERLAP>
77.284

> <PUBCHEM_SHAPE_FINGERPRINT>
10190108 129 18050037611286671315
10675989 125 18335969875646732007
1100329 8 18196376918180314346
11513181 2 16833764639637711420
11578080 2 18260267417114231813
12156800 1 18188507872500420581
13140716 1 18340221695051975699
140371 6 17972327479889638755
14223421 5 18411139142892389402
14415360 78 17830726565410808188
14790565 3 17980490279604055249
14955137 171 17687475971557762243
15324884 4 17896615994127763569
15439362 3 18267015055766342944
15484559 13 17255374056993503935
16728300 4 17827599756884676522
19591789 44 18268996556418483864
20739085 24 17471031627694678043
20764821 26 18338796715266098902
20775438 99 17909224149850540839
23559900 14 18341605959190840402
238 59 17394978008499870909
25019877 29 17556311884075178734
283562 15 18126288776990119834
3027735 51 18268986660281148759
3380486 145 18335997423439933217
350125 39 18411984702173864010
469060 322 18189341345116435417
484989 97 18336828581606308655

> <PUBCHEM_SHAPE_MULTIPOLES>
681.86
8.22
5.93
1.4
3.07
3.49
0.61
-0.4
-0.05
-0.29
1.32
-0.95
-1.49
1.09

> <PUBCHEM_SHAPE_SELFOVERLAP>
1572.471

> <PUBCHEM_SHAPE_VOLUME>
348.9

> <PUBCHEM_COORDINATE_TYPE>
2
5
10

$$$$
