5031818
  -OEChem-10062121553D

 39 42  0     0  0  0  0  0  0999 V2000
    7.0746   -1.6034    0.0330 S   0  0  0  0  0  0  0  0  0  0  0  0
   -5.6286   -0.3357    0.0269 O   0  0  0  0  0  0  0  0  0  0  0  0
    1.1755    1.3537   -0.0116 O   0  0  0  0  0  0  0  0  0  0  0  0
   -2.2456   -1.1510   -0.0046 N   0  0  0  0  0  0  0  0  0  0  0  0
   -1.5397   -2.2933   -0.0133 N   0  0  0  0  0  0  0  0  0  0  0  0
   -0.2532   -1.9618   -0.0254 N   0  0  0  0  0  0  0  0  0  0  0  0
   -4.2780    0.0183    0.0148 N   0  0  0  0  0  0  0  0  0  0  0  0
    2.2485   -0.6742   -0.0477 N   0  0  0  0  0  0  0  0  0  0  0  0
   -5.7873   -1.7229    0.0265 N   0  0  0  0  0  0  0  0  0  0  0  0
   -4.1759   -3.5038    0.0106 N   0  0  0  0  0  0  0  0  0  0  0  0
    3.4625   -0.0721   -0.0344 N   0  0  0  0  0  0  0  0  0  0  0  0
   -1.4336   -0.0583   -0.0109 C   0  0  0  0  0  0  0  0  0  0  0  0
   -1.8852    1.3119   -0.0045 C   0  0  0  0  0  0  0  0  0  0  0  0
   -0.1711   -0.5970   -0.0240 C   0  0  0  0  0  0  0  0  0  0  0  0
   -3.6515   -1.1456    0.0081 C   0  0  0  0  0  0  0  0  0  0  0  0
   -2.1156    1.9768   -1.2088 C   0  0  0  0  0  0  0  0  0  0  0  0
   -2.0905    1.9720    1.2070 C   0  0  0  0  0  0  0  0  0  0  0  0
    1.0763    0.1035   -0.0352 C   0  0  0  0  0  0  0  0  0  0  0  0
   -2.5513    3.3019   -1.2018 C   0  0  0  0  0  0  0  0  0  0  0  0
   -2.5262    3.2970    1.2141 C   0  0  0  0  0  0  0  0  0  0  0  0
   -4.5433   -2.1984    0.0152 C   0  0  0  0  0  0  0  0  0  0  0  0
   -2.7565    3.9620    0.0098 C   0  0  0  0  0  0  0  0  0  0  0  0
    5.8562   -0.4322    0.0052 C   0  0  0  0  0  0  0  0  0  0  0  0
    4.4581   -0.8974   -0.0119 C   0  0  0  0  0  0  0  0  0  0  0  0
    6.2935    0.8439    0.0010 C   0  0  0  0  0  0  0  0  0  0  0  0
    7.7176    0.8839    0.0216 C   0  0  0  0  0  0  0  0  0  0  0  0
    8.2703   -0.3777    0.0403 C   0  0  0  0  0  0  0  0  0  0  0  0
   -1.9599    1.4764   -2.1618 H   0  0  0  0  0  0  0  0  0  0  0  0
   -1.9151    1.4681    2.1545 H   0  0  0  0  0  0  0  0  0  0  0  0
   -2.7307    3.8197   -2.1394 H   0  0  0  0  0  0  0  0  0  0  0  0
   -2.6861    3.8111    2.1574 H   0  0  0  0  0  0  0  0  0  0  0  0
   -3.0958    4.9937    0.0154 H   0  0  0  0  0  0  0  0  0  0  0  0
    2.2165   -1.6894   -0.0534 H   0  0  0  0  0  0  0  0  0  0  0  0
   -3.2070   -3.8075    0.0018 H   0  0  0  0  0  0  0  0  0  0  0  0
   -4.8612   -4.2529    0.0160 H   0  0  0  0  0  0  0  0  0  0  0  0
    4.2957   -1.9925   -0.0044 H   0  0  0  0  0  0  0  0  0  0  0  0
    5.6610    1.7221   -0.0157 H   0  0  0  0  0  0  0  0  0  0  0  0
    8.3067    1.7918    0.0227 H   0  0  0  0  0  0  0  0  0  0  0  0
    9.3192   -0.6383    0.0579 H   0  0  0  0  0  0  0  0  0  0  0  0
  1 23  1  0  0  0  0
  1 27  1  0  0  0  0
  2  7  1  0  0  0  0
  2  9  1  0  0  0  0
  3 18  2  0  0  0  0
  4  5  1  0  0  0  0
  4 12  1  0  0  0  0
  4 15  1  0  0  0  0
  5  6  2  0  0  0  0
  6 14  1  0  0  0  0
  7 15  2  0  0  0  0
  8 11  1  0  0  0  0
  8 18  1  0  0  0  0
  8 33  1  0  0  0  0
  9 21  2  0  0  0  0
 10 21  1  0  0  0  0
 10 34  1  0  0  0  0
 10 35  1  0  0  0  0
 11 24  2  3  0  0  0
 12 13  1  0  0  0  0
 12 14  2  0  0  0  0
 13 16  2  0  0  0  0
 13 17  1  0  0  0  0
 14 18  1  0  0  0  0
 15 21  1  0  0  0  0
 16 19  1  0  0  0  0
 16 28  1  0  0  0  0
 17 20  2  0  0  0  0
 17 29  1  0  0  0  0
 19 22  2  0  0  0  0
 19 30  1  0  0  0  0
 20 22  1  0  0  0  0
 20 31  1  0  0  0  0
 22 32  1  0  0  0  0
 23 24  1  0  0  0  0
 23 25  2  0  0  0  0
 24 36  1  0  0  0  0
 25 26  1  0  0  0  0
 25 37  1  0  0  0  0
 26 27  2  0  0  0  0
 26 38  1  0  0  0  0
 27 39  1  0  0  0  0
M  END
> <PUBCHEM_COMPOUND_CID>
5031818

> <PUBCHEM_CONFORMER_RMSD>
0.8

> <PUBCHEM_CONFORMER_DIVERSEORDER>
1
22
21
7
4
13
15
3
6
17
5
18
14
19
11
8
10
9
2
16
20
12

> <PUBCHEM_MMFF94_PARTIAL_CHARGES>
39
1 -0.08
10 -0.88
11 -0.51
12 -0.2
13 0.05
14 0.14
15 0.21
16 -0.15
17 -0.15
18 0.72
19 -0.15
2 0.24
20 -0.15
21 0.37
22 -0.15
23 -0.05
24 0.47
25 -0.15
26 -0.15
27 -0.11
28 0.15
29 0.15
3 -0.57
30 0.15
31 0.15
32 0.15
33 0.37
34 0.4
35 0.4
36 0.06
37 0.15
38 0.15
39 0.15
4 0.65
5 -0.42
6 -0.23
7 -0.41
8 -0.37
9 -0.41

> <PUBCHEM_EFFECTIVE_ROTOR_COUNT>
6

> <PUBCHEM_PHARMACOPHORE_FEATURES>
10
1 10 donor
1 11 acceptor
1 3 acceptor
1 8 donor
3 4 7 15 cation
3 9 10 21 cation
5 1 23 25 26 27 rings
5 2 7 9 15 21 rings
5 4 5 6 12 14 rings
6 13 16 17 19 20 22 rings

> <PUBCHEM_HEAVY_ATOM_COUNT>
27

> <PUBCHEM_ATOM_DEF_STEREO_COUNT>
0

> <PUBCHEM_ATOM_UDEF_STEREO_COUNT>
0

> <PUBCHEM_BOND_DEF_STEREO_COUNT>
0

> <PUBCHEM_BOND_UDEF_STEREO_COUNT>
1

> <PUBCHEM_ISOTOPIC_ATOM_COUNT>
0

> <PUBCHEM_COMPONENT_COUNT>
1

> <PUBCHEM_CACTVS_TAUTO_COUNT>
4

> <PUBCHEM_CONFORMER_ID>
004CC78A00000001

> <PUBCHEM_MMFF94_ENERGY>
53.91

> <PUBCHEM_FEATURE_SELFOVERLAP>
50.819

> <PUBCHEM_SHAPE_FINGERPRINT>
10050765 1 18194402191292336098
100830 39 18410573942998707464
10319688 45 18198617920367537935
10411042 1 18194402423684735271
10595046 47 18335139800507537546
11101153 10 18335987579422610212
11315181 36 18333453149280093476
11524674 6 16630527366695728006
11578080 2 13537185538609260121
12390115 104 18269000795403784616
12788726 201 18333724711229991491
13073987 5 18409727327793399810
13383668 251 16986566884474819714
13631057 29 18410289224588270603
14068700 675 18334857276635692989
14118638 360 18334574621413562962
14347332 77 18410575128098412644
14713325 29 18341334388065855225
15131766 46 15408333433781995312
15419008 47 17846493751653455648
16087824 20 18337390432465262421
17844677 252 18411142442276527152
18608769 82 18341611546811832770
19427546 20 18335419045536593045
21236236 1 18411418376012170532
21267235 1 18335705005044976435
21315763 28 18409166607107190650
21315764 268 18412541046710599272
21792961 116 18113613496241585375
23081809 10 17603590687033501286
23559900 14 18340198712781999952
249057 25 17967260801960624716
283562 15 18408885114391786203
335352 9 18410569613919443943
34797466 226 17703517679626078732
350125 39 18411982459631515568
4197921 191 18261115197400336540
4409770 3 18336538344859027461
497634 4 18260544507351157372
5080951 261 16558162987596816302
5104073 3 18339633448748372922
5969126 39 18342729741604914309
6327066 14 18045777884213522917
9996256 80 18409730647644688610

> <PUBCHEM_SHAPE_MULTIPOLES>
507.91
18.62
3.82
0.82
45.27
1.97
0
-5.32
0.26
-7.74
0.02
-0.53
0.62
0.01

> <PUBCHEM_SHAPE_SELFOVERLAP>
1107.788

> <PUBCHEM_SHAPE_VOLUME>
277

> <PUBCHEM_COORDINATE_TYPE>
2
5
10

$$$$
