49830302
  -OEChem-10052115193D

 49 52  0     0  0  0  0  0  0999 V2000
   -2.6062    5.1086   -0.3656 Cl  0  0  0  0  0  0  0  0  0  0  0  0
    5.9398   -1.3759   -0.7742 S   0  0  0  0  0  0  0  0  0  0  0  0
    5.7375   -0.8244   -2.0996 O   0  0  0  0  0  0  0  0  0  0  0  0
    6.0737   -2.8067   -0.5785 O   0  0  0  0  0  0  0  0  0  0  0  0
    4.7362   -0.8094    0.2845 N   0  0  0  0  0  0  0  0  0  0  0  0
    0.7916    1.7770    0.8376 N   0  0  0  0  0  0  0  0  0  0  0  0
   -1.2581    0.9104    0.1800 N   0  0  0  0  0  0  0  0  0  0  0  0
   -0.8688    3.2876    0.2505 N   0  0  0  0  0  0  0  0  0  0  0  0
   -4.9343   -1.2216   -1.4166 N   0  0  0  0  0  0  0  0  0  0  0  0
   -4.6683   -3.2864   -0.2042 N   0  0  0  0  0  0  0  0  0  0  0  0
    4.1586    0.5409    0.0542 C   0  0  0  0  0  0  0  0  0  0  0  0
    1.3435    0.4541    1.0547 C   0  0  0  0  0  0  0  0  0  0  0  0
    3.7683    1.1755    1.3889 C   0  0  0  0  0  0  0  0  0  0  0  0
    2.9787    0.4389   -0.9120 C   0  0  0  0  0  0  0  0  0  0  0  0
    2.5285    0.5356    2.0184 C   0  0  0  0  0  0  0  0  0  0  0  0
    1.7312   -0.1854   -0.2804 C   0  0  0  0  0  0  0  0  0  0  0  0
   -0.5007    2.0013    0.4032 C   0  0  0  0  0  0  0  0  0  0  0  0
    7.3834   -0.6073   -0.0762 C   0  0  0  0  0  0  0  0  0  0  0  0
   -2.5142    1.1661   -0.2409 C   0  0  0  0  0  0  0  0  0  0  0  0
   -3.3366    0.0163   -0.4861 C   0  0  0  0  0  0  0  0  0  0  0  0
   -2.1370    3.4703   -0.1723 C   0  0  0  0  0  0  0  0  0  0  0  0
   -3.0133    2.4376   -0.4365 C   0  0  0  0  0  0  0  0  0  0  0  0
   -3.3201   -1.2648    0.1262 C   0  0  0  0  0  0  0  0  0  0  0  0
   -4.3395    0.0133   -1.4315 C   0  0  0  0  0  0  0  0  0  0  0  0
   -4.3278   -2.0123   -0.4762 C   0  0  0  0  0  0  0  0  0  0  0  0
   -2.5638   -1.8905    1.1306 C   0  0  0  0  0  0  0  0  0  0  0  0
   -2.8744   -3.2105    1.4521 C   0  0  0  0  0  0  0  0  0  0  0  0
   -3.9080   -3.8385    0.7700 C   0  0  0  0  0  0  0  0  0  0  0  0
    4.9325    1.1735   -0.3974 H   0  0  0  0  0  0  0  0  0  0  0  0
    0.5873   -0.1746    1.5424 H   0  0  0  0  0  0  0  0  0  0  0  0
    3.5790    2.2443    1.2301 H   0  0  0  0  0  0  0  0  0  0  0  0
    4.6035    1.1128    2.0974 H   0  0  0  0  0  0  0  0  0  0  0  0
    3.2448   -0.1328   -1.8076 H   0  0  0  0  0  0  0  0  0  0  0  0
    2.7238    1.4492   -1.2571 H   0  0  0  0  0  0  0  0  0  0  0  0
    2.2504    1.0995    2.9174 H   0  0  0  0  0  0  0  0  0  0  0  0
    2.7822   -0.4778    2.3539 H   0  0  0  0  0  0  0  0  0  0  0  0
    1.9280   -1.2517   -0.1087 H   0  0  0  0  0  0  0  0  0  0  0  0
    0.9075   -0.1415   -1.0019 H   0  0  0  0  0  0  0  0  0  0  0  0
    4.7240   -1.1590    1.2504 H   0  0  0  0  0  0  0  0  0  0  0  0
    1.3770    2.5933    0.9697 H   0  0  0  0  0  0  0  0  0  0  0  0
    7.4901   -0.9299    0.9612 H   0  0  0  0  0  0  0  0  0  0  0  0
    7.2817    0.4772   -0.1413 H   0  0  0  0  0  0  0  0  0  0  0  0
    8.2507   -0.9319   -0.6555 H   0  0  0  0  0  0  0  0  0  0  0  0
   -4.0274    2.6378   -0.7616 H   0  0  0  0  0  0  0  0  0  0  0  0
   -4.6907    0.7649   -2.1258 H   0  0  0  0  0  0  0  0  0  0  0  0
   -5.7010   -1.5071   -2.0098 H   0  0  0  0  0  0  0  0  0  0  0  0
   -1.7636   -1.3761    1.6522 H   0  0  0  0  0  0  0  0  0  0  0  0
   -2.3192   -3.7360    2.2217 H   0  0  0  0  0  0  0  0  0  0  0  0
   -4.1638   -4.8676    1.0082 H   0  0  0  0  0  0  0  0  0  0  0  0
  1 21  1  0  0  0  0
  2  3  2  0  0  0  0
  2  4  2  0  0  0  0
  2  5  1  0  0  0  0
  2 18  1  0  0  0  0
  5 11  1  0  0  0  0
  5 39  1  0  0  0  0
  6 12  1  0  0  0  0
  6 17  1  0  0  0  0
  6 40  1  0  0  0  0
  7 17  2  0  0  0  0
  7 19  1  0  0  0  0
  8 17  1  0  0  0  0
  8 21  2  0  0  0  0
  9 24  1  0  0  0  0
  9 25  1  0  0  0  0
  9 46  1  0  0  0  0
 10 25  1  0  0  0  0
 10 28  2  0  0  0  0
 11 13  1  0  0  0  0
 11 14  1  0  0  0  0
 11 29  1  0  0  0  0
 12 15  1  0  0  0  0
 12 16  1  0  0  0  0
 12 30  1  0  0  0  0
 13 15  1  0  0  0  0
 13 31  1  0  0  0  0
 13 32  1  0  0  0  0
 14 16  1  0  0  0  0
 14 33  1  0  0  0  0
 14 34  1  0  0  0  0
 15 35  1  0  0  0  0
 15 36  1  0  0  0  0
 16 37  1  0  0  0  0
 16 38  1  0  0  0  0
 18 41  1  0  0  0  0
 18 42  1  0  0  0  0
 18 43  1  0  0  0  0
 19 20  1  0  0  0  0
 19 22  2  0  0  0  0
 20 23  1  0  0  0  0
 20 24  2  0  0  0  0
 21 22  1  0  0  0  0
 22 44  1  0  0  0  0
 23 25  2  0  0  0  0
 23 26  1  0  0  0  0
 24 45  1  0  0  0  0
 26 27  2  0  0  0  0
 26 47  1  0  0  0  0
 27 28  1  0  0  0  0
 27 48  1  0  0  0  0
 28 49  1  0  0  0  0
M  END
> <PUBCHEM_COMPOUND_CID>
49830302

> <PUBCHEM_CONFORMER_RMSD>
1

> <PUBCHEM_CONFORMER_DIVERSEORDER>
1
77
147
128
42
80
105
118
21
26
74
61
139
88
9
84
141
112
53
98
156
132
71
36
90
44
120
154
28
115
82
20
69
47
144
146
32
27
149
124
12
151
91
30
29
159
129
119
93
157
39
110
55
76
78
137
104
145
40
58
24
60
63
87
25
116
81
49
96
127
22
89
23
158
66
155
126
2
45
109
150
13
75
107
54
41
17
33
125
142
114
59
64
57
143
56
70
8
97
103
52
86
121
152
148
131
99
67
65
7
51
14
37
95
10
102
85
122
50
68
92
19
117
113
46
94
101
140
34
79
43
83
38
138
153
100
135
133
136
31
6
134
62
108
106
111
3
35
16
15
5
48
72
73
11
130
18
123
4

> <PUBCHEM_MMFF94_PARTIAL_CHARGES>
31
1 -0.18
10 -0.57
11 0.36
12 0.37
17 0.72
18 0.11
19 0.36
2 1.33
20 -0.05
21 0.49
22 -0.15
24 -0.3
25 0.11
26 -0.15
27 -0.15
28 0.16
3 -0.65
39 0.42
4 -0.65
40 0.4
44 0.15
45 0.15
46 0.27
47 0.15
48 0.15
49 0.15
5 -0.91
6 -0.87
7 -0.62
8 -0.62
9 0.03

> <PUBCHEM_EFFECTIVE_ROTOR_COUNT>
6.2

> <PUBCHEM_PHARMACOPHORE_FEATURES>
13
1 10 acceptor
1 3 acceptor
1 4 acceptor
1 5 donor
1 6 donor
1 8 acceptor
1 9 cation
1 9 donor
4 6 7 8 17 cation
5 9 20 23 24 25 rings
6 10 23 25 26 27 28 rings
6 11 12 13 14 15 16 rings
6 7 8 17 19 21 22 rings

> <PUBCHEM_HEAVY_ATOM_COUNT>
28

> <PUBCHEM_ATOM_DEF_STEREO_COUNT>
0

> <PUBCHEM_ATOM_UDEF_STEREO_COUNT>
0

> <PUBCHEM_BOND_DEF_STEREO_COUNT>
0

> <PUBCHEM_BOND_UDEF_STEREO_COUNT>
0

> <PUBCHEM_ISOTOPIC_ATOM_COUNT>
0

> <PUBCHEM_COMPONENT_COUNT>
1

> <PUBCHEM_CACTVS_TAUTO_COUNT>
16

> <PUBCHEM_CONFORMER_ID>
02F8599E00000001

> <PUBCHEM_MMFF94_ENERGY>
54.878

> <PUBCHEM_FEATURE_SELFOVERLAP>
66.102

> <PUBCHEM_SHAPE_FINGERPRINT>
10254770 206 16893421370144823250
107951 10 18124313796899369197
11056379 131 18337104575477080585
11488393 25 17903930194103999488
11809386 21 18338231562199988138
12363563 72 18266176321941216929
12553582 1 18334851762520112185
12633257 1 16056599906293256654
12788726 201 18262503820119020209
13782708 43 17989207062372046470
14150023 24 17835809595224310777
14251757 5 18333728014244269293
14461889 52 18271514348500858482
14866123 147 18412549782752733297
14931854 50 18188471533310045383
14950920 106 14404890444729748790
15230672 131 17904766579430378826
15250474 111 18115579336811015122
15361156 5 18272646865855525869
15927050 60 17980756044429030501
15950262 2 14781496078836846565
17909252 39 18194406821251250904
19301676 85 17117212693975795774
20505436 4 17534348838082802680
21033650 10 17603579712337200625
21065201 7 18341600474481141472
21133410 32 15648479946137716434
21307412 95 18339352055149629271
23379529 103 18338518676057600619
23559900 14 18410284831016224128
25025965 108 17844505761553514086
2838139 119 14490465405229640958
3004659 81 17968086572935192415
3117164 225 10159435158857975740
3610482 184 17824571624346589372
395649 100 18334860498847796550
4073 2 18411981322277143280
4280585 95 18333444357276609292
44062 13 18270119002950366660
4461854 278 14874149178503208755
484985 159 17275106077043249017
508706 21 18341336591331766030
57307002 85 18342751701731150358
59755656 520 17984426239496048937
613672 6 18193817457243151555
7970288 3 18268429225208946527

> <PUBCHEM_SHAPE_MULTIPOLES>
540.32
14.67
5.1
1.41
25.29
2.89
0.08
-11.94
-5.09
-8.65
0.5
0.72
-0.4
2.05

> <PUBCHEM_SHAPE_SELFOVERLAP>
1148.278

> <PUBCHEM_SHAPE_VOLUME>
305.2

> <PUBCHEM_COORDINATE_TYPE>
2
5
10

$$$$
