135566832
  -OEChem-10052115183D

 44 47  0     0  0  0  0  0  0999 V2000
   -2.1305    5.1231    0.1583 O   0  0  0  0  0  0  0  0  0  0  0  0
   -6.6675   -1.7946   -0.1026 O   0  0  0  0  0  0  0  0  0  0  0  0
    7.6322   -0.8391    0.0118 O   0  0  0  0  0  0  0  0  0  0  0  0
   -0.2677   -2.3299   -0.0801 N   0  0  0  0  0  0  0  0  0  0  0  0
    2.1214    0.1230    0.0189 N   0  0  0  0  0  0  0  0  0  0  0  0
    1.0374   -2.0097   -0.0610 N   0  0  0  0  0  0  0  0  0  0  0  0
   -0.2836   -0.1470   -0.0048 C   0  0  0  0  0  0  0  0  0  0  0  0
   -1.1007   -1.2502   -0.0482 C   0  0  0  0  0  0  0  0  0  0  0  0
    1.0213   -0.6749   -0.0151 C   0  0  0  0  0  0  0  0  0  0  0  0
   -0.7576    1.2077    0.0387 C   0  0  0  0  0  0  0  0  0  0  0  0
   -2.5369   -1.3896   -0.0617 C   0  0  0  0  0  0  0  0  0  0  0  0
   -1.5651    1.6315    1.0943 C   0  0  0  0  0  0  0  0  0  0  0  0
   -0.4118    2.0997   -0.9765 C   0  0  0  0  0  0  0  0  0  0  0  0
   -3.2835   -0.8197   -1.0931 C   0  0  0  0  0  0  0  0  0  0  0  0
   -3.1788   -2.0950    0.9563 C   0  0  0  0  0  0  0  0  0  0  0  0
    3.5433   -0.1252    0.0185 C   0  0  0  0  0  0  0  0  0  0  0  0
   -2.0268    2.9470    1.1346 C   0  0  0  0  0  0  0  0  0  0  0  0
   -0.8736    3.4152   -0.9362 C   0  0  0  0  0  0  0  0  0  0  0  0
   -4.6715   -0.9549   -1.1063 C   0  0  0  0  0  0  0  0  0  0  0  0
   -4.5669   -2.2302    0.9430 C   0  0  0  0  0  0  0  0  0  0  0  0
   -1.6812    3.8389    0.1193 C   0  0  0  0  0  0  0  0  0  0  0  0
   -5.3133   -1.6602   -0.0882 C   0  0  0  0  0  0  0  0  0  0  0  0
    4.4382    0.9440    0.0602 C   0  0  0  0  0  0  0  0  0  0  0  0
    4.0227   -1.4345   -0.0251 C   0  0  0  0  0  0  0  0  0  0  0  0
    5.8121    0.7042    0.0581 C   0  0  0  0  0  0  0  0  0  0  0  0
    5.3968   -1.6744   -0.0273 C   0  0  0  0  0  0  0  0  0  0  0  0
    6.2915   -0.6051    0.0143 C   0  0  0  0  0  0  0  0  0  0  0  0
   -0.5172   -3.3107   -0.1163 H   0  0  0  0  0  0  0  0  0  0  0  0
    1.9625    1.1290    0.0647 H   0  0  0  0  0  0  0  0  0  0  0  0
   -1.8392    0.9564    1.9016 H   0  0  0  0  0  0  0  0  0  0  0  0
    0.2119    1.7871   -1.8108 H   0  0  0  0  0  0  0  0  0  0  0  0
   -2.8018   -0.2718   -1.8995 H   0  0  0  0  0  0  0  0  0  0  0  0
   -2.6142   -2.5433    1.7705 H   0  0  0  0  0  0  0  0  0  0  0  0
   -2.6534    3.2654    1.9634 H   0  0  0  0  0  0  0  0  0  0  0  0
   -0.6019    4.1051   -1.7305 H   0  0  0  0  0  0  0  0  0  0  0  0
   -5.2415   -0.5076   -1.9162 H   0  0  0  0  0  0  0  0  0  0  0  0
   -5.0613   -2.7804    1.7390 H   0  0  0  0  0  0  0  0  0  0  0  0
    4.0788    1.9693    0.0941 H   0  0  0  0  0  0  0  0  0  0  0  0
    3.3789   -2.3035   -0.0587 H   0  0  0  0  0  0  0  0  0  0  0  0
    6.5043    1.5412    0.0905 H   0  0  0  0  0  0  0  0  0  0  0  0
    5.7583   -2.6988   -0.0617 H   0  0  0  0  0  0  0  0  0  0  0  0
   -2.6742    5.2423    0.9559 H   0  0  0  0  0  0  0  0  0  0  0  0
   -7.0210   -1.3396   -0.8862 H   0  0  0  0  0  0  0  0  0  0  0  0
    7.7845   -1.7992   -0.0213 H   0  0  0  0  0  0  0  0  0  0  0  0
  1 21  1  0  0  0  0
  1 42  1  0  0  0  0
  2 22  1  0  0  0  0
  2 43  1  0  0  0  0
  3 27  1  0  0  0  0
  3 44  1  0  0  0  0
  4  6  1  0  0  0  0
  4  8  1  0  0  0  0
  4 28  1  0  0  0  0
  5  9  1  0  0  0  0
  5 16  1  0  0  0  0
  5 29  1  0  0  0  0
  6  9  2  0  0  0  0
  7  8  2  0  0  0  0
  7  9  1  0  0  0  0
  7 10  1  0  0  0  0
  8 11  1  0  0  0  0
 10 12  2  0  0  0  0
 10 13  1  0  0  0  0
 11 14  2  0  0  0  0
 11 15  1  0  0  0  0
 12 17  1  0  0  0  0
 12 30  1  0  0  0  0
 13 18  2  0  0  0  0
 13 31  1  0  0  0  0
 14 19  1  0  0  0  0
 14 32  1  0  0  0  0
 15 20  2  0  0  0  0
 15 33  1  0  0  0  0
 16 23  2  0  0  0  0
 16 24  1  0  0  0  0
 17 21  2  0  0  0  0
 17 34  1  0  0  0  0
 18 21  1  0  0  0  0
 18 35  1  0  0  0  0
 19 22  2  0  0  0  0
 19 36  1  0  0  0  0
 20 22  1  0  0  0  0
 20 37  1  0  0  0  0
 23 25  1  0  0  0  0
 23 38  1  0  0  0  0
 24 26  2  0  0  0  0
 24 39  1  0  0  0  0
 25 27  2  0  0  0  0
 25 40  1  0  0  0  0
 26 27  1  0  0  0  0
 26 41  1  0  0  0  0
M  END
> <PUBCHEM_COMPOUND_CID>
135566832

> <PUBCHEM_CONFORMER_RMSD>
0.8

> <PUBCHEM_CONFORMER_DIVERSEORDER>
1
8
9
10
2
4
3
6
5
11
7

> <PUBCHEM_MMFF94_PARTIAL_CHARGES>
44
1 -0.53
10 0.05
11 0.05
12 -0.15
13 -0.15
14 -0.15
15 -0.15
16 0.1
17 -0.15
18 -0.15
19 -0.15
2 -0.53
20 -0.15
21 0.08
22 0.08
23 -0.15
24 -0.15
25 -0.15
26 -0.15
27 0.08
28 0.27
29 0.4
3 -0.53
30 0.15
31 0.15
32 0.15
33 0.15
34 0.15
35 0.15
36 0.15
37 0.15
38 0.15
39 0.15
4 0.3
40 0.15
41 0.15
42 0.45
43 0.45
44 0.45
5 -0.58
6 -0.71
7 -0.05
8 -0.2
9 0.37

> <PUBCHEM_EFFECTIVE_ROTOR_COUNT>
4

> <PUBCHEM_PHARMACOPHORE_FEATURES>
10
1 1 donor
1 2 donor
1 3 donor
1 4 donor
1 5 donor
3 5 6 9 cation
5 4 6 7 8 9 rings
6 10 12 13 17 18 21 rings
6 11 14 15 19 20 22 rings
6 16 23 24 25 26 27 rings

> <PUBCHEM_HEAVY_ATOM_COUNT>
27

> <PUBCHEM_ATOM_DEF_STEREO_COUNT>
0

> <PUBCHEM_ATOM_UDEF_STEREO_COUNT>
0

> <PUBCHEM_BOND_DEF_STEREO_COUNT>
0

> <PUBCHEM_BOND_UDEF_STEREO_COUNT>
0

> <PUBCHEM_ISOTOPIC_ATOM_COUNT>
0

> <PUBCHEM_COMPONENT_COUNT>
1

> <PUBCHEM_CACTVS_TAUTO_COUNT>
-1

> <PUBCHEM_CONFORMER_ID>
081495F000000001

> <PUBCHEM_MMFF94_ENERGY>
79.1125

> <PUBCHEM_FEATURE_SELFOVERLAP>
50.75

> <PUBCHEM_SHAPE_FINGERPRINT>
10050765 1 18195246607822450574
10411042 1 18338518655062578083
10670039 82 18336563655249158628
10930396 42 18123439900119410872
11045515 52 18260544571575381989
11101153 10 18336553815273919780
11578080 2 15552513304656171425
11646440 116 18335990860655954315
12166972 35 17749390416146785062
12516196 113 18337951302578144563
12760667 363 18342175583006805962
12788726 201 18334848398869844010
13004483 165 18411694426165429548
13073987 5 18338510851771945050
13911987 19 18190192354194769311
14028597 1 17822007558877555091
140371 6 18262250992015192710
14118638 360 18408040698705475962
14347332 77 18340200804884961422
14508225 48 18410566310251251965
14840074 17 17988645250083864086
14955137 171 18194404613737923499
15131766 46 15623943253526902272
15198563 99 18409727327171519069
15775530 1 17698744518137852359
15849732 13 17845936338102814895
16087824 20 18339080368941754481
16090146 7 17095540478305125554
17980427 23 17774741843454299497
1813 80 18200610192818873087
18336668 15 18187088364957059285
19301676 85 16758612443711318854
19427546 62 17546166307823076881
20238998 120 18413387661821020161
21049683 271 18115590503793919765
21236236 1 18341895156044066824
21267235 1 18408608088515955742
21641784 216 18336562567815733388
21792934 111 18340477954222690513
21792961 116 18187356619776636223
221357 26 18342457050311271978
23175994 123 18335984276692537863
23402539 116 18343016726671802807
23558518 356 18117289059658293250
23559900 14 18264202702500342658
23845131 108 17760370985671792321
266924 87 18339074874538898887
283562 15 18336544928311058763
3004659 81 17822286933615386894
3178227 256 18263657324118862523
350125 39 18413389817846551856
3886686 26 17470415480007602474
3918712 181 17831585645877682220
469060 322 18334021570484124329
5104073 3 18339916010404745474
5171179 24 17773857848679947825
5969126 39 18341888589118101805

> <PUBCHEM_SHAPE_MULTIPOLES>
523.1
14.1
4.4
0.94
18.33
6.89
0
-10.47
-0.13
-5.27
0.35
-0.88
0.2
-0.06

> <PUBCHEM_SHAPE_SELFOVERLAP>
1167.801

> <PUBCHEM_SHAPE_VOLUME>
279.3

> <PUBCHEM_COORDINATE_TYPE>
2
5
10

$$$$
