49830556
  -OEChem-10062121533D

 50 53  0     1  0  0  0  0  0999 V2000
    3.5889    2.4907    0.0923 O   0  0  0  0  0  0  0  0  0  0  0  0
    1.9502   -2.8447   -1.1634 N   0  0  0  0  0  0  0  0  0  0  0  0
    4.9173    2.0771   -2.2406 N   0  0  0  0  0  0  0  0  0  0  0  0
    1.7234    1.3939   -0.8152 N   0  0  0  0  0  0  0  0  0  0  0  0
   -0.0405    3.0232    1.9995 N   0  0  0  0  0  0  0  0  0  0  0  0
   -7.4198   -1.0862   -0.7288 N   0  0  0  0  0  0  0  0  0  0  0  0
    4.4938   -0.2361   -1.4053 C   0  0  0  0  0  0  0  0  0  0  0  0
    3.4936   -1.2553   -1.0276 C   0  0  0  0  0  0  0  0  0  0  0  0
    3.8815    1.1119   -1.8657 C   0  0  1  0  0  0  0  0  0  0  0  0
    3.1104   -1.6174    0.2941 C   0  0  0  0  0  0  0  0  0  0  0  0
    2.1411   -2.6162    0.1806 C   0  0  0  0  0  0  0  0  0  0  0  0
    2.7631   -2.0270   -1.9016 C   0  0  0  0  0  0  0  0  0  0  0  0
    3.4964   -1.1899    1.5800 C   0  0  0  0  0  0  0  0  0  0  0  0
    3.0678    1.7465   -0.7345 C   0  0  0  0  0  0  0  0  0  0  0  0
    1.5359   -3.2113    1.2933 C   0  0  0  0  0  0  0  0  0  0  0  0
    2.8996   -1.7761    2.7021 C   0  0  0  0  0  0  0  0  0  0  0  0
    1.9347   -2.7711    2.5587 C   0  0  0  0  0  0  0  0  0  0  0  0
    0.6744    1.7855    0.0496 C   0  0  0  0  0  0  0  0  0  0  0  0
   -0.6290    1.3489   -0.1604 C   0  0  0  0  0  0  0  0  0  0  0  0
   -1.6386    1.7486    0.7085 C   0  0  0  0  0  0  0  0  0  0  0  0
    0.9142    2.6138    1.1341 C   0  0  0  0  0  0  0  0  0  0  0  0
   -1.2953    2.5787    1.7634 C   0  0  0  0  0  0  0  0  0  0  0  0
   -3.0093    1.3104    0.5177 C   0  0  0  0  0  0  0  0  0  0  0  0
   -3.3930    0.2326   -0.2097 C   0  0  0  0  0  0  0  0  0  0  0  0
   -4.7831   -0.2224   -0.3890 C   0  0  0  0  0  0  0  0  0  0  0  0
   -5.8391    0.6532   -0.1625 C   0  0  0  0  0  0  0  0  0  0  0  0
   -5.0438   -1.5295   -0.7854 C   0  0  0  0  0  0  0  0  0  0  0  0
   -7.1273    0.1766   -0.3447 C   0  0  0  0  0  0  0  0  0  0  0  0
   -6.3677   -1.9085   -0.9398 C   0  0  0  0  0  0  0  0  0  0  0  0
    5.1762   -0.0569   -0.5638 H   0  0  0  0  0  0  0  0  0  0  0  0
    5.1196   -0.6367   -2.2146 H   0  0  0  0  0  0  0  0  0  0  0  0
    3.2386    0.9472   -2.7390 H   0  0  0  0  0  0  0  0  0  0  0  0
    2.7470   -2.0681   -2.9818 H   0  0  0  0  0  0  0  0  0  0  0  0
    1.3028   -3.5184   -1.5487 H   0  0  0  0  0  0  0  0  0  0  0  0
    4.2450   -0.4139    1.7116 H   0  0  0  0  0  0  0  0  0  0  0  0
    0.7843   -3.9856    1.1826 H   0  0  0  0  0  0  0  0  0  0  0  0
    5.4936    1.6852   -2.9844 H   0  0  0  0  0  0  0  0  0  0  0  0
    4.4809    2.9125   -2.6291 H   0  0  0  0  0  0  0  0  0  0  0  0
    3.1927   -1.4496    3.6964 H   0  0  0  0  0  0  0  0  0  0  0  0
    1.4838   -3.2125    3.4439 H   0  0  0  0  0  0  0  0  0  0  0  0
    1.4409    0.7790   -1.5751 H   0  0  0  0  0  0  0  0  0  0  0  0
   -0.8287    0.7136   -1.0190 H   0  0  0  0  0  0  0  0  0  0  0  0
    1.8846    3.0100    1.3958 H   0  0  0  0  0  0  0  0  0  0  0  0
   -2.0342    2.9269    2.4794 H   0  0  0  0  0  0  0  0  0  0  0  0
   -3.7495    1.9075    1.0436 H   0  0  0  0  0  0  0  0  0  0  0  0
   -2.6536   -0.3989   -0.6950 H   0  0  0  0  0  0  0  0  0  0  0  0
   -5.7054    1.6887    0.1289 H   0  0  0  0  0  0  0  0  0  0  0  0
   -4.2483   -2.2437   -0.9710 H   0  0  0  0  0  0  0  0  0  0  0  0
   -7.9859    0.8208   -0.1856 H   0  0  0  0  0  0  0  0  0  0  0  0
   -6.6245   -2.9170   -1.2470 H   0  0  0  0  0  0  0  0  0  0  0  0
  1 14  2  0  0  0  0
  2 11  1  0  0  0  0
  2 12  1  0  0  0  0
  2 34  1  0  0  0  0
  3  9  1  0  0  0  0
  3 37  1  0  0  0  0
  3 38  1  0  0  0  0
  4 14  1  0  0  0  0
  4 18  1  0  0  0  0
  4 41  1  0  0  0  0
  5 21  1  0  0  0  0
  5 22  2  0  0  0  0
  6 28  2  0  0  0  0
  6 29  1  0  0  0  0
  7  8  1  0  0  0  0
  7  9  1  0  0  0  0
  7 30  1  0  0  0  0
  7 31  1  0  0  0  0
  8 10  1  0  0  0  0
  8 12  2  0  0  0  0
  9 14  1  0  0  0  0
  9 32  1  0  0  0  0
 10 11  1  0  0  0  0
 10 13  2  0  0  0  0
 11 15  2  0  0  0  0
 12 33  1  0  0  0  0
 13 16  1  0  0  0  0
 13 35  1  0  0  0  0
 15 17  1  0  0  0  0
 15 36  1  0  0  0  0
 16 17  2  0  0  0  0
 16 39  1  0  0  0  0
 17 40  1  0  0  0  0
 18 19  1  0  0  0  0
 18 21  2  0  0  0  0
 19 20  2  0  0  0  0
 19 42  1  0  0  0  0
 20 22  1  0  0  0  0
 20 23  1  0  0  0  0
 21 43  1  0  0  0  0
 22 44  1  0  0  0  0
 23 24  2  3  0  0  0
 23 45  1  0  0  0  0
 24 25  1  0  0  0  0
 24 46  1  0  0  0  0
 25 26  2  0  0  0  0
 25 27  1  0  0  0  0
 26 28  1  0  0  0  0
 26 47  1  0  0  0  0
 27 29  2  0  0  0  0
 27 48  1  0  0  0  0
 28 49  1  0  0  0  0
 29 50  1  0  0  0  0
M  END
> <PUBCHEM_COMPOUND_CID>
49830556

> <PUBCHEM_CONFORMER_RMSD>
1

> <PUBCHEM_CONFORMER_DIVERSEORDER>
1
114
37
71
129
94
2
7
151
6
161
150
26
60
142
27
46
79
12
22
53
50
83
108
80
153
97
77
73
15
38
123
41
172
29
130
106
95
33
126
11
75
165
85
90
20
174
91
155
178
149
54
8
105
32
61
62
157
177
104
25
121
120
28
127
148
78
102
133
117
124
31
109
160
81
82
43
68
138
45
168
167
96
111
163
5
112
14
152
39
116
98
110
144
181
23
40
115
182
92
44
134
36
19
24
16
118
58
52
146
147
113
125
145
141
9
166
171
170
51
173
99
63
56
162
176
156
84
184
93
101
18
103
42
88
139
69
49
87
183
137
76
74
89
48
107
72
57
159
140
135
169
86
136
158
55
128
3
65
70
131
100
4
154
10
180
175
66
64
30
143
122
35
34
21
13
119
67
164
179
47
59
17
132

> <PUBCHEM_MMFF94_PARTIAL_CHARGES>
46
1 -0.57
11 -0.15
12 -0.3
13 -0.15
14 0.57
15 -0.15
16 -0.15
17 -0.15
18 0.12
19 -0.15
2 0.03
20 0.03
21 0.16
22 0.16
23 -0.18
24 -0.18
25 0.03
26 -0.15
27 -0.15
28 0.16
29 0.16
3 -0.99
33 0.15
34 0.27
35 0.15
36 0.15
37 0.36
38 0.36
39 0.15
4 -0.55
40 0.15
41 0.37
42 0.15
43 0.15
44 0.15
45 0.15
46 0.15
47 0.15
48 0.15
49 0.15
5 -0.62
50 0.15
6 -0.62
7 0.18
8 -0.18
9 0.33

> <PUBCHEM_EFFECTIVE_ROTOR_COUNT>
7

> <PUBCHEM_PHARMACOPHORE_FEATURES>
12
1 1 acceptor
1 2 cation
1 2 donor
1 3 cation
1 3 donor
1 4 donor
1 5 acceptor
1 6 acceptor
5 2 8 10 11 12 rings
6 10 11 13 15 16 17 rings
6 5 18 19 20 21 22 rings
6 6 25 26 27 28 29 rings

> <PUBCHEM_HEAVY_ATOM_COUNT>
29

> <PUBCHEM_ATOM_DEF_STEREO_COUNT>
0

> <PUBCHEM_ATOM_UDEF_STEREO_COUNT>
1

> <PUBCHEM_BOND_DEF_STEREO_COUNT>
0

> <PUBCHEM_BOND_UDEF_STEREO_COUNT>
1

> <PUBCHEM_ISOTOPIC_ATOM_COUNT>
0

> <PUBCHEM_COMPONENT_COUNT>
1

> <PUBCHEM_CACTVS_TAUTO_COUNT>
2

> <PUBCHEM_CONFORMER_ID>
02F85A9C00000001

> <PUBCHEM_MMFF94_ENERGY>
73.3438

> <PUBCHEM_FEATURE_SELFOVERLAP>
60.988

> <PUBCHEM_SHAPE_FINGERPRINT>
10622 236 18046056056639548499
11069576 57 18188771639211508750
11443803 9 18339646750457488164
11607047 403 18272358781920899266
11796584 16 18341328882356053989
12047536 79 15913321356968048297
12156800 1 17623262263892401232
12166972 35 17605262987214409562
12788726 201 18270687463430958769
13150687 139 18190479310604765356
1361 2 17895482556041874308
14400156 147 17197432035988848838
14931854 50 18339376226634363836
15001296 14 18200310043313978967
15003188 105 18336540543091524778
15183329 4 18412826855514942741
15324115 91 17530684298902260954
15484559 13 18190753131290728876
15664445 248 18187927347436257013
17134984 74 18187646955307619787
17138139 8 18268715081046264462
17909252 39 17846507997743308598
19026451 147 18337952294805118042
19315092 285 18114453462130013550
19319366 153 18334008414952304470
21703447 108 17988916812661814209
238 59 17824004280741863688
3004659 81 18410293597286821861
404807 78 17462292640415622211
444735 86 18054495083656359663
463206 1 18342173431734573375
513532 50 17774435109073424330
59682541 52 17385995145030695807
6823239 73 17704351061034717282

> <PUBCHEM_SHAPE_MULTIPOLES>
566.03
14.43
4.05
2.22
32.34
0.32
0.78
4.84
-6.95
-3.3
1.48
-3.19
0.49
-3.07

> <PUBCHEM_SHAPE_SELFOVERLAP>
1240.588

> <PUBCHEM_SHAPE_VOLUME>
302.1

> <PUBCHEM_COORDINATE_TYPE>
2
5
10

$$$$
