9840393
  -OEChem-10062121563D

 36 41  0     0  0  0  0  0  0999 V2000
   -1.1743   -2.6123   -0.0016 S   0  0  0  0  0  0  0  0  0  0  0  0
   -2.3760    3.1644   -0.0037 O   0  0  0  0  0  0  0  0  0  0  0  0
    1.6940   -1.9982    0.0001 N   0  0  0  0  0  0  0  0  0  0  0  0
   -0.1120    3.7326   -0.0006 N   0  0  0  0  0  0  0  0  0  0  0  0
    0.7471    1.6256    0.0012 C   0  0  0  0  0  0  0  0  0  0  0  0
    1.4399    0.4229    0.0008 C   0  0  0  0  0  0  0  0  0  0  0  0
   -0.6451    1.5060    0.0009 C   0  0  0  0  0  0  0  0  0  0  0  0
    0.9006   -0.8985    0.0004 C   0  0  0  0  0  0  0  0  0  0  0  0
   -1.2314    0.2259    0.0006 C   0  0  0  0  0  0  0  0  0  0  0  0
   -0.5028   -1.0265    0.0002 C   0  0  0  0  0  0  0  0  0  0  0  0
    1.1656    3.0547    0.0007 C   0  0  0  0  0  0  0  0  0  0  0  0
    2.8457    0.0024    0.0004 C   0  0  0  0  0  0  0  0  0  0  0  0
   -2.6198   -0.3315    0.0006 C   0  0  0  0  0  0  0  0  0  0  0  0
    2.9545   -1.4249    0.0000 C   0  0  0  0  0  0  0  0  0  0  0  0
   -1.1989    2.8626   -0.0009 C   0  0  0  0  0  0  0  0  0  0  0  0
   -2.7104   -1.7602   -0.0009 C   0  0  0  0  0  0  0  0  0  0  0  0
    4.0458    0.7525    0.0003 C   0  0  0  0  0  0  0  0  0  0  0  0
    4.2010   -2.0679   -0.0005 C   0  0  0  0  0  0  0  0  0  0  0  0
   -3.8651    0.3614    0.0024 C   0  0  0  0  0  0  0  0  0  0  0  0
   -3.9626   -2.4213   -0.0013 C   0  0  0  0  0  0  0  0  0  0  0  0
    5.2840    0.1025   -0.0001 C   0  0  0  0  0  0  0  0  0  0  0  0
    5.3580   -1.2856   -0.0006 C   0  0  0  0  0  0  0  0  0  0  0  0
   -5.0957   -0.3033    0.0018 C   0  0  0  0  0  0  0  0  0  0  0  0
   -5.1421   -1.6832   -0.0003 C   0  0  0  0  0  0  0  0  0  0  0  0
    1.7148    3.3295    0.9044 H   0  0  0  0  0  0  0  0  0  0  0  0
    1.7161    3.3286   -0.9024 H   0  0  0  0  0  0  0  0  0  0  0  0
    1.4167   -2.9720   -0.0002 H   0  0  0  0  0  0  0  0  0  0  0  0
   -0.2089    4.7431   -0.0022 H   0  0  0  0  0  0  0  0  0  0  0  0
    4.0144    1.8390    0.0006 H   0  0  0  0  0  0  0  0  0  0  0  0
    4.2704   -3.1516   -0.0008 H   0  0  0  0  0  0  0  0  0  0  0  0
   -3.8933    1.4442    0.0045 H   0  0  0  0  0  0  0  0  0  0  0  0
   -4.0117   -3.5078   -0.0024 H   0  0  0  0  0  0  0  0  0  0  0  0
    6.1977    0.6911   -0.0001 H   0  0  0  0  0  0  0  0  0  0  0  0
    6.3305   -1.7713   -0.0010 H   0  0  0  0  0  0  0  0  0  0  0  0
   -6.0174    0.2718    0.0030 H   0  0  0  0  0  0  0  0  0  0  0  0
   -6.0997   -2.1958   -0.0007 H   0  0  0  0  0  0  0  0  0  0  0  0
  1 10  1  0  0  0  0
  1 16  1  0  0  0  0
  2 15  2  0  0  0  0
  3  8  1  0  0  0  0
  3 14  1  0  0  0  0
  3 27  1  0  0  0  0
  4 11  1  0  0  0  0
  4 15  1  0  0  0  0
  4 28  1  0  0  0  0
  5  6  2  0  0  0  0
  5  7  1  0  0  0  0
  5 11  1  0  0  0  0
  6  8  1  0  0  0  0
  6 12  1  0  0  0  0
  7  9  2  0  0  0  0
  7 15  1  0  0  0  0
  8 10  2  0  0  0  0
  9 10  1  0  0  0  0
  9 13  1  0  0  0  0
 11 25  1  0  0  0  0
 11 26  1  0  0  0  0
 12 14  1  0  0  0  0
 12 17  2  0  0  0  0
 13 16  1  0  0  0  0
 13 19  2  0  0  0  0
 14 18  2  0  0  0  0
 16 20  2  0  0  0  0
 17 21  1  0  0  0  0
 17 29  1  0  0  0  0
 18 22  1  0  0  0  0
 18 30  1  0  0  0  0
 19 23  1  0  0  0  0
 19 31  1  0  0  0  0
 20 24  1  0  0  0  0
 20 32  1  0  0  0  0
 21 22  2  0  0  0  0
 21 33  1  0  0  0  0
 22 34  1  0  0  0  0
 23 24  2  0  0  0  0
 23 35  1  0  0  0  0
 24 36  1  0  0  0  0
M  END
> <PUBCHEM_COMPOUND_CID>
9840393

> <PUBCHEM_CONFORMER_RMSD>
0.6

> <PUBCHEM_CONFORMER_DIVERSEORDER>
1

> <PUBCHEM_MMFF94_PARTIAL_CHARGES>
32
1 -0.11
10 0.08
11 0.44
14 -0.15
15 0.54
16 0.04
17 -0.15
18 -0.15
19 -0.15
2 -0.57
20 -0.15
21 -0.15
22 -0.15
23 -0.15
24 -0.15
27 0.27
28 0.37
29 0.15
3 -0.05
30 0.15
31 0.15
32 0.15
33 0.15
34 0.15
35 0.15
36 0.15
4 -0.73
5 -0.14
6 -0.01
7 0.09
8 -0.05
9 -0.01

> <PUBCHEM_EFFECTIVE_ROTOR_COUNT>
0.4

> <PUBCHEM_PHARMACOPHORE_FEATURES>
10
1 2 acceptor
1 3 cation
1 3 donor
1 4 donor
5 1 9 10 13 16 rings
5 3 6 8 12 14 rings
5 4 5 7 11 15 rings
6 12 14 17 18 21 22 rings
6 13 16 19 20 23 24 rings
6 5 6 7 8 9 10 rings

> <PUBCHEM_HEAVY_ATOM_COUNT>
24

> <PUBCHEM_ATOM_DEF_STEREO_COUNT>
0

> <PUBCHEM_ATOM_UDEF_STEREO_COUNT>
0

> <PUBCHEM_BOND_DEF_STEREO_COUNT>
0

> <PUBCHEM_BOND_UDEF_STEREO_COUNT>
0

> <PUBCHEM_ISOTOPIC_ATOM_COUNT>
0

> <PUBCHEM_COMPONENT_COUNT>
1

> <PUBCHEM_CACTVS_TAUTO_COUNT>
5

> <PUBCHEM_CONFORMER_ID>
0096270900000001

> <PUBCHEM_MMFF94_ENERGY>
90.837

> <PUBCHEM_FEATURE_SELFOVERLAP>
51.137

> <PUBCHEM_SHAPE_FINGERPRINT>
10050765 1 18194402196346633830
10319926 262 18052514618860555050
10369192 42 16984590001328598192
10411042 1 18410856581119926787
10616163 171 18339643317876629070
10675989 125 16605178877816204773
10688039 33 18186522107425009413
10906281 52 18267043750157315855
10967382 1 18194682793999619973
1100329 8 18265897036986805875
11045515 52 18186800275008104277
11265709 11 18410296921111434737
12107183 9 17542499440886540402
12166972 35 17749393672101305998
12236239 1 17821729416732362862
12293681 4 18260275178257480667
12403259 226 18341046316573415336
12516196 113 18411698819933187403
12553582 1 18339066172750319806
12788726 201 18261671472172649170
13004483 165 18410282593422769482
13140716 1 18122338253386706568
13544653 18 18334019405757050002
138480 1 15167981841249698573
13862211 1 18410852178815904334
14787075 74 18114746035466020242
14790565 3 17691692181965147889
14866123 147 18196093235975132673
15042514 8 18266458694312871848
15131766 46 14906459075705554994
15196674 1 18410573998057802818
15352361 1 18410855477413707911
15927050 60 17548701137565103460
1601671 61 18341615940167510186
16087824 20 18266179436247070645
17357779 13 18338500993914503253
17492 89 18194117422286939954
17980427 23 17489601064748544817
19591789 44 18410855430168983288
20028762 73 18058166314169101319
20510252 161 18270399365472356688
20642791 35 18268151040646215084
20775438 99 17047901027591466399
21029758 11 18410009961619905075
21049683 271 18044666522881116877
21236236 1 18341612555870534937
21267235 1 18410582794198518662
21279426 13 18337105653571407407
21285901 2 18130518435261505838
21478907 32 18410292471530597370
21641784 216 18114197319234795956
221357 26 18335973255896069079
221490 88 18119253019659703355
22182313 1 18266715017729755016
2297311 6 18340779165149269110
23352939 185 18272375295130954504
23366157 5 17826508061253365869
23402539 116 18342452638599397303
23557571 272 18200600190103810572
23558518 356 18046356236177460954
23559900 14 18267858566263216003
23845131 108 17404313897502713801
283562 15 18337391530620545043
3004659 81 18114180843935387318
3091708 16 9136649710855870496
3178227 256 18335715966102112259
335352 9 18410573986064074621
3421961 26 18268147737241221761
34934 24 18339356478564951854
350125 39 18411420583615045048
352729 6 17907571424374523244
5104073 3 18411981364541391482
5283173 99 18114734928606792229
59755656 215 18266459806425078503
6443956 14 18336828709584818092
7164475 11 18337113363433283958
7364860 26 18123469655173087313
8863177 126 17752218437917523467
9709674 26 18126566709125323782

> <PUBCHEM_SHAPE_MULTIPOLES>
481.93
10.05
3.76
0.61
1.95
3.08
0
-6.1
0
-1.02
0
0
-0.03
0

> <PUBCHEM_SHAPE_SELFOVERLAP>
1114.226

> <PUBCHEM_SHAPE_VOLUME>
249.2

> <PUBCHEM_COORDINATE_TYPE>
2
5
10

$$$$
