44375684
  -OEChem-10062121593D

 57 62  0     0  0  0  0  0  0999 V2000
    0.2665    1.5024    1.1778 S   0  0  0  0  0  0  0  0  0  0  0  0
   -2.3658    2.2403   -1.8891 O   0  0  0  0  0  0  0  0  0  0  0  0
   -4.9761    3.5115    1.6570 O   0  0  0  0  0  0  0  0  0  0  0  0
   -0.8858   -1.7916   -0.2980 N   0  0  0  0  0  0  0  0  0  0  0  0
    3.3800   -2.7416   -0.1682 N   0  0  0  0  0  0  0  0  0  0  0  0
   -3.7438    3.2317   -0.3028 N   0  0  0  0  0  0  0  0  0  0  0  0
    5.0692   -1.2768   -0.7554 N   0  0  0  0  0  0  0  0  0  0  0  0
    4.4700   -1.3628    1.4318 N   0  0  0  0  0  0  0  0  0  0  0  0
   -1.0793   -0.4426   -0.1676 C   0  0  0  0  0  0  0  0  0  0  0  0
   -2.0945   -2.4499   -0.2651 C   0  0  0  0  0  0  0  0  0  0  0  0
   -2.4314   -0.2181   -0.0480 C   0  0  0  0  0  0  0  0  0  0  0  0
    0.3991   -2.4464   -0.4467 C   0  0  0  0  0  0  0  0  0  0  0  0
   -3.0868   -1.4798   -0.1080 C   0  0  0  0  0  0  0  0  0  0  0  0
    1.1692   -2.6118    0.8709 C   0  0  0  0  0  0  0  0  0  0  0  0
   -0.0070    0.4902   -0.1661 C   0  0  0  0  0  0  0  0  0  0  0  0
   -3.0622    1.0938    0.1124 C   0  0  0  0  0  0  0  0  0  0  0  0
    2.4779   -3.3920    0.7510 C   0  0  0  0  0  0  0  0  0  0  0  0
   -2.3825   -3.8159   -0.3615 C   0  0  0  0  0  0  0  0  0  0  0  0
   -4.4330   -1.8908   -0.0434 C   0  0  0  0  0  0  0  0  0  0  0  0
    0.9072    0.7068   -1.1695 C   0  0  0  0  0  0  0  0  0  0  0  0
   -3.7249   -4.1999   -0.2950 C   0  0  0  0  0  0  0  0  0  0  0  0
   -4.7360   -3.2540   -0.1383 C   0  0  0  0  0  0  0  0  0  0  0  0
    1.8638    1.7259   -0.8432 C   0  0  0  0  0  0  0  0  0  0  0  0
   -2.9932    2.2268   -0.8439 C   0  0  0  0  0  0  0  0  0  0  0  0
   -3.8204    1.4899    1.1441 C   0  0  0  0  0  0  0  0  0  0  0  0
    1.6266    2.2537    0.4298 C   0  0  0  0  0  0  0  0  0  0  0  0
    4.2760   -1.8123    0.2148 C   0  0  0  0  0  0  0  0  0  0  0  0
   -4.2713    2.8677    0.8999 C   0  0  0  0  0  0  0  0  0  0  0  0
    2.9516    2.2408   -1.5893 C   0  0  0  0  0  0  0  0  0  0  0  0
    5.9690   -0.3154   -0.1947 C   0  0  0  0  0  0  0  0  0  0  0  0
    2.4390    3.2705    0.9687 C   0  0  0  0  0  0  0  0  0  0  0  0
    5.5659   -0.3576    1.2850 C   0  0  0  0  0  0  0  0  0  0  0  0
    3.7593    3.2495   -1.0577 C   0  0  0  0  0  0  0  0  0  0  0  0
    3.5039    3.7575    0.2082 C   0  0  0  0  0  0  0  0  0  0  0  0
    0.9868   -1.9007   -1.1877 H   0  0  0  0  0  0  0  0  0  0  0  0
    0.2339   -3.4313   -0.8959 H   0  0  0  0  0  0  0  0  0  0  0  0
    0.5266   -3.1280    1.5958 H   0  0  0  0  0  0  0  0  0  0  0  0
    1.3794   -1.6261    1.3017 H   0  0  0  0  0  0  0  0  0  0  0  0
    2.2641   -4.3999    0.3772 H   0  0  0  0  0  0  0  0  0  0  0  0
    2.9366   -3.5176    1.7385 H   0  0  0  0  0  0  0  0  0  0  0  0
   -1.6084   -4.5663   -0.4770 H   0  0  0  0  0  0  0  0  0  0  0  0
   -5.2352   -1.1683    0.0767 H   0  0  0  0  0  0  0  0  0  0  0  0
    0.8987    0.1807   -2.1170 H   0  0  0  0  0  0  0  0  0  0  0  0
   -3.9829   -5.2536   -0.3651 H   0  0  0  0  0  0  0  0  0  0  0  0
   -5.7726   -3.5769   -0.0893 H   0  0  0  0  0  0  0  0  0  0  0  0
   -4.0841    0.9206    2.0208 H   0  0  0  0  0  0  0  0  0  0  0  0
    3.3061   -2.9943   -1.1493 H   0  0  0  0  0  0  0  0  0  0  0  0
   -3.8801    4.1382   -0.7354 H   0  0  0  0  0  0  0  0  0  0  0  0
    3.1651    1.8516   -2.5817 H   0  0  0  0  0  0  0  0  0  0  0  0
    5.8166    0.6780   -0.6256 H   0  0  0  0  0  0  0  0  0  0  0  0
    7.0116   -0.6148   -0.3347 H   0  0  0  0  0  0  0  0  0  0  0  0
    2.2468    3.6737    1.9590 H   0  0  0  0  0  0  0  0  0  0  0  0
    5.0418   -1.5138   -1.7393 H   0  0  0  0  0  0  0  0  0  0  0  0
    5.2073    0.6214    1.6205 H   0  0  0  0  0  0  0  0  0  0  0  0
    6.4138   -0.6467    1.9148 H   0  0  0  0  0  0  0  0  0  0  0  0
    4.5916    3.6354   -1.6395 H   0  0  0  0  0  0  0  0  0  0  0  0
    4.1380    4.5413    0.6136 H   0  0  0  0  0  0  0  0  0  0  0  0
  1 15  1  0  0  0  0
  1 26  1  0  0  0  0
  2 24  2  0  0  0  0
  3 28  2  0  0  0  0
  4  9  1  0  0  0  0
  4 10  1  0  0  0  0
  4 12  1  0  0  0  0
  5 17  1  0  0  0  0
  5 27  1  0  0  0  0
  5 47  1  0  0  0  0
  6 24  1  0  0  0  0
  6 28  1  0  0  0  0
  6 48  1  0  0  0  0
  7 27  1  0  0  0  0
  7 30  1  0  0  0  0
  7 53  1  0  0  0  0
  8 27  2  0  0  0  0
  8 32  1  0  0  0  0
  9 11  2  0  0  0  0
  9 15  1  0  0  0  0
 10 13  1  0  0  0  0
 10 18  2  0  0  0  0
 11 13  1  0  0  0  0
 11 16  1  0  0  0  0
 12 14  1  0  0  0  0
 12 35  1  0  0  0  0
 12 36  1  0  0  0  0
 13 19  2  0  0  0  0
 14 17  1  0  0  0  0
 14 37  1  0  0  0  0
 14 38  1  0  0  0  0
 15 20  2  0  0  0  0
 16 24  1  0  0  0  0
 16 25  2  0  0  0  0
 17 39  1  0  0  0  0
 17 40  1  0  0  0  0
 18 21  1  0  0  0  0
 18 41  1  0  0  0  0
 19 22  1  0  0  0  0
 19 42  1  0  0  0  0
 20 23  1  0  0  0  0
 20 43  1  0  0  0  0
 21 22  2  0  0  0  0
 21 44  1  0  0  0  0
 22 45  1  0  0  0  0
 23 26  1  0  0  0  0
 23 29  2  0  0  0  0
 25 28  1  0  0  0  0
 25 46  1  0  0  0  0
 26 31  2  0  0  0  0
 29 33  1  0  0  0  0
 29 49  1  0  0  0  0
 30 32  1  0  0  0  0
 30 50  1  0  0  0  0
 30 51  1  0  0  0  0
 31 34  1  0  0  0  0
 31 52  1  0  0  0  0
 32 54  1  0  0  0  0
 32 55  1  0  0  0  0
 33 34  2  0  0  0  0
 33 56  1  0  0  0  0
 34 57  1  0  0  0  0
M  END
> <PUBCHEM_COMPOUND_CID>
44375684

> <PUBCHEM_CONFORMER_RMSD>
1

> <PUBCHEM_CONFORMER_DIVERSEORDER>
1
55
7
125
37
63
64
19
58
113
89
10
45
96
30
25
105
31
106
74
107
32
78
115
87
130
86
92
46
69
4
90
61
132
93
29
100
79
94
70
131
21
72
47
66
43
117
76
122
40
54
18
85
20
49
24
97
118
26
99
71
42
48
119
34
28
112
57
84
12
103
129
98
75
62
77
121
126
127
59
51
9
102
67
14
6
35
120
104
83
128
82
110
109
65
116
15
123
36
80
56
53
11
23
111
73
101
2
81
60
27
91
17
3
5
108
16
52
33
41
39
68
22
13
44
124
38
50
8
114
95
88

> <PUBCHEM_MMFF94_PARTIAL_CHARGES>
44
1 -0.08
10 -0.15
11 -0.05
12 0.26
15 0.04
16 0.06
17 0.37
18 -0.15
19 -0.15
2 -0.57
20 -0.15
21 -0.15
22 -0.15
24 0.62
25 -0.14
26 0.04
27 0.55
28 0.62
29 -0.15
3 -0.57
30 0.37
31 -0.15
32 0.25
33 -0.15
34 -0.15
4 0.05
41 0.15
42 0.15
43 0.15
44 0.15
45 0.15
46 0.15
47 0.4
48 0.37
49 0.15
5 -0.82
52 0.15
53 0.4
56 0.15
57 0.15
6 -0.49
7 -0.82
8 -0.7
9 -0.15

> <PUBCHEM_EFFECTIVE_ROTOR_COUNT>
7.8

> <PUBCHEM_PHARMACOPHORE_FEATURES>
13
1 2 acceptor
1 3 acceptor
1 4 cation
1 5 donor
1 6 donor
1 7 donor
4 5 7 8 27 cation
5 1 15 20 23 26 rings
5 4 9 10 11 13 rings
5 6 16 24 25 28 rings
5 7 8 27 30 32 rings
6 10 13 18 19 21 22 rings
6 23 26 29 31 33 34 rings

> <PUBCHEM_HEAVY_ATOM_COUNT>
34

> <PUBCHEM_ATOM_DEF_STEREO_COUNT>
0

> <PUBCHEM_ATOM_UDEF_STEREO_COUNT>
0

> <PUBCHEM_BOND_DEF_STEREO_COUNT>
0

> <PUBCHEM_BOND_UDEF_STEREO_COUNT>
0

> <PUBCHEM_ISOTOPIC_ATOM_COUNT>
0

> <PUBCHEM_COMPONENT_COUNT>
1

> <PUBCHEM_CACTVS_TAUTO_COUNT>
6

> <PUBCHEM_CONFORMER_ID>
02A51E8400000001

> <PUBCHEM_MMFF94_ENERGY>
77.7139

> <PUBCHEM_FEATURE_SELFOVERLAP>
66.173

> <PUBCHEM_SHAPE_FINGERPRINT>
10006869 2 18342178921172360687
10165383 225 18267046997833820837
10290309 65 17617924177309667181
1100329 8 18339929199157151272
11112241 14 17344031248616954688
11227688 84 17764861790723775671
12107183 9 18337955576154916072
12788726 201 17978231882757558961
12925494 130 18341607097141324897
13140716 1 18411419509604273585
13617811 41 17829606510832512381
13911987 19 17759240687548958559
14020679 6 17895772698267161483
140371 6 17986125015051470708
14117953 113 17905883683222743398
14347332 77 18338514269589654727
14394314 77 17907863156345423939
14415360 78 18120924015610443749
14790565 3 17765154968921235113
14955137 171 17978526230194263395
15001296 14 18265614475678554234
15297060 5 17988363646701557930
15968369 153 17909548703412799498
19301679 30 18191592063221205491
20600515 1 17912081655552958462
20642791 178 18334867121296859924
21033648 29 17910371914834909929
21703447 108 18126562560002422704
23558518 356 18263650717419073167
23559900 14 18339909511079801011
283562 15 18122912194536016945
338550 245 18335984263654583724
350125 39 18410575055368493123

> <PUBCHEM_SHAPE_MULTIPOLES>
666.91
11.46
6.19
1.27
5.34
0.02
0.01
-1.29
1.31
-3.03
0.48
0.4
0.82
-2.08

> <PUBCHEM_SHAPE_SELFOVERLAP>
1481.38

> <PUBCHEM_SHAPE_VOLUME>
361.1

> <PUBCHEM_COORDINATE_TYPE>
2
5
10

$$$$
