11719421
  -OEChem-10062122013D

 65 69  0     0  0  0  0  0  0999 V2000
   -5.5948    0.9602    0.9926 O   0  0  0  0  0  0  0  0  0  0  0  0
   -8.0760   -1.4115   -0.3325 N   0  0  0  0  0  0  0  0  0  0  0  0
   -0.6337    2.9145   -0.5864 N   0  0  0  0  0  0  0  0  0  0  0  0
    0.7919    1.1287   -0.0526 N   0  0  0  0  0  0  0  0  0  0  0  0
    2.9078    2.6060   -0.9944 N   0  0  0  0  0  0  0  0  0  0  0  0
    1.6621    3.1248   -1.0235 N   0  0  0  0  0  0  0  0  0  0  0  0
   -7.7312   -2.6368    0.3881 C   0  0  0  0  0  0  0  0  0  0  0  0
   -9.5359   -1.4211   -0.4210 C   0  0  0  0  0  0  0  0  0  0  0  0
   -8.6621   -3.6695   -0.2301 C   0  0  0  0  0  0  0  0  0  0  0  0
   -9.8464   -2.8703   -0.7650 C   0  0  0  0  0  0  0  0  0  0  0  0
   -7.5671   -0.2177    0.3263 C   0  0  0  0  0  0  0  0  0  0  0  0
   -6.0471   -0.2285    0.3576 C   0  0  0  0  0  0  0  0  0  0  0  0
   -4.3722    1.4417    0.6035 C   0  0  0  0  0  0  0  0  0  0  0  0
    5.9540   -1.0072    0.0600 C   0  0  0  0  0  0  0  0  0  0  0  0
    4.6165   -0.4573    0.0326 C   0  0  0  0  0  0  0  0  0  0  0  0
    6.4367   -1.7374   -1.0298 C   0  0  0  0  0  0  0  0  0  0  0  0
    6.7720   -0.8117    1.1765 C   0  0  0  0  0  0  0  0  0  0  0  0
    2.2623   -0.6548    0.4731 C   0  0  0  0  0  0  0  0  0  0  0  0
   -4.1237    2.8087    0.6524 C   0  0  0  0  0  0  0  0  0  0  0  0
   -3.3932    0.5583    0.1637 C   0  0  0  0  0  0  0  0  0  0  0  0
    3.5451   -1.1998    0.5071 C   0  0  0  0  0  0  0  0  0  0  0  0
    2.0318    0.6243   -0.0289 C   0  0  0  0  0  0  0  0  0  0  0  0
    4.3949    0.8229   -0.4711 C   0  0  0  0  0  0  0  0  0  0  0  0
    3.1150    1.3721   -0.5075 C   0  0  0  0  0  0  0  0  0  0  0  0
   -1.8919    2.4186   -0.1864 C   0  0  0  0  0  0  0  0  0  0  0  0
   -2.8794    3.2988    0.2561 C   0  0  0  0  0  0  0  0  0  0  0  0
   -2.1488    1.0483   -0.2325 C   0  0  0  0  0  0  0  0  0  0  0  0
    7.7266   -2.2675   -1.0034 C   0  0  0  0  0  0  0  0  0  0  0  0
    8.0619   -1.3418    1.2029 C   0  0  0  0  0  0  0  0  0  0  0  0
    5.5974   -1.9719   -2.2452 C   0  0  0  0  0  0  0  0  0  0  0  0
    6.2982   -0.0374    2.3650 C   0  0  0  0  0  0  0  0  0  0  0  0
    1.1273   -1.4813    0.9921 C   0  0  0  0  0  0  0  0  0  0  0  0
    8.5393   -2.0698    0.1129 C   0  0  0  0  0  0  0  0  0  0  0  0
    0.6628    2.3654   -0.5524 C   0  0  0  0  0  0  0  0  0  0  0  0
   -6.6883   -2.9371    0.2482 H   0  0  0  0  0  0  0  0  0  0  0  0
   -7.9345   -2.5511    1.4632 H   0  0  0  0  0  0  0  0  0  0  0  0
   -9.9079   -0.7359   -1.1892 H   0  0  0  0  0  0  0  0  0  0  0  0
  -10.0032   -1.1596    0.5372 H   0  0  0  0  0  0  0  0  0  0  0  0
   -8.1683   -4.1967   -1.0549 H   0  0  0  0  0  0  0  0  0  0  0  0
   -8.9769   -4.4168    0.5054 H   0  0  0  0  0  0  0  0  0  0  0  0
  -10.7909   -3.1960   -0.3175 H   0  0  0  0  0  0  0  0  0  0  0  0
   -9.9244   -3.0048   -1.8502 H   0  0  0  0  0  0  0  0  0  0  0  0
   -7.9580   -0.1123    1.3473 H   0  0  0  0  0  0  0  0  0  0  0  0
   -7.8978    0.6778   -0.2158 H   0  0  0  0  0  0  0  0  0  0  0  0
   -5.6866   -0.2967   -0.6778 H   0  0  0  0  0  0  0  0  0  0  0  0
   -5.6654   -1.0772    0.9350 H   0  0  0  0  0  0  0  0  0  0  0  0
    3.7051   -2.2005    0.9025 H   0  0  0  0  0  0  0  0  0  0  0  0
   -4.8901    3.4973    0.9965 H   0  0  0  0  0  0  0  0  0  0  0  0
   -3.5448   -0.5162    0.1309 H   0  0  0  0  0  0  0  0  0  0  0  0
    5.2321    1.4110   -0.8453 H   0  0  0  0  0  0  0  0  0  0  0  0
   -2.6915    4.3686    0.2978 H   0  0  0  0  0  0  0  0  0  0  0  0
   -1.4228    0.3325   -0.6034 H   0  0  0  0  0  0  0  0  0  0  0  0
    8.1156   -2.8374   -1.8430 H   0  0  0  0  0  0  0  0  0  0  0  0
    8.7094   -1.1980    2.0638 H   0  0  0  0  0  0  0  0  0  0  0  0
    5.3241   -1.0234   -2.7186 H   0  0  0  0  0  0  0  0  0  0  0  0
    4.6906   -2.5299   -1.9903 H   0  0  0  0  0  0  0  0  0  0  0  0
    6.1322   -2.5610   -2.9988 H   0  0  0  0  0  0  0  0  0  0  0  0
    5.4211   -0.5134    2.8152 H   0  0  0  0  0  0  0  0  0  0  0  0
    6.0544    0.9930    2.0865 H   0  0  0  0  0  0  0  0  0  0  0  0
    7.0661    0.0171    3.1449 H   0  0  0  0  0  0  0  0  0  0  0  0
    1.4662   -2.4479    1.3802 H   0  0  0  0  0  0  0  0  0  0  0  0
    0.6198   -0.9612    1.8115 H   0  0  0  0  0  0  0  0  0  0  0  0
    0.4072   -1.6828    0.1921 H   0  0  0  0  0  0  0  0  0  0  0  0
    9.5437   -2.4826    0.1335 H   0  0  0  0  0  0  0  0  0  0  0  0
   -0.6351    3.8956   -0.8493 H   0  0  0  0  0  0  0  0  0  0  0  0
  1 12  1  0  0  0  0
  1 13  1  0  0  0  0
  2  7  1  0  0  0  0
  2  8  1  0  0  0  0
  2 11  1  0  0  0  0
  3 25  1  0  0  0  0
  3 34  1  0  0  0  0
  3 65  1  0  0  0  0
  4 22  1  0  0  0  0
  4 34  2  0  0  0  0
  5  6  2  0  0  0  0
  5 24  1  0  0  0  0
  6 34  1  0  0  0  0
  7  9  1  0  0  0  0
  7 35  1  0  0  0  0
  7 36  1  0  0  0  0
  8 10  1  0  0  0  0
  8 37  1  0  0  0  0
  8 38  1  0  0  0  0
  9 10  1  0  0  0  0
  9 39  1  0  0  0  0
  9 40  1  0  0  0  0
 10 41  1  0  0  0  0
 10 42  1  0  0  0  0
 11 12  1  0  0  0  0
 11 43  1  0  0  0  0
 11 44  1  0  0  0  0
 12 45  1  0  0  0  0
 12 46  1  0  0  0  0
 13 19  2  0  0  0  0
 13 20  1  0  0  0  0
 14 15  1  0  0  0  0
 14 16  2  0  0  0  0
 14 17  1  0  0  0  0
 15 21  1  0  0  0  0
 15 23  2  0  0  0  0
 16 28  1  0  0  0  0
 16 30  1  0  0  0  0
 17 29  2  0  0  0  0
 17 31  1  0  0  0  0
 18 21  2  0  0  0  0
 18 22  1  0  0  0  0
 18 32  1  0  0  0  0
 19 26  1  0  0  0  0
 19 48  1  0  0  0  0
 20 27  2  0  0  0  0
 20 49  1  0  0  0  0
 21 47  1  0  0  0  0
 22 24  2  0  0  0  0
 23 24  1  0  0  0  0
 23 50  1  0  0  0  0
 25 26  2  0  0  0  0
 25 27  1  0  0  0  0
 26 51  1  0  0  0  0
 27 52  1  0  0  0  0
 28 33  2  0  0  0  0
 28 53  1  0  0  0  0
 29 33  1  0  0  0  0
 29 54  1  0  0  0  0
 30 55  1  0  0  0  0
 30 56  1  0  0  0  0
 30 57  1  0  0  0  0
 31 58  1  0  0  0  0
 31 59  1  0  0  0  0
 31 60  1  0  0  0  0
 32 61  1  0  0  0  0
 32 62  1  0  0  0  0
 32 63  1  0  0  0  0
 33 64  1  0  0  0  0
M  END
> <PUBCHEM_COMPOUND_CID>
11719421

> <PUBCHEM_CONFORMER_RMSD>
1

> <PUBCHEM_CONFORMER_DIVERSEORDER>
1
33
9
38
26
19
34
44
11
29
3
27
25
28
39
46
10
35
7
6
36
20
18
37
42
45
13
24
16
41
48
47
4
30
22
32
43
31
14
23
5
21
17
15
12
40
8
2

> <PUBCHEM_MMFF94_PARTIAL_CHARGES>
40
1 -0.36
11 0.27
12 0.28
13 0.08
16 -0.14
17 -0.14
18 -0.14
19 -0.15
2 -0.81
20 -0.15
21 -0.15
22 0.31
23 -0.15
24 0.31
25 0.1
26 -0.15
27 -0.15
28 -0.15
29 -0.15
3 -0.6
30 0.14
31 0.14
32 0.14
33 -0.15
34 0.72
4 -0.62
47 0.15
48 0.15
49 0.15
5 -0.31
50 0.15
51 0.15
52 0.15
53 0.15
54 0.15
6 -0.31
64 0.15
65 0.4
7 0.27
8 0.27

> <PUBCHEM_EFFECTIVE_ROTOR_COUNT>
8

> <PUBCHEM_PHARMACOPHORE_FEATURES>
9
1 1 acceptor
1 2 cation
1 3 donor
4 3 4 6 34 cation
5 2 7 8 9 10 rings
6 13 19 20 25 26 27 rings
6 14 16 17 28 29 33 rings
6 15 18 21 22 23 24 rings
6 4 5 6 22 24 34 rings

> <PUBCHEM_HEAVY_ATOM_COUNT>
34

> <PUBCHEM_ATOM_DEF_STEREO_COUNT>
0

> <PUBCHEM_ATOM_UDEF_STEREO_COUNT>
0

> <PUBCHEM_BOND_DEF_STEREO_COUNT>
0

> <PUBCHEM_BOND_UDEF_STEREO_COUNT>
0

> <PUBCHEM_ISOTOPIC_ATOM_COUNT>
0

> <PUBCHEM_COMPONENT_COUNT>
1

> <PUBCHEM_CACTVS_TAUTO_COUNT>
3

> <PUBCHEM_CONFORMER_ID>
00B2D2FD00000001

> <PUBCHEM_MMFF94_ENERGY>
116.8444

> <PUBCHEM_FEATURE_SELFOVERLAP>
45.71

> <PUBCHEM_SHAPE_FINGERPRINT>
10100884 174 18410009953041332467
10258705 36 17914908530461973662
10669705 251 18201728327130140879
11135609 99 18411135879218398127
11409948 8 18200863059825553560
11607047 74 18266741479698843420
11963148 33 18116431441084877194
12559416 138 18339065004831056271
13383668 362 18128526248909255592
13692114 37 18335136505909569154
14068700 675 18408325475563088665
14359421 15 18040147423434648627
15198563 99 16588291788732141253
15392192 104 17988924496816286892
16126227 98 9583523110179949987
16991971 28 18334581239077042234
19301676 85 18189902088322311067
19841028 212 18334573594567946953
20028762 73 18410014312453690834
20105231 36 18201162045405665190
2026 5 18336264561837129347
208703 8 18411979178930116103
20982279 24 17751370689526970203
21130935 74 18199468762674525146
21267235 1 18334865978208143024
212700 22 18340199787379028687
22002106 203 18412537739068797267
23522609 53 17681872555956686756
23528940 14 18337666426525717962
23569943 247 17620765981840967978
25242607 90 18341326769294954347
3383291 50 18409450280258467963
3711267 37 9367343782162298579
397830 11 18201708545286215672
406291 66 18410013256434801583
4461854 278 17846778533217446911
474113 269 18411696613416756301
4756088 132 17540808400657188051
4760202 70 18187091680724644004
5028188 123 18268721524183283644
54039377 194 18410575093733341143
5718773 13 18411139156357611365
6201320 221 15937511690272502050
9962374 69 18335424585901986357

> <PUBCHEM_SHAPE_MULTIPOLES>
668.93
32.19
4.09
1.29
44.05
0.88
-0.08
-39.17
-0.52
6.32
1
-2.71
-0.32
-0.76

> <PUBCHEM_SHAPE_SELFOVERLAP>
1462.699

> <PUBCHEM_SHAPE_VOLUME>
366.1

> <PUBCHEM_COORDINATE_TYPE>
2
5
10

$$$$
