10407176
  -OEChem-10062122043D

 48 50  0     0  0  0  0  0  0999 V2000
    2.9252   -2.6974    0.1826 O   0  0  0  0  0  0  0  0  0  0  0  0
   -1.1219   -3.7166   -1.3679 O   0  0  0  0  0  0  0  0  0  0  0  0
    1.2304   -4.0177    1.0094 O   0  0  0  0  0  0  0  0  0  0  0  0
   -1.7176   -3.8327    0.8525 O   0  0  0  0  0  0  0  0  0  0  0  0
    1.1585    1.9016    0.3036 N   0  0  0  0  0  0  0  0  0  0  0  0
   -1.6043    1.6189   -0.3219 N   0  0  0  0  0  0  0  0  0  0  0  0
    0.5639    0.6238    0.2031 C   0  0  0  0  0  0  0  0  0  0  0  0
   -0.7898    0.4853   -0.1033 C   0  0  0  0  0  0  0  0  0  0  0  0
    0.7831   -1.7793    0.3208 C   0  0  0  0  0  0  0  0  0  0  0  0
   -0.5707   -1.9178    0.0143 C   0  0  0  0  0  0  0  0  0  0  0  0
    1.3503   -0.5084    0.4152 C   0  0  0  0  0  0  0  0  0  0  0  0
   -1.3572   -0.7855   -0.1976 C   0  0  0  0  0  0  0  0  0  0  0  0
    2.4633    2.3658    0.0571 C   0  0  0  0  0  0  0  0  0  0  0  0
   -2.9736    1.8616   -0.1100 C   0  0  0  0  0  0  0  0  0  0  0  0
    1.6306   -2.9430    0.5472 C   0  0  0  0  0  0  0  0  0  0  0  0
   -1.1920   -3.2317   -0.0916 C   0  0  0  0  0  0  0  0  0  0  0  0
    2.9690    3.4507    0.7769 C   0  0  0  0  0  0  0  0  0  0  0  0
   -3.6604    2.7625   -0.9270 C   0  0  0  0  0  0  0  0  0  0  0  0
    3.2588    1.7432   -0.9074 C   0  0  0  0  0  0  0  0  0  0  0  0
   -3.6520    1.2023    0.9174 C   0  0  0  0  0  0  0  0  0  0  0  0
    4.2631    3.9107    0.5334 C   0  0  0  0  0  0  0  0  0  0  0  0
   -5.0185    3.0028   -0.7177 C   0  0  0  0  0  0  0  0  0  0  0  0
    4.5529    2.2031   -1.1509 C   0  0  0  0  0  0  0  0  0  0  0  0
   -5.0101    1.4423    1.1267 C   0  0  0  0  0  0  0  0  0  0  0  0
    5.0551    3.2868   -0.4305 C   0  0  0  0  0  0  0  0  0  0  0  0
   -5.6932    2.3427    0.3092 C   0  0  0  0  0  0  0  0  0  0  0  0
    3.8582   -3.7692    0.3570 C   0  0  0  0  0  0  0  0  0  0  0  0
   -1.7014   -5.0050   -1.6007 C   0  0  0  0  0  0  0  0  0  0  0  0
    2.3946   -0.3963    0.6955 H   0  0  0  0  0  0  0  0  0  0  0  0
   -2.4047   -0.9140   -0.4597 H   0  0  0  0  0  0  0  0  0  0  0  0
    0.5229    2.6197    0.6393 H   0  0  0  0  0  0  0  0  0  0  0  0
   -1.1058    2.4040   -0.7313 H   0  0  0  0  0  0  0  0  0  0  0  0
    2.3624    3.9450    1.5315 H   0  0  0  0  0  0  0  0  0  0  0  0
   -3.1464    3.2828   -1.7314 H   0  0  0  0  0  0  0  0  0  0  0  0
    2.8870    0.9117   -1.5001 H   0  0  0  0  0  0  0  0  0  0  0  0
   -3.1415    0.5135    1.5849 H   0  0  0  0  0  0  0  0  0  0  0  0
    4.6542    4.7546    1.0942 H   0  0  0  0  0  0  0  0  0  0  0  0
   -5.5505    3.7038   -1.3542 H   0  0  0  0  0  0  0  0  0  0  0  0
    5.1680    1.7208   -1.9050 H   0  0  0  0  0  0  0  0  0  0  0  0
   -5.5346    0.9325    1.9296 H   0  0  0  0  0  0  0  0  0  0  0  0
    6.0623    3.6457   -0.6211 H   0  0  0  0  0  0  0  0  0  0  0  0
   -6.7502    2.5306    0.4730 H   0  0  0  0  0  0  0  0  0  0  0  0
    3.5618   -4.6296   -0.2503 H   0  0  0  0  0  0  0  0  0  0  0  0
    4.8401   -3.4235    0.0233 H   0  0  0  0  0  0  0  0  0  0  0  0
    3.9217   -4.0453    1.4137 H   0  0  0  0  0  0  0  0  0  0  0  0
   -1.1938   -5.7612   -0.9945 H   0  0  0  0  0  0  0  0  0  0  0  0
   -2.7717   -4.9832   -1.3753 H   0  0  0  0  0  0  0  0  0  0  0  0
   -1.5684   -5.2524   -2.6571 H   0  0  0  0  0  0  0  0  0  0  0  0
  1 15  1  0  0  0  0
  1 27  1  0  0  0  0
  2 16  1  0  0  0  0
  2 28  1  0  0  0  0
  3 15  2  0  0  0  0
  4 16  2  0  0  0  0
  5  7  1  0  0  0  0
  5 13  1  0  0  0  0
  5 31  1  0  0  0  0
  6  8  1  0  0  0  0
  6 14  1  0  0  0  0
  6 32  1  0  0  0  0
  7  8  2  0  0  0  0
  7 11  1  0  0  0  0
  8 12  1  0  0  0  0
  9 10  1  0  0  0  0
  9 11  2  0  0  0  0
  9 15  1  0  0  0  0
 10 12  2  0  0  0  0
 10 16  1  0  0  0  0
 11 29  1  0  0  0  0
 12 30  1  0  0  0  0
 13 17  2  0  0  0  0
 13 19  1  0  0  0  0
 14 18  2  0  0  0  0
 14 20  1  0  0  0  0
 17 21  1  0  0  0  0
 17 33  1  0  0  0  0
 18 22  1  0  0  0  0
 18 34  1  0  0  0  0
 19 23  2  0  0  0  0
 19 35  1  0  0  0  0
 20 24  2  0  0  0  0
 20 36  1  0  0  0  0
 21 25  2  0  0  0  0
 21 37  1  0  0  0  0
 22 26  2  0  0  0  0
 22 38  1  0  0  0  0
 23 25  1  0  0  0  0
 23 39  1  0  0  0  0
 24 26  1  0  0  0  0
 24 40  1  0  0  0  0
 25 41  1  0  0  0  0
 26 42  1  0  0  0  0
 27 43  1  0  0  0  0
 27 44  1  0  0  0  0
 27 45  1  0  0  0  0
 28 46  1  0  0  0  0
 28 47  1  0  0  0  0
 28 48  1  0  0  0  0
M  END
> <PUBCHEM_COMPOUND_CID>
10407176

> <PUBCHEM_CONFORMER_RMSD>
1

> <PUBCHEM_CONFORMER_DIVERSEORDER>
1
13
7
16
17
9
10
5
11
14
6
15
8
3
4
2
12

> <PUBCHEM_MMFF94_PARTIAL_CHARGES>
42
1 -0.43
10 0.09
11 -0.15
12 -0.15
13 0.1
14 0.1
15 0.63
16 0.63
17 -0.15
18 -0.15
19 -0.15
2 -0.43
20 -0.15
21 -0.15
22 -0.15
23 -0.15
24 -0.15
25 -0.15
26 -0.15
27 0.28
28 0.28
29 0.15
3 -0.57
30 0.15
31 0.4
32 0.4
33 0.15
34 0.15
35 0.15
36 0.15
37 0.15
38 0.15
39 0.15
4 -0.57
40 0.15
41 0.15
42 0.15
5 -0.6
6 -0.6
7 0.1
8 0.1
9 0.09

> <PUBCHEM_EFFECTIVE_ROTOR_COUNT>
8

> <PUBCHEM_PHARMACOPHORE_FEATURES>
9
1 3 acceptor
1 4 acceptor
1 5 cation
1 5 donor
1 6 cation
1 6 donor
6 13 17 19 21 23 25 rings
6 14 18 20 22 24 26 rings
6 7 8 9 10 11 12 rings

> <PUBCHEM_HEAVY_ATOM_COUNT>
28

> <PUBCHEM_ATOM_DEF_STEREO_COUNT>
0

> <PUBCHEM_ATOM_UDEF_STEREO_COUNT>
0

> <PUBCHEM_BOND_DEF_STEREO_COUNT>
0

> <PUBCHEM_BOND_UDEF_STEREO_COUNT>
0

> <PUBCHEM_ISOTOPIC_ATOM_COUNT>
0

> <PUBCHEM_COMPONENT_COUNT>
1

> <PUBCHEM_CACTVS_TAUTO_COUNT>
5

> <PUBCHEM_CONFORMER_ID>
009ECD0800000001

> <PUBCHEM_MMFF94_ENERGY>
121.5808

> <PUBCHEM_FEATURE_SELFOVERLAP>
45.677

> <PUBCHEM_SHAPE_FINGERPRINT>
10165383 225 18336558182427776940
10190108 129 18120393196443838211
10190206 1 18195804300382104189
102385 1 18338510936796084690
10411042 1 17616814331979689882
10815517 723 17909000042889243219
1100329 8 18410293571733484138
12107183 9 18334842945295892128
12788726 201 17762325221481401384
13140716 1 18408600396688042624
138480 1 17905324022607764921
14790565 3 18410576192954740233
14866123 147 18122911090254473616
14955137 171 18050851013673064550
15081414 286 17691976960240168299
15230672 131 18334299799710530564
15439362 3 18337666426198611428
15664445 248 17767416672939807798
15927050 60 18411982494296916814
18681886 176 18123743162832814746
18785283 64 18260830341493183464
20642791 13 17837493312255244652
20642791 268 17625267412118937801
20739085 24 17908985405054934874
21049683 271 17972052344078864036
21796203 349 17762088469967846931
23559900 14 17975686204761345977
23845131 108 18334577966849851257
23929065 36 17766821089999406008
255183 313 18052841405177183617
266924 87 18123179366902639894
283562 15 17906726260699538354
3178227 256 18193003608100635203
3380486 145 17041214437067247480
5385378 56 18337962207289535217
57124632 79 18337102389381048528
653340 110 17979631557165807032
6669772 16 18411143524218091012
6679774 75 18041271094173934386
9658208 31 18341057431395577808

> <PUBCHEM_SHAPE_MULTIPOLES>
542.79
10.03
7.75
1.09
3.61
8.01
-0.19
-14.47
-0.17
-2.82
-0.87
0.28
0.36
-1.05

> <PUBCHEM_SHAPE_SELFOVERLAP>
1173.981

> <PUBCHEM_SHAPE_VOLUME>
296.4

> <PUBCHEM_COORDINATE_TYPE>
2
5
10

$$$$
