10206423
  -OEChem-10062121593D

 62 67  0     0  0  0  0  0  0999 V2000
    2.6770   -2.2964    1.4286 O   0  0  0  0  0  0  0  0  0  0  0  0
    2.7050    2.2559   -1.3945 O   0  0  0  0  0  0  0  0  0  0  0  0
   -4.5647   -2.2703   -0.0128 O   0  0  0  0  0  0  0  0  0  0  0  0
   -4.5368    2.3177    0.0440 O   0  0  0  0  0  0  0  0  0  0  0  0
    3.6098   -0.0259    0.0178 O   0  0  0  0  0  0  0  0  0  0  0  0
   -0.0791   -2.9236    0.6287 N   0  0  0  0  0  0  0  0  0  0  0  0
   -0.0451    2.9192   -0.6142 N   0  0  0  0  0  0  0  0  0  0  0  0
   -4.9532    0.0261    0.0171 N   0  0  0  0  0  0  0  0  0  0  0  0
    1.3466    2.9901    1.3672 N   0  0  0  0  0  0  0  0  0  0  0  0
   -1.6722   -1.5339   -0.0433 C   0  0  0  0  0  0  0  0  0  0  0  0
   -2.7853   -0.6583    0.0014 C   0  0  0  0  0  0  0  0  0  0  0  0
   -2.7771    0.6842    0.0270 C   0  0  0  0  0  0  0  0  0  0  0  0
   -1.6533    1.5458    0.0658 C   0  0  0  0  0  0  0  0  0  0  0  0
   -0.7554   -1.7099   -1.1209 C   0  0  0  0  0  0  0  0  0  0  0  0
    0.2322   -2.5971   -0.6772 C   0  0  0  0  0  0  0  0  0  0  0  0
   -1.2544   -2.3223    1.0037 C   0  0  0  0  0  0  0  0  0  0  0  0
   -0.7262    1.7042    1.1336 C   0  0  0  0  0  0  0  0  0  0  0  0
    0.2615    2.5764    0.6809 C   0  0  0  0  0  0  0  0  0  0  0  0
   -1.2315    2.3346   -0.9832 C   0  0  0  0  0  0  0  0  0  0  0  0
    0.7449   -3.7196    1.5305 C   0  0  0  0  0  0  0  0  0  0  0  0
    0.7957    3.7082   -1.5043 C   0  0  0  0  0  0  0  0  0  0  0  0
   -4.1934   -1.1094    0.0027 C   0  0  0  0  0  0  0  0  0  0  0  0
   -4.1795    1.1523    0.0288 C   0  0  0  0  0  0  0  0  0  0  0  0
   -0.6610   -1.1863   -2.4291 C   0  0  0  0  0  0  0  0  0  0  0  0
    1.3073   -2.9781   -1.4969 C   0  0  0  0  0  0  0  0  0  0  0  0
    1.7114   -2.8448    2.3246 C   0  0  0  0  0  0  0  0  0  0  0  0
   -0.5895    1.1954    2.4378 C   0  0  0  0  0  0  0  0  0  0  0  0
    1.7542    2.8229   -2.2956 C   0  0  0  0  0  0  0  0  0  0  0  0
    0.4062   -1.5634   -3.2492 C   0  0  0  0  0  0  0  0  0  0  0  0
    1.3753   -2.4473   -2.7876 C   0  0  0  0  0  0  0  0  0  0  0  0
    0.5137    1.5963    3.1865 C   0  0  0  0  0  0  0  0  0  0  0  0
    1.4228    2.4718    2.6130 C   0  0  0  0  0  0  0  0  0  0  0  0
    3.4797   -1.2919    2.0449 C   0  0  0  0  0  0  0  0  0  0  0  0
    3.4950    1.2408   -2.0102 C   0  0  0  0  0  0  0  0  0  0  0  0
    4.4057   -0.7064    0.9899 C   0  0  0  0  0  0  0  0  0  0  0  0
    4.4138    0.6431   -0.9555 C   0  0  0  0  0  0  0  0  0  0  0  0
   -1.6572   -2.4607    1.9988 H   0  0  0  0  0  0  0  0  0  0  0  0
   -1.6394    2.4826   -1.9749 H   0  0  0  0  0  0  0  0  0  0  0  0
    1.2780   -4.4622    0.9283 H   0  0  0  0  0  0  0  0  0  0  0  0
    0.0659   -4.2529    2.2049 H   0  0  0  0  0  0  0  0  0  0  0  0
    0.1303    4.2583   -2.1785 H   0  0  0  0  0  0  0  0  0  0  0  0
    1.3386    4.4333   -0.8885 H   0  0  0  0  0  0  0  0  0  0  0  0
   -1.4084   -0.4934   -2.8057 H   0  0  0  0  0  0  0  0  0  0  0  0
    2.0751   -3.6600   -1.1464 H   0  0  0  0  0  0  0  0  0  0  0  0
   -5.9670    0.0323    0.0183 H   0  0  0  0  0  0  0  0  0  0  0  0
    1.1692   -2.0398    2.8350 H   0  0  0  0  0  0  0  0  0  0  0  0
    2.2319   -3.4516    3.0732 H   0  0  0  0  0  0  0  0  0  0  0  0
   -1.3173    0.5080    2.8570 H   0  0  0  0  0  0  0  0  0  0  0  0
    1.2038    2.0283   -2.8136 H   0  0  0  0  0  0  0  0  0  0  0  0
    2.2897    3.4252   -3.0374 H   0  0  0  0  0  0  0  0  0  0  0  0
    0.4790   -1.1591   -4.2551 H   0  0  0  0  0  0  0  0  0  0  0  0
    2.2006   -2.7269   -3.4373 H   0  0  0  0  0  0  0  0  0  0  0  0
    0.6593    1.2278    4.1962 H   0  0  0  0  0  0  0  0  0  0  0  0
    2.2919    2.7946    3.1800 H   0  0  0  0  0  0  0  0  0  0  0  0
    4.0636   -1.7413    2.8549 H   0  0  0  0  0  0  0  0  0  0  0  0
    2.8309   -0.5074    2.4486 H   0  0  0  0  0  0  0  0  0  0  0  0
    2.8355    0.4649   -2.4134 H   0  0  0  0  0  0  0  0  0  0  0  0
    4.0848    1.6819   -2.8205 H   0  0  0  0  0  0  0  0  0  0  0  0
    4.9686   -1.5030    0.4909 H   0  0  0  0  0  0  0  0  0  0  0  0
    5.0997    0.0005    1.4573 H   0  0  0  0  0  0  0  0  0  0  0  0
    5.0976   -0.0734   -1.4231 H   0  0  0  0  0  0  0  0  0  0  0  0
    4.9880    1.4322   -0.4575 H   0  0  0  0  0  0  0  0  0  0  0  0
  1 26  1  0  0  0  0
  1 33  1  0  0  0  0
  2 28  1  0  0  0  0
  2 34  1  0  0  0  0
  3 22  2  0  0  0  0
  4 23  2  0  0  0  0
  5 35  1  0  0  0  0
  5 36  1  0  0  0  0
  6 15  1  0  0  0  0
  6 16  1  0  0  0  0
  6 20  1  0  0  0  0
  7 18  1  0  0  0  0
  7 19  1  0  0  0  0
  7 21  1  0  0  0  0
  8 22  1  0  0  0  0
  8 23  1  0  0  0  0
  8 45  1  0  0  0  0
  9 18  1  0  0  0  0
  9 32  2  0  0  0  0
 10 11  1  0  0  0  0
 10 14  1  0  0  0  0
 10 16  2  0  0  0  0
 11 12  2  0  0  0  0
 11 22  1  0  0  0  0
 12 13  1  0  0  0  0
 12 23  1  0  0  0  0
 13 17  1  0  0  0  0
 13 19  2  0  0  0  0
 14 15  1  0  0  0  0
 14 24  2  0  0  0  0
 15 25  2  0  0  0  0
 16 37  1  0  0  0  0
 17 18  2  0  0  0  0
 17 27  1  0  0  0  0
 19 38  1  0  0  0  0
 20 26  1  0  0  0  0
 20 39  1  0  0  0  0
 20 40  1  0  0  0  0
 21 28  1  0  0  0  0
 21 41  1  0  0  0  0
 21 42  1  0  0  0  0
 24 29  1  0  0  0  0
 24 43  1  0  0  0  0
 25 30  1  0  0  0  0
 25 44  1  0  0  0  0
 26 46  1  0  0  0  0
 26 47  1  0  0  0  0
 27 31  2  0  0  0  0
 27 48  1  0  0  0  0
 28 49  1  0  0  0  0
 28 50  1  0  0  0  0
 29 30  2  0  0  0  0
 29 51  1  0  0  0  0
 30 52  1  0  0  0  0
 31 32  1  0  0  0  0
 31 53  1  0  0  0  0
 32 54  1  0  0  0  0
 33 35  1  0  0  0  0
 33 55  1  0  0  0  0
 33 56  1  0  0  0  0
 34 36  1  0  0  0  0
 34 57  1  0  0  0  0
 34 58  1  0  0  0  0
 35 59  1  0  0  0  0
 35 60  1  0  0  0  0
 36 61  1  0  0  0  0
 36 62  1  0  0  0  0
M  END
> <PUBCHEM_COMPOUND_CID>
10206423

> <PUBCHEM_CONFORMER_RMSD>
0.8

> <PUBCHEM_CONFORMER_DIVERSEORDER>
1
2
9
14
15
6
7
5
8
11
16
10
12
13
17
3
4

> <PUBCHEM_MMFF94_PARTIAL_CHARGES>
44
1 -0.56
10 -0.05
11 0.06
12 0.06
13 -0.05
15 -0.15
16 -0.3
18 0.11
19 -0.3
2 -0.56
20 0.26
21 0.26
22 0.62
23 0.62
24 -0.15
25 -0.15
26 0.28
27 -0.15
28 0.28
29 -0.15
3 -0.57
30 -0.15
31 -0.15
32 0.16
33 0.28
34 0.28
35 0.28
36 0.28
37 0.15
38 0.15
4 -0.57
43 0.15
44 0.15
45 0.37
48 0.15
5 -0.56
51 0.15
52 0.15
53 0.15
54 0.15
6 0.05
7 0.05
8 -0.49
9 -0.57

> <PUBCHEM_EFFECTIVE_ROTOR_COUNT>
2.4

> <PUBCHEM_PHARMACOPHORE_FEATURES>
14
1 1 acceptor
1 2 acceptor
1 3 acceptor
1 4 acceptor
1 5 acceptor
1 6 cation
1 7 cation
1 8 donor
1 9 acceptor
5 6 10 14 15 16 rings
5 7 13 17 18 19 rings
5 8 11 12 22 23 rings
6 14 15 24 25 29 30 rings
6 9 17 18 27 31 32 rings

> <PUBCHEM_HEAVY_ATOM_COUNT>
36

> <PUBCHEM_ATOM_DEF_STEREO_COUNT>
0

> <PUBCHEM_ATOM_UDEF_STEREO_COUNT>
0

> <PUBCHEM_BOND_DEF_STEREO_COUNT>
0

> <PUBCHEM_BOND_UDEF_STEREO_COUNT>
0

> <PUBCHEM_ISOTOPIC_ATOM_COUNT>
0

> <PUBCHEM_COMPONENT_COUNT>
1

> <PUBCHEM_CACTVS_TAUTO_COUNT>
3

> <PUBCHEM_CONFORMER_ID>
009BBCD700000001

> <PUBCHEM_MMFF94_ENERGY>
71.7649

> <PUBCHEM_FEATURE_SELFOVERLAP>
71.254

> <PUBCHEM_SHAPE_FINGERPRINT>
107951 10 17612042868174169911
11578080 2 17677318413116123543
12156800 1 17272251804660057174
12786520 15 14906753572232010795
19315092 285 16952228942518150091
19930381 70 17967529039077793786
20600515 1 17908416958028540891
20642791 239 17903110783627460229
20715895 44 17684920307277016565
20764821 26 16965750023957506250
20905425 154 18197494021956951343
23559900 14 18053953844309133959
35225 105 17986653902025358516
469060 322 16969159038369271185
57527306 92 18411696595862645782
57527452 28 18410859850344523592
57527585 103 17399297117828458718
57527585 21 16336065813262011056

> <PUBCHEM_SHAPE_MULTIPOLES>
691.59
6.75
5.04
3.12
3.23
0.12
0.06
0.03
-0.12
-1.37
0.06
-2.67
-0.11
-1

> <PUBCHEM_SHAPE_SELFOVERLAP>
1537.542

> <PUBCHEM_SHAPE_VOLUME>
370.3

> <PUBCHEM_COORDINATE_TYPE>
2
5
10

$$$$
