44364045
  -OEChem-10062121593D

 76 84  0     1  0  0  0  0  0999 V2000
   -0.3973   -3.6477   -3.5048 O   0  0  0  0  0  0  0  0  0  0  0  0
   -4.2841    0.7637   -2.2072 O   0  0  0  0  0  0  0  0  0  0  0  0
    5.7922   -0.1011    0.9486 O   0  0  0  0  0  0  0  0  0  0  0  0
    4.0790    4.0469   -0.0592 O   0  0  0  0  0  0  0  0  0  0  0  0
   -1.7386   -0.8662    0.2881 N   0  0  0  0  0  0  0  0  0  0  0  0
    0.5406   -1.5483    0.2219 N   0  0  0  0  0  0  0  0  0  0  0  0
   -0.5848    1.1492   -0.3439 N   0  0  0  0  0  0  0  0  0  0  0  0
    5.2792    2.1262    0.4913 N   0  0  0  0  0  0  0  0  0  0  0  0
   -0.8143   -1.8926   -0.1636 C   0  0  2  0  0  0  0  0  0  0  0  0
   -1.7702    0.3268   -0.5369 C   0  0  1  0  0  0  0  0  0  0  0  0
   -1.0059   -2.2521   -1.6638 C   0  0  1  0  0  0  0  0  0  0  0  0
   -2.0150    0.0359   -2.0372 C   0  0  1  0  0  0  0  0  0  0  0  0
   -1.0287   -1.0130   -2.5628 C   0  0  0  0  0  0  0  0  0  0  0  0
    1.2770   -0.3957    0.1691 C   0  0  0  0  0  0  0  0  0  0  0  0
    0.7403    0.8922   -0.1167 C   0  0  0  0  0  0  0  0  0  0  0  0
    0.0004   -3.2725   -2.2003 C   0  0  0  0  0  0  0  0  0  0  0  0
   -3.4695   -0.3883   -2.2839 C   0  0  0  0  0  0  0  0  0  0  0  0
   -1.8148   -0.6505    1.7263 C   0  0  0  0  0  0  0  0  0  0  0  0
    2.6978   -0.4211    0.4706 C   0  0  0  0  0  0  0  0  0  0  0  0
    1.7043    1.9807   -0.1045 C   0  0  0  0  0  0  0  0  0  0  0  0
    1.4900   -2.4649    0.6989 C   0  0  0  0  0  0  0  0  0  0  0  0
   -0.5769    2.5432   -0.5072 C   0  0  0  0  0  0  0  0  0  0  0  0
    2.7686   -1.8423    0.8185 C   0  0  0  0  0  0  0  0  0  0  0  0
    0.7476    3.0557   -0.3792 C   0  0  0  0  0  0  0  0  0  0  0  0
    3.5860    0.6468    0.4273 C   0  0  0  0  0  0  0  0  0  0  0  0
    3.0724    1.8899    0.1244 C   0  0  0  0  0  0  0  0  0  0  0  0
   -3.2240   -0.4068    2.1838 C   0  0  0  0  0  0  0  0  0  0  0  0
    1.3241   -3.8297    1.0234 C   0  0  0  0  0  0  0  0  0  0  0  0
   -1.6607    3.4068   -0.7804 C   0  0  0  0  0  0  0  0  0  0  0  0
    3.8479   -2.6498    1.2613 C   0  0  0  0  0  0  0  0  0  0  0  0
    0.9191    4.4569   -0.5218 C   0  0  0  0  0  0  0  0  0  0  0  0
    5.0151    0.7883    0.6659 C   0  0  0  0  0  0  0  0  0  0  0  0
    4.1613    2.8555    0.1618 C   0  0  0  0  0  0  0  0  0  0  0  0
    2.4170   -4.5807    1.4550 C   0  0  0  0  0  0  0  0  0  0  0  0
   -1.4392    4.7768   -0.9158 C   0  0  0  0  0  0  0  0  0  0  0  0
    3.6666   -3.9996    1.5709 C   0  0  0  0  0  0  0  0  0  0  0  0
   -0.1644    5.2982   -0.7864 C   0  0  0  0  0  0  0  0  0  0  0  0
   -3.7283    0.8930    2.2262 C   0  0  0  0  0  0  0  0  0  0  0  0
   -4.0286   -1.4799    2.5665 C   0  0  0  0  0  0  0  0  0  0  0  0
    0.4936   -4.6003   -4.0756 C   0  0  0  0  0  0  0  0  0  0  0  0
   -5.6577    0.4569   -2.4256 C   0  0  0  0  0  0  0  0  0  0  0  0
   -5.0374    1.1198    2.6514 C   0  0  0  0  0  0  0  0  0  0  0  0
   -5.3376   -1.2533    2.9916 C   0  0  0  0  0  0  0  0  0  0  0  0
   -5.8419    0.0466    3.0341 C   0  0  0  0  0  0  0  0  0  0  0  0
   -1.0757   -2.8025    0.3888 H   0  0  0  0  0  0  0  0  0  0  0  0
   -2.6101    0.9408   -0.2037 H   0  0  0  0  0  0  0  0  0  0  0  0
   -1.9987   -2.7180   -1.7547 H   0  0  0  0  0  0  0  0  0  0  0  0
   -1.8443    0.9563   -2.6130 H   0  0  0  0  0  0  0  0  0  0  0  0
   -0.0244   -0.5752   -2.6185 H   0  0  0  0  0  0  0  0  0  0  0  0
   -1.2949   -1.2814   -3.5924 H   0  0  0  0  0  0  0  0  0  0  0  0
    0.0051   -4.1630   -1.5631 H   0  0  0  0  0  0  0  0  0  0  0  0
    1.0107   -2.8490   -2.2346 H   0  0  0  0  0  0  0  0  0  0  0  0
   -3.8041   -1.1345   -1.5542 H   0  0  0  0  0  0  0  0  0  0  0  0
   -3.5688   -0.8194   -3.2872 H   0  0  0  0  0  0  0  0  0  0  0  0
   -1.4512   -1.5347    2.2689 H   0  0  0  0  0  0  0  0  0  0  0  0
   -1.1625    0.1625    2.0695 H   0  0  0  0  0  0  0  0  0  0  0  0
    0.3567   -4.3156    0.9396 H   0  0  0  0  0  0  0  0  0  0  0  0
   -2.6714    3.0249   -0.8902 H   0  0  0  0  0  0  0  0  0  0  0  0
    4.8419   -2.2332    1.3784 H   0  0  0  0  0  0  0  0  0  0  0  0
    1.8999    4.9093   -0.4284 H   0  0  0  0  0  0  0  0  0  0  0  0
    6.2030    2.5321    0.5907 H   0  0  0  0  0  0  0  0  0  0  0  0
    2.2833   -5.6307    1.7004 H   0  0  0  0  0  0  0  0  0  0  0  0
   -2.2759    5.4378   -1.1245 H   0  0  0  0  0  0  0  0  0  0  0  0
    4.5119   -4.5924    1.9089 H   0  0  0  0  0  0  0  0  0  0  0  0
   -0.0020    6.3673   -0.8920 H   0  0  0  0  0  0  0  0  0  0  0  0
   -3.1102    1.7416    1.9458 H   0  0  0  0  0  0  0  0  0  0  0  0
   -3.6490   -2.4977    2.5356 H   0  0  0  0  0  0  0  0  0  0  0  0
    0.1334   -4.8501   -5.0771 H   0  0  0  0  0  0  0  0  0  0  0  0
    0.5151   -5.5134   -3.4730 H   0  0  0  0  0  0  0  0  0  0  0  0
    1.5001   -4.1795   -4.1603 H   0  0  0  0  0  0  0  0  0  0  0  0
   -6.2314    1.3850   -2.3568 H   0  0  0  0  0  0  0  0  0  0  0  0
   -6.0201   -0.2362   -1.6602 H   0  0  0  0  0  0  0  0  0  0  0  0
   -5.8009    0.0291   -3.4224 H   0  0  0  0  0  0  0  0  0  0  0  0
   -5.4291    2.1321    2.6873 H   0  0  0  0  0  0  0  0  0  0  0  0
   -5.9644   -2.0888    3.2891 H   0  0  0  0  0  0  0  0  0  0  0  0
   -6.8610    0.2231    3.3655 H   0  0  0  0  0  0  0  0  0  0  0  0
  1 16  1  0  0  0  0
  1 40  1  0  0  0  0
  2 17  1  0  0  0  0
  2 41  1  0  0  0  0
  3 32  2  0  0  0  0
  4 33  2  0  0  0  0
  5  9  1  0  0  0  0
  5 10  1  0  0  0  0
  5 18  1  0  0  0  0
  6  9  1  0  0  0  0
  6 14  1  0  0  0  0
  6 21  1  0  0  0  0
  7 10  1  0  0  0  0
  7 15  1  0  0  0  0
  7 22  1  0  0  0  0
  8 32  1  0  0  0  0
  8 33  1  0  0  0  0
  8 61  1  0  0  0  0
  9 11  1  0  0  0  0
  9 45  1  0  0  0  0
 10 12  1  0  0  0  0
 10 46  1  0  0  0  0
 11 13  1  0  0  0  0
 11 16  1  0  0  0  0
 11 47  1  0  0  0  0
 12 13  1  0  0  0  0
 12 17  1  0  0  0  0
 12 48  1  0  0  0  0
 13 49  1  0  0  0  0
 13 50  1  0  0  0  0
 14 15  2  0  0  0  0
 14 19  1  0  0  0  0
 15 20  1  0  0  0  0
 16 51  1  0  0  0  0
 16 52  1  0  0  0  0
 17 53  1  0  0  0  0
 17 54  1  0  0  0  0
 18 27  1  0  0  0  0
 18 55  1  0  0  0  0
 18 56  1  0  0  0  0
 19 23  1  0  0  0  0
 19 25  2  0  0  0  0
 20 24  1  0  0  0  0
 20 26  2  0  0  0  0
 21 23  1  0  0  0  0
 21 28  2  0  0  0  0
 22 24  1  0  0  0  0
 22 29  2  0  0  0  0
 23 30  2  0  0  0  0
 24 31  2  0  0  0  0
 25 26  1  0  0  0  0
 25 32  1  0  0  0  0
 26 33  1  0  0  0  0
 27 38  2  0  0  0  0
 27 39  1  0  0  0  0
 28 34  1  0  0  0  0
 28 57  1  0  0  0  0
 29 35  1  0  0  0  0
 29 58  1  0  0  0  0
 30 36  1  0  0  0  0
 30 59  1  0  0  0  0
 31 37  1  0  0  0  0
 31 60  1  0  0  0  0
 34 36  2  0  0  0  0
 34 62  1  0  0  0  0
 35 37  2  0  0  0  0
 35 63  1  0  0  0  0
 36 64  1  0  0  0  0
 37 65  1  0  0  0  0
 38 42  1  0  0  0  0
 38 66  1  0  0  0  0
 39 43  2  0  0  0  0
 39 67  1  0  0  0  0
 40 68  1  0  0  0  0
 40 69  1  0  0  0  0
 40 70  1  0  0  0  0
 41 71  1  0  0  0  0
 41 72  1  0  0  0  0
 41 73  1  0  0  0  0
 42 44  2  0  0  0  0
 42 74  1  0  0  0  0
 43 44  1  0  0  0  0
 43 75  1  0  0  0  0
 44 76  1  0  0  0  0
M  END
> <PUBCHEM_COMPOUND_CID>
44364045

> <PUBCHEM_CONFORMER_RMSD>
1

> <PUBCHEM_CONFORMER_DIVERSEORDER>
1
5
6
4
7
3
9
2
8

> <PUBCHEM_MMFF94_PARTIAL_CHARGES>
53
1 -0.56
10 0.53
14 -0.05
15 -0.05
16 0.28
17 0.28
18 0.41
19 -0.01
2 -0.56
20 -0.01
21 -0.15
22 -0.15
25 0.09
26 0.09
27 -0.14
28 -0.15
29 -0.15
3 -0.57
30 -0.15
31 -0.15
32 0.54
33 0.54
34 -0.15
35 -0.15
36 -0.15
37 -0.15
38 -0.15
39 -0.15
4 -0.57
40 0.28
41 0.28
42 -0.15
43 -0.15
44 -0.15
5 -0.81
57 0.15
58 0.15
59 0.15
6 -0.04
60 0.15
61 0.37
62 0.15
63 0.15
64 0.15
65 0.15
66 0.15
67 0.15
7 -0.04
74 0.15
75 0.15
76 0.15
8 -0.49
9 0.53

> <PUBCHEM_EFFECTIVE_ROTOR_COUNT>
7

> <PUBCHEM_PHARMACOPHORE_FEATURES>
17
1 1 acceptor
1 2 acceptor
1 3 acceptor
1 4 acceptor
1 5 cation
1 6 cation
1 7 cation
1 8 donor
5 6 14 19 21 23 rings
5 7 15 20 22 24 rings
5 8 25 26 32 33 rings
6 14 15 19 20 25 26 rings
6 21 23 28 30 34 36 rings
6 22 24 29 31 35 37 rings
6 27 38 39 42 43 44 rings
6 5 9 10 11 12 13 rings
7 5 6 7 9 10 14 15 rings

> <PUBCHEM_HEAVY_ATOM_COUNT>
44

> <PUBCHEM_ATOM_DEF_STEREO_COUNT>
2

> <PUBCHEM_ATOM_UDEF_STEREO_COUNT>
2

> <PUBCHEM_BOND_DEF_STEREO_COUNT>
0

> <PUBCHEM_BOND_UDEF_STEREO_COUNT>
0

> <PUBCHEM_ISOTOPIC_ATOM_COUNT>
0

> <PUBCHEM_COMPONENT_COUNT>
1

> <PUBCHEM_CACTVS_TAUTO_COUNT>
2

> <PUBCHEM_CONFORMER_ID>
02A4F10D00000001

> <PUBCHEM_MMFF94_ENERGY>
174.5542

> <PUBCHEM_FEATURE_SELFOVERLAP>
87.621

> <PUBCHEM_SHAPE_FINGERPRINT>
10190108 129 18117870774687860704
11513181 2 17984680248689171174
11578080 2 17313682438282727415
12156800 1 17106820165719059943
12422481 6 18270690757291229209
12633046 712 17463413807052330330
13140716 1 18263363754181287160
13911987 19 18115301323604143388
15064986 96 17985845743161173395
15219462 58 17971758761383779838
15324884 4 17049083658871897399
15328829 1 17846215605455233325
15420108 30 18202293514940429115
15815584 197 18334301941844027087
16090146 7 17846489391882049543
20764821 26 18118104000207585356
244849 19 17822007571704693683
25223398 141 16375812076733829653
3380486 145 18259703415484692115
469060 322 18265040513191590051
50150288 127 16544441322815340449
56638632 10 18122630710801210001

> <PUBCHEM_SHAPE_MULTIPOLES>
862.1
9.88
6.82
3.37
3.75
3.15
1.91
0.51
-7.6
-5.79
2.68
5.36
-4.26
0.38

> <PUBCHEM_SHAPE_SELFOVERLAP>
1964.605

> <PUBCHEM_SHAPE_VOLUME>
446.9

> <PUBCHEM_COORDINATE_TYPE>
2
5
10

$$$$
