49830953
  -OEChem-10052120443D

 82 89  0     0  0  0  0  0  0999 V2000
   -8.6339    0.8660   -3.2805 F   0  0  0  0  0  0  0  0  0  0  0  0
  -11.1722    2.1997    0.4887 F   0  0  0  0  0  0  0  0  0  0  0  0
  -10.7131    2.2791   -2.2056 F   0  0  0  0  0  0  0  0  0  0  0  0
    9.3421    5.7526   -0.3571 O   0  0  0  0  0  0  0  0  0  0  0  0
    6.9469   -2.2570   -0.3144 O   0  0  0  0  0  0  0  0  0  0  0  0
    0.8028   -2.4622   -3.3389 O   0  0  0  0  0  0  0  0  0  0  0  0
   -5.9749   -0.4344    1.0398 N   0  0  0  0  0  0  0  0  0  0  0  0
    8.3645    3.1179   -0.3143 N   0  0  0  0  0  0  0  0  0  0  0  0
    0.6941   -2.1124    0.9920 N   0  0  0  0  0  0  0  0  0  0  0  0
    2.1280   -2.8223   -1.5809 N   0  0  0  0  0  0  0  0  0  0  0  0
   -5.1373    2.6378    2.9057 N   0  0  0  0  0  0  0  0  0  0  0  0
   -3.8290   -0.4990    0.4728 C   0  0  0  0  0  0  0  0  0  0  0  0
   -4.0377    0.6440    1.2940 C   0  0  0  0  0  0  0  0  0  0  0  0
   -5.3913    0.6596    1.6347 C   0  0  0  0  0  0  0  0  0  0  0  0
   -2.6272   -0.9827   -0.1451 C   0  0  0  0  0  0  0  0  0  0  0  0
   -5.0380   -1.1418    0.3347 C   0  0  0  0  0  0  0  0  0  0  0  0
    8.8719    3.7400    0.9136 C   0  0  0  0  0  0  0  0  0  0  0  0
    8.8642    3.7045   -1.5653 C   0  0  0  0  0  0  0  0  0  0  0  0
   -7.3723   -0.7979    1.1341 C   0  0  0  0  0  0  0  0  0  0  0  0
   -0.3118   -1.8120    0.0698 C   0  0  0  0  0  0  0  0  0  0  0  0
    8.7179    5.2543    0.8256 C   0  0  0  0  0  0  0  0  0  0  0  0
    8.7096    5.2204   -1.5210 C   0  0  0  0  0  0  0  0  0  0  0  0
   -1.5247   -1.3292    0.6306 C   0  0  0  0  0  0  0  0  0  0  0  0
   -0.2352   -1.9398   -1.3175 C   0  0  0  0  0  0  0  0  0  0  0  0
    8.0087    1.7652   -0.3153 C   0  0  0  0  0  0  0  0  0  0  0  0
    1.9982   -2.5970    0.8928 C   0  0  0  0  0  0  0  0  0  0  0  0
   -2.5479   -1.1106   -1.5169 C   0  0  0  0  0  0  0  0  0  0  0  0
    2.6544   -2.9222   -0.2871 C   0  0  0  0  0  0  0  0  0  0  0  0
   -3.2107    1.6660    1.7811 C   0  0  0  0  0  0  0  0  0  0  0  0
   -1.3687   -1.5821   -2.0925 C   0  0  0  0  0  0  0  0  0  0  0  0
   -5.9379    1.6526    2.4370 C   0  0  0  0  0  0  0  0  0  0  0  0
   -8.2659    0.0254    0.2403 C   0  0  0  0  0  0  0  0  0  0  0  0
    4.6555   -3.5647    0.9784 C   0  0  0  0  0  0  0  0  0  0  0  0
    6.0553   -4.0758    0.9983 C   0  0  0  0  0  0  0  0  0  0  0  0
    0.9259   -2.4202   -2.1080 C   0  0  0  0  0  0  0  0  0  0  0  0
    3.9823   -3.4046   -0.2300 C   0  0  0  0  0  0  0  0  0  0  0  0
    2.7018   -2.7672    2.1114 C   0  0  0  0  0  0  0  0  0  0  0  0
    7.0044    1.3087   -1.1691 C   0  0  0  0  0  0  0  0  0  0  0  0
    8.6571    0.8729    0.5386 C   0  0  0  0  0  0  0  0  0  0  0  0
    4.0109   -3.2435    2.1585 C   0  0  0  0  0  0  0  0  0  0  0  0
    7.1017   -2.9600    0.9118 C   0  0  0  0  0  0  0  0  0  0  0  0
   -3.8253    2.6242    2.5765 C   0  0  0  0  0  0  0  0  0  0  0  0
    7.2969   -0.9321   -0.3149 C   0  0  0  0  0  0  0  0  0  0  0  0
    6.6485   -0.0398   -1.1689 C   0  0  0  0  0  0  0  0  0  0  0  0
    8.3012   -0.4757    0.5388 C   0  0  0  0  0  0  0  0  0  0  0  0
   -9.3267    0.7463    0.7884 C   0  0  0  0  0  0  0  0  0  0  0  0
   -8.0318    0.0660   -1.1343 C   0  0  0  0  0  0  0  0  0  0  0  0
   -8.8584    0.8273   -1.9606 C   0  0  0  0  0  0  0  0  0  0  0  0
  -10.1534    1.5077   -0.0377 C   0  0  0  0  0  0  0  0  0  0  0  0
   -9.9193    1.5480   -1.4123 C   0  0  0  0  0  0  0  0  0  0  0  0
   -5.3104   -2.0414   -0.2031 H   0  0  0  0  0  0  0  0  0  0  0  0
    9.9339    3.4915    1.0317 H   0  0  0  0  0  0  0  0  0  0  0  0
    8.3271    3.3829    1.7955 H   0  0  0  0  0  0  0  0  0  0  0  0
    8.3337    3.3223   -2.4441 H   0  0  0  0  0  0  0  0  0  0  0  0
    9.9242    3.4426   -1.6731 H   0  0  0  0  0  0  0  0  0  0  0  0
   -7.6621   -0.7102    2.1882 H   0  0  0  0  0  0  0  0  0  0  0  0
   -7.4738   -1.8579    0.8703 H   0  0  0  0  0  0  0  0  0  0  0  0
    9.1993    5.7293    1.6863 H   0  0  0  0  0  0  0  0  0  0  0  0
    7.6615    5.5493    0.8318 H   0  0  0  0  0  0  0  0  0  0  0  0
    7.6531    5.5149   -1.5290 H   0  0  0  0  0  0  0  0  0  0  0  0
    9.1861    5.6701   -2.3978 H   0  0  0  0  0  0  0  0  0  0  0  0
   -1.5960   -1.2301    1.7153 H   0  0  0  0  0  0  0  0  0  0  0  0
   -3.3820   -0.8478   -2.1626 H   0  0  0  0  0  0  0  0  0  0  0  0
    0.4131   -1.9394    1.9541 H   0  0  0  0  0  0  0  0  0  0  0  0
   -2.1518    1.7171    1.5555 H   0  0  0  0  0  0  0  0  0  0  0  0
   -1.3602   -1.6623   -3.1783 H   0  0  0  0  0  0  0  0  0  0  0  0
   -6.9803    1.6933    2.7230 H   0  0  0  0  0  0  0  0  0  0  0  0
    6.2257   -4.6661    1.9074 H   0  0  0  0  0  0  0  0  0  0  0  0
    6.1951   -4.7688    0.1583 H   0  0  0  0  0  0  0  0  0  0  0  0
    4.5004   -3.6608   -1.1542 H   0  0  0  0  0  0  0  0  0  0  0  0
    2.7799   -3.1124   -2.3077 H   0  0  0  0  0  0  0  0  0  0  0  0
    2.2163   -2.5209    3.0553 H   0  0  0  0  0  0  0  0  0  0  0  0
    6.4779    1.9908   -1.8316 H   0  0  0  0  0  0  0  0  0  0  0  0
    9.4569    1.1903    1.2017 H   0  0  0  0  0  0  0  0  0  0  0  0
    4.5069   -3.3541    3.1183 H   0  0  0  0  0  0  0  0  0  0  0  0
    6.9657   -2.3035    1.7817 H   0  0  0  0  0  0  0  0  0  0  0  0
    8.1046   -3.4007    0.9463 H   0  0  0  0  0  0  0  0  0  0  0  0
   -3.2455    3.4451    2.9879 H   0  0  0  0  0  0  0  0  0  0  0  0
    5.8626   -0.3897   -1.8328 H   0  0  0  0  0  0  0  0  0  0  0  0
    8.8522   -1.1426    1.1953 H   0  0  0  0  0  0  0  0  0  0  0  0
   -9.5215    0.7242    1.8572 H   0  0  0  0  0  0  0  0  0  0  0  0
   -7.2174   -0.4959   -1.5824 H   0  0  0  0  0  0  0  0  0  0  0  0
  1 48  1  0  0  0  0
  2 49  1  0  0  0  0
  3 50  1  0  0  0  0
  4 21  1  0  0  0  0
  4 22  1  0  0  0  0
  5 41  1  0  0  0  0
  5 43  1  0  0  0  0
  6 35  2  0  0  0  0
  7 14  1  0  0  0  0
  7 16  1  0  0  0  0
  7 19  1  0  0  0  0
  8 17  1  0  0  0  0
  8 18  1  0  0  0  0
  8 25  1  0  0  0  0
  9 20  1  0  0  0  0
  9 26  1  0  0  0  0
  9 64  1  0  0  0  0
 10 28  1  0  0  0  0
 10 35  1  0  0  0  0
 10 71  1  0  0  0  0
 11 31  2  0  0  0  0
 11 42  1  0  0  0  0
 12 13  1  0  0  0  0
 12 15  1  0  0  0  0
 12 16  2  0  0  0  0
 13 14  2  0  0  0  0
 13 29  1  0  0  0  0
 14 31  1  0  0  0  0
 15 23  2  0  0  0  0
 15 27  1  0  0  0  0
 16 51  1  0  0  0  0
 17 21  1  0  0  0  0
 17 52  1  0  0  0  0
 17 53  1  0  0  0  0
 18 22  1  0  0  0  0
 18 54  1  0  0  0  0
 18 55  1  0  0  0  0
 19 32  1  0  0  0  0
 19 56  1  0  0  0  0
 19 57  1  0  0  0  0
 20 23  1  0  0  0  0
 20 24  2  0  0  0  0
 21 58  1  0  0  0  0
 21 59  1  0  0  0  0
 22 60  1  0  0  0  0
 22 61  1  0  0  0  0
 23 62  1  0  0  0  0
 24 30  1  0  0  0  0
 24 35  1  0  0  0  0
 25 38  2  0  0  0  0
 25 39  1  0  0  0  0
 26 28  2  0  0  0  0
 26 37  1  0  0  0  0
 27 30  2  0  0  0  0
 27 63  1  0  0  0  0
 28 36  1  0  0  0  0
 29 42  2  0  0  0  0
 29 65  1  0  0  0  0
 30 66  1  0  0  0  0
 31 67  1  0  0  0  0
 32 46  2  0  0  0  0
 32 47  1  0  0  0  0
 33 34  1  0  0  0  0
 33 36  2  0  0  0  0
 33 40  1  0  0  0  0
 34 41  1  0  0  0  0
 34 68  1  0  0  0  0
 34 69  1  0  0  0  0
 36 70  1  0  0  0  0
 37 40  2  0  0  0  0
 37 72  1  0  0  0  0
 38 44  1  0  0  0  0
 38 73  1  0  0  0  0
 39 45  2  0  0  0  0
 39 74  1  0  0  0  0
 40 75  1  0  0  0  0
 41 76  1  0  0  0  0
 41 77  1  0  0  0  0
 42 78  1  0  0  0  0
 43 44  2  0  0  0  0
 43 45  1  0  0  0  0
 44 79  1  0  0  0  0
 45 80  1  0  0  0  0
 46 49  1  0  0  0  0
 46 81  1  0  0  0  0
 47 48  2  0  0  0  0
 47 82  1  0  0  0  0
 48 50  1  0  0  0  0
 49 50  2  0  0  0  0
M  END
> <PUBCHEM_COMPOUND_CID>
49830953

> <PUBCHEM_CONFORMER_RMSD>
1.4

> <PUBCHEM_CONFORMER_DIVERSEORDER>
1
50
58
78
101
105
124
86
88
150
62
130
36
70
131
125
135
146
14
118
84
143
94
8
121
106
120
15
145
112
103
63
34
149
57
138
82
133
22
29
85
141
119
65
27
60
13
113
128
129
137
48
114
71
123
107
56
148
117
66
99
47
73
139
110
24
93
75
134
132
77
9
3
116
142
79
83
53
100
64
87
126
67
147
44
140
46
111
76
43
6
104
127
69
42
45
55
28
98
90
96
122
18
136
80
54
51
68
38
33
108
89
92
81
144
59
39
97
11
115
16
20
10
32
35
72
26
49
74
7
109
37
19
41
61
30
95
102
31
52
2
25
12
5
91
4
23
40
17
21

> <PUBCHEM_MMFF94_PARTIAL_CHARGES>
67
1 -0.19
10 -0.55
11 -0.62
12 -0.05
14 -0.15
15 0.05
16 -0.3
17 0.37
18 0.37
19 0.4
2 -0.19
20 0.1
21 0.28
22 0.28
23 -0.15
24 0.09
25 0.1
26 0.1
27 -0.15
28 0.12
29 -0.15
3 -0.19
30 -0.15
31 0.16
32 -0.14
33 -0.14
34 0.14
35 0.54
36 -0.15
37 -0.15
38 -0.15
39 -0.15
4 -0.56
40 -0.15
41 0.28
42 0.16
43 0.08
44 -0.15
45 -0.15
46 -0.15
47 -0.15
48 0.19
49 0.19
5 -0.36
50 0.19
51 0.15
6 -0.57
62 0.15
63 0.15
64 0.4
65 0.15
66 0.15
67 0.15
7 0.05
70 0.15
71 0.37
72 0.15
73 0.15
74 0.15
75 0.15
78 0.15
79 0.15
8 -0.84
80 0.15
81 0.15
82 0.15
9 -0.6

> <PUBCHEM_EFFECTIVE_ROTOR_COUNT>
9.6

> <PUBCHEM_PHARMACOPHORE_FEATURES>
17
1 10 donor
1 11 acceptor
1 4 acceptor
1 5 acceptor
1 6 acceptor
1 7 cation
1 8 cation
1 9 cation
1 9 donor
5 7 12 13 14 16 rings
6 11 13 14 29 31 42 rings
6 15 20 23 24 27 30 rings
6 25 38 39 43 44 45 rings
6 26 28 33 36 37 40 rings
6 32 46 47 48 49 50 rings
6 4 8 17 18 21 22 rings
7 9 10 20 24 26 28 35 rings

> <PUBCHEM_HEAVY_ATOM_COUNT>
50

> <PUBCHEM_ATOM_DEF_STEREO_COUNT>
0

> <PUBCHEM_ATOM_UDEF_STEREO_COUNT>
0

> <PUBCHEM_BOND_DEF_STEREO_COUNT>
0

> <PUBCHEM_BOND_UDEF_STEREO_COUNT>
0

> <PUBCHEM_ISOTOPIC_ATOM_COUNT>
0

> <PUBCHEM_COMPONENT_COUNT>
1

> <PUBCHEM_CACTVS_TAUTO_COUNT>
15

> <PUBCHEM_CONFORMER_ID>
02F85C2900000001

> <PUBCHEM_MMFF94_ENERGY>
178.5829

> <PUBCHEM_FEATURE_SELFOVERLAP>
86.389

> <PUBCHEM_SHAPE_FINGERPRINT>
10533779 1 18269552901377751840
12133447 93 15338843010754512131
12522641 24 18114182974746368050
12758862 56 13985244167648451519
13383665 225 17489874808789410351
13947947 19 17989200443911858583
15840311 113 18410297982902735470
19304671 126 18199483207393041724
2026 5 9439414510114707224
20737093 133 18046633584108066116
20982279 24 12031791413657935623
21362267 2 18187634796081372469
21792965 215 17894349960776278573
3418910 222 17917437484545911409
4516262 110 18410574006963910846
6126387 218 17313387769589008875

> <PUBCHEM_SHAPE_MULTIPOLES>
964.64
42.08
6.44
2.59
25.93
6.06
0.61
52.68
7.63
-25.18
-0.5
4.02
0.31
-3.51

> <PUBCHEM_SHAPE_SELFOVERLAP>
2158.788

> <PUBCHEM_SHAPE_VOLUME>
510.8

> <PUBCHEM_COORDINATE_TYPE>
2
5
10

$$$$
