15295578
  -OEChem-10062122013D

 37 39  0     1  0  0  0  0  0999 V2000
    0.4321    3.9704   -1.0904 O   0  0  0  0  0  0  0  0  0  0  0  0
   -2.3002    2.6526   -0.7471 O   0  0  0  0  0  0  0  0  0  0  0  0
    1.9306    1.6432    0.5383 N   0  0  0  0  0  0  0  0  0  0  0  0
   -1.0768    0.1937    0.9171 N   0  0  0  0  0  0  0  0  0  0  0  0
   -4.4948   -1.9390   -0.2878 N   0  0  0  0  0  0  0  0  0  0  0  0
    2.3879    0.4581    1.2513 C   0  0  1  0  0  0  0  0  0  0  0  0
    0.6785    1.8368    0.2206 C   0  0  0  0  0  0  0  0  0  0  0  0
   -0.5365    1.2511    0.3737 C   0  0  0  0  0  0  0  0  0  0  0  0
    2.5356   -0.7022    0.3257 C   0  0  0  0  0  0  0  0  0  0  0  0
    0.1126    2.9517   -0.5355 C   0  0  0  0  0  0  0  0  0  0  0  0
    3.6769    0.8243    2.0019 C   0  0  0  0  0  0  0  0  0  0  0  0
   -1.2090    2.3144   -0.3694 C   0  0  0  0  0  0  0  0  0  0  0  0
    2.9113   -0.4924   -1.0011 C   0  0  0  0  0  0  0  0  0  0  0  0
    2.2977   -1.9970    0.7867 C   0  0  0  0  0  0  0  0  0  0  0  0
   -2.2326   -0.5281    0.5092 C   0  0  0  0  0  0  0  0  0  0  0  0
    3.0494   -1.5773   -1.8668 C   0  0  0  0  0  0  0  0  0  0  0  0
    2.4358   -3.0819   -0.0791 C   0  0  0  0  0  0  0  0  0  0  0  0
    2.8116   -2.8722   -1.4059 C   0  0  0  0  0  0  0  0  0  0  0  0
   -3.0023   -1.1809    1.4565 C   0  0  0  0  0  0  0  0  0  0  0  0
   -2.5773   -0.5702   -0.8307 C   0  0  0  0  0  0  0  0  0  0  0  0
   -4.1183   -1.8693    1.0088 C   0  0  0  0  0  0  0  0  0  0  0  0
   -3.7123   -1.2860   -1.1761 C   0  0  0  0  0  0  0  0  0  0  0  0
    1.6477    0.2087    2.0236 H   0  0  0  0  0  0  0  0  0  0  0  0
    2.6586    2.2923    0.2472 H   0  0  0  0  0  0  0  0  0  0  0  0
    4.0351   -0.0221    2.5981 H   0  0  0  0  0  0  0  0  0  0  0  0
    3.5092    1.6709    2.6768 H   0  0  0  0  0  0  0  0  0  0  0  0
    4.4781    1.1042    1.3079 H   0  0  0  0  0  0  0  0  0  0  0  0
   -0.5835   -0.3078    1.6536 H   0  0  0  0  0  0  0  0  0  0  0  0
    3.1238    0.5000   -1.3886 H   0  0  0  0  0  0  0  0  0  0  0  0
    2.0051   -2.1745    1.8182 H   0  0  0  0  0  0  0  0  0  0  0  0
    3.3463   -1.4147   -2.8988 H   0  0  0  0  0  0  0  0  0  0  0  0
    2.2508   -4.0901    0.2800 H   0  0  0  0  0  0  0  0  0  0  0  0
    2.9200   -3.7170   -2.0796 H   0  0  0  0  0  0  0  0  0  0  0  0
   -2.7528   -1.1613    2.5117 H   0  0  0  0  0  0  0  0  0  0  0  0
   -1.9905   -0.0935   -1.6076 H   0  0  0  0  0  0  0  0  0  0  0  0
   -4.7598   -2.3998    1.7048 H   0  0  0  0  0  0  0  0  0  0  0  0
   -4.0290   -1.3596   -2.2112 H   0  0  0  0  0  0  0  0  0  0  0  0
  1 10  2  0  0  0  0
  2 12  2  0  0  0  0
  3  6  1  0  0  0  0
  3  7  1  0  0  0  0
  3 24  1  0  0  0  0
  4  8  1  0  0  0  0
  4 15  1  0  0  0  0
  4 28  1  0  0  0  0
  5 21  2  0  0  0  0
  5 22  1  0  0  0  0
  6  9  1  0  0  0  0
  6 11  1  0  0  0  0
  6 23  1  0  0  0  0
  7  8  2  0  0  0  0
  7 10  1  0  0  0  0
  8 12  1  0  0  0  0
  9 13  2  0  0  0  0
  9 14  1  0  0  0  0
 10 12  1  0  0  0  0
 11 25  1  0  0  0  0
 11 26  1  0  0  0  0
 11 27  1  0  0  0  0
 13 16  1  0  0  0  0
 13 29  1  0  0  0  0
 14 17  2  0  0  0  0
 14 30  1  0  0  0  0
 15 19  2  0  0  0  0
 15 20  1  0  0  0  0
 16 18  2  0  0  0  0
 16 31  1  0  0  0  0
 17 18  1  0  0  0  0
 17 32  1  0  0  0  0
 18 33  1  0  0  0  0
 19 21  1  0  0  0  0
 19 34  1  0  0  0  0
 20 22  2  0  0  0  0
 20 35  1  0  0  0  0
 21 36  1  0  0  0  0
 22 37  1  0  0  0  0
M  END
> <PUBCHEM_COMPOUND_CID>
15295578

> <PUBCHEM_CONFORMER_RMSD>
0.8

> <PUBCHEM_CONFORMER_DIVERSEORDER>
1
30
77
70
74
35
37
92
79
54
26
40
66
108
25
29
80
96
49
39
3
58
31
18
109
4
103
8
47
34
11
69
91
95
27
87
71
7
98
56
43
85
36
84
60
72
63
62
89
44
19
86
88
52
41
55
13
45
101
102
9
78
16
61
42
57
104
6
100
38
46
51
59
105
33
21
15
53
76
14
106
32
81
73
50
12
2
99
28
17
68
107
5
93
64
24
65
20
90
97
67
82
94
83
22
10
48
75
23

> <PUBCHEM_MMFF94_PARTIAL_CHARGES>
32
1 -0.57
10 0.64
12 0.64
13 -0.15
14 -0.15
15 0.1
16 -0.15
17 -0.15
18 -0.15
19 -0.15
2 -0.57
20 -0.15
21 0.16
22 0.16
24 0.4
28 0.4
29 0.15
3 -0.87
30 0.15
31 0.15
32 0.15
33 0.15
34 0.15
35 0.15
36 0.15
37 0.15
4 -0.6
5 -0.62
6 0.51
7 0.03
8 0.03
9 -0.14

> <PUBCHEM_EFFECTIVE_ROTOR_COUNT>
5

> <PUBCHEM_PHARMACOPHORE_FEATURES>
10
1 1 acceptor
1 2 acceptor
1 3 cation
1 3 donor
1 4 cation
1 4 donor
1 5 acceptor
4 7 8 10 12 rings
6 5 15 19 20 21 22 rings
6 9 13 14 16 17 18 rings

> <PUBCHEM_HEAVY_ATOM_COUNT>
22

> <PUBCHEM_ATOM_DEF_STEREO_COUNT>
1

> <PUBCHEM_ATOM_UDEF_STEREO_COUNT>
0

> <PUBCHEM_BOND_DEF_STEREO_COUNT>
0

> <PUBCHEM_BOND_UDEF_STEREO_COUNT>
0

> <PUBCHEM_ISOTOPIC_ATOM_COUNT>
0

> <PUBCHEM_COMPONENT_COUNT>
1

> <PUBCHEM_CACTVS_TAUTO_COUNT>
11

> <PUBCHEM_CONFORMER_ID>
00E9645A00000001

> <PUBCHEM_MMFF94_ENERGY>
68.9384

> <PUBCHEM_FEATURE_SELFOVERLAP>
50.747

> <PUBCHEM_SHAPE_FINGERPRINT>
10906281 52 18188212116536481936
11578080 2 17917981768292253121
11582403 64 15673985038611697104
116883 192 18408880733504077557
12156800 1 14671361275272353894
12160290 23 17680145179590527825
12363563 72 18187640327529237962
12553582 1 18334587857748278603
12714826 92 17982751674670091638
13140716 1 18268988674594378778
13583140 156 16486964124940433721
14840074 17 18051396663978506024
14848160 33 18262229036258413707
14863182 85 17985833863444681786
15422964 175 18410569600095414959
15635459 17 18337107964158752603
15664445 248 18336277828700800604
16752209 62 17541656110793312024
17357779 13 18411695478574959111
17492 54 17900566741406885420
1813 80 18337120033264176555
18981168 100 7925334277674318166
20645476 183 17032492050183786978
20645477 70 18046624787882206691
21285901 2 18262216907592094909
21756936 100 14762635326903844088
2255824 54 18122631818685760237
23557571 272 18337662015029276200
23559900 14 18194674874818683780
238 59 17543051833715311199
26353 1 17894921719328134253
2748010 2 18340198592512294448
3060560 45 18122350348231065220
38695281 34 17760652863858431780
81228 2 18263360304795346153
9709674 26 18125704713262281504

> <PUBCHEM_SHAPE_MULTIPOLES>
426.07
7.31
4.13
1.61
4.26
2.09
-0.09
-6.19
-0.41
-0.62
1.47
-0.84
-0.28
1.66

> <PUBCHEM_SHAPE_SELFOVERLAP>
929.732

> <PUBCHEM_SHAPE_VOLUME>
227.5

> <PUBCHEM_COORDINATE_TYPE>
2
5
10

$$$$
