15949613
  -OEChem-10052115163D

 47 50  0     0  0  0  0  0  0999 V2000
   -0.4552    2.8395   -0.8279 F   0  0  0  0  0  0  0  0  0  0  0  0
    9.5018   -0.3612   -0.3542 F   0  0  0  0  0  0  0  0  0  0  0  0
    8.3654    0.5719   -1.9486 F   0  0  0  0  0  0  0  0  0  0  0  0
    8.5823    1.5836   -0.0360 F   0  0  0  0  0  0  0  0  0  0  0  0
   -4.2470    0.5447    0.8800 O   0  0  0  0  0  0  0  0  0  0  0  0
    2.0088   -1.1729    1.0142 O   0  0  0  0  0  0  0  0  0  0  0  0
   -7.2932    0.1783    0.9329 N   0  0  0  0  0  0  0  0  0  0  0  0
   -6.4671   -1.3176   -2.1474 N   0  0  0  0  0  0  0  0  0  0  0  0
   -4.3700   -0.5452   -1.1834 N   0  0  0  0  0  0  0  0  0  0  0  0
    1.2297    0.8143    0.0481 N   0  0  0  0  0  0  0  0  0  0  0  0
    3.4897    0.3387    0.0187 N   0  0  0  0  0  0  0  0  0  0  0  0
   -6.3769   -0.1968   -0.0158 C   0  0  0  0  0  0  0  0  0  0  0  0
   -7.0776   -0.8219   -1.0430 C   0  0  0  0  0  0  0  0  0  0  0  0
   -5.0021   -0.0592   -0.0931 C   0  0  0  0  0  0  0  0  0  0  0  0
   -8.5526   -0.1924    0.5334 C   0  0  0  0  0  0  0  0  0  0  0  0
   -8.4492   -0.8162   -0.6910 C   0  0  0  0  0  0  0  0  0  0  0  0
   -7.0041    0.8617    2.1748 C   0  0  0  0  0  0  0  0  0  0  0  0
   -2.8844    0.6127    0.6728 C   0  0  0  0  0  0  0  0  0  0  0  0
   -0.1484    0.7486    0.2564 C   0  0  0  0  0  0  0  0  0  0  0  0
    4.7435   -0.2918    0.1987 C   0  0  0  0  0  0  0  0  0  0  0  0
   -2.3515    1.7106    0.0166 C   0  0  0  0  0  0  0  0  0  0  0  0
   -2.0772   -0.4186    1.1251 C   0  0  0  0  0  0  0  0  0  0  0  0
   -0.9743    1.7790   -0.1929 C   0  0  0  0  0  0  0  0  0  0  0  0
   -0.6999   -0.3501    0.9155 C   0  0  0  0  0  0  0  0  0  0  0  0
    7.1243   -0.2936   -0.0963 C   0  0  0  0  0  0  0  0  0  0  0  0
   -5.1308   -1.1362   -2.1314 C   0  0  0  0  0  0  0  0  0  0  0  0
    5.8883    0.3276   -0.2751 C   0  0  0  0  0  0  0  0  0  0  0  0
    4.8001   -1.5148    0.8464 C   0  0  0  0  0  0  0  0  0  0  0  0
    2.2258   -0.1199    0.4231 C   0  0  0  0  0  0  0  0  0  0  0  0
    7.1982   -1.5256    0.5538 C   0  0  0  0  0  0  0  0  0  0  0  0
    6.0361   -2.1361    1.0252 C   0  0  0  0  0  0  0  0  0  0  0  0
    8.3675    0.3592   -0.5995 C   0  0  0  0  0  0  0  0  0  0  0  0
   -9.4190    0.0148    1.1472 H   0  0  0  0  0  0  0  0  0  0  0  0
   -9.2728   -1.2204   -1.2628 H   0  0  0  0  0  0  0  0  0  0  0  0
   -7.9326    1.0289    2.7267 H   0  0  0  0  0  0  0  0  0  0  0  0
   -6.3327    0.2345    2.7665 H   0  0  0  0  0  0  0  0  0  0  0  0
   -6.5376    1.8219    1.9408 H   0  0  0  0  0  0  0  0  0  0  0  0
   -2.9910    2.5153   -0.3337 H   0  0  0  0  0  0  0  0  0  0  0  0
   -2.5043   -1.2746    1.6396 H   0  0  0  0  0  0  0  0  0  0  0  0
   -0.1308   -1.1870    1.2938 H   0  0  0  0  0  0  0  0  0  0  0  0
   -4.5938   -1.5158   -2.9940 H   0  0  0  0  0  0  0  0  0  0  0  0
    5.8319    1.2879   -0.7817 H   0  0  0  0  0  0  0  0  0  0  0  0
    1.5563    1.6455   -0.4386 H   0  0  0  0  0  0  0  0  0  0  0  0
    3.5164    1.2336   -0.4635 H   0  0  0  0  0  0  0  0  0  0  0  0
    3.9505   -2.0524    1.2397 H   0  0  0  0  0  0  0  0  0  0  0  0
    8.1515   -2.0251    0.7027 H   0  0  0  0  0  0  0  0  0  0  0  0
    6.0949   -3.0953    1.5314 H   0  0  0  0  0  0  0  0  0  0  0  0
  1 23  1  0  0  0  0
  2 32  1  0  0  0  0
  3 32  1  0  0  0  0
  4 32  1  0  0  0  0
  5 14  1  0  0  0  0
  5 18  1  0  0  0  0
  6 29  2  0  0  0  0
  7 12  1  0  0  0  0
  7 15  1  0  0  0  0
  7 17  1  0  0  0  0
  8 13  1  0  0  0  0
  8 26  2  0  0  0  0
  9 14  2  0  0  0  0
  9 26  1  0  0  0  0
 10 19  1  0  0  0  0
 10 29  1  0  0  0  0
 10 43  1  0  0  0  0
 11 20  1  0  0  0  0
 11 29  1  0  0  0  0
 11 44  1  0  0  0  0
 12 13  2  0  0  0  0
 12 14  1  0  0  0  0
 13 16  1  0  0  0  0
 15 16  2  0  0  0  0
 15 33  1  0  0  0  0
 16 34  1  0  0  0  0
 17 35  1  0  0  0  0
 17 36  1  0  0  0  0
 17 37  1  0  0  0  0
 18 21  2  0  0  0  0
 18 22  1  0  0  0  0
 19 23  2  0  0  0  0
 19 24  1  0  0  0  0
 20 27  1  0  0  0  0
 20 28  2  0  0  0  0
 21 23  1  0  0  0  0
 21 38  1  0  0  0  0
 22 24  2  0  0  0  0
 22 39  1  0  0  0  0
 24 40  1  0  0  0  0
 25 27  2  0  0  0  0
 25 30  1  0  0  0  0
 25 32  1  0  0  0  0
 26 41  1  0  0  0  0
 27 42  1  0  0  0  0
 28 31  1  0  0  0  0
 28 45  1  0  0  0  0
 30 31  2  0  0  0  0
 30 46  1  0  0  0  0
 31 47  1  0  0  0  0
M  END
> <PUBCHEM_COMPOUND_CID>
15949613

> <PUBCHEM_CONFORMER_RMSD>
1

> <PUBCHEM_CONFORMER_DIVERSEORDER>
2
84
89
22
68
43
73
81
98
90
62
96
24
78
87
85
66
37
70
76
79
64
46
77
7
34
69
67
95
27
88
39
86
21
80
97
49
56
71
65
57
5
18
93
51
33
60
11
91
35
58
20
45
55
75
48
42
23
92
72
61
94
40
63
74
6
16
82
15
32
25
50
52
54
12
53
83
38
44
59
3
19
8
29
47
9
36
26
28
31
13
10
17
1
41
30
14
4

> <PUBCHEM_MMFF94_PARTIAL_CHARGES>
44
1 -0.19
10 -0.55
11 -0.55
12 -0.15
13 0.26
14 0.39
15 -0.3
16 -0.15
17 0.26
18 0.08
19 0.12
2 -0.34
20 0.12
21 -0.15
22 -0.15
23 0.19
24 -0.15
25 -0.14
26 0.47
27 -0.15
28 -0.15
29 0.69
3 -0.34
30 -0.15
31 -0.15
32 1.16
33 0.15
34 0.15
38 0.15
39 0.15
4 -0.34
40 0.15
41 0.15
42 0.15
43 0.37
44 0.37
45 0.15
46 0.15
47 0.15
5 -0.17
6 -0.57
7 0.05
8 -0.57
9 -0.62

> <PUBCHEM_EFFECTIVE_ROTOR_COUNT>
7

> <PUBCHEM_PHARMACOPHORE_FEATURES>
9
1 10 donor
1 11 donor
1 6 acceptor
1 7 cation
3 8 9 26 cation
5 7 12 13 15 16 rings
6 18 19 21 22 23 24 rings
6 20 25 27 28 30 31 rings
6 8 9 12 13 14 26 rings

> <PUBCHEM_HEAVY_ATOM_COUNT>
32

> <PUBCHEM_ATOM_DEF_STEREO_COUNT>
0

> <PUBCHEM_ATOM_UDEF_STEREO_COUNT>
0

> <PUBCHEM_BOND_DEF_STEREO_COUNT>
0

> <PUBCHEM_BOND_UDEF_STEREO_COUNT>
0

> <PUBCHEM_ISOTOPIC_ATOM_COUNT>
0

> <PUBCHEM_COMPONENT_COUNT>
1

> <PUBCHEM_CACTVS_TAUTO_COUNT>
3

> <PUBCHEM_CONFORMER_ID>
00F35F2D00000002

> <PUBCHEM_MMFF94_ENERGY>
86.866

> <PUBCHEM_FEATURE_SELFOVERLAP>
45.836

> <PUBCHEM_SHAPE_FINGERPRINT>
10 15 13398627264360340627
10076449 9 18334294270905972117
10299344 5 18130787858332883083
10391435 84 17822012055613212226
10533779 1 17824835679897109268
10533779 47 12823026351529840285
10674148 151 17203886371085522690
11135926 11 18040716944450408795
11476731 38 18260552234002499710
11524674 6 15338830985045880773
11672396 167 17969496001985037938
12082328 90 17531242825645756229
12089408 11 18272934908100371962
12144603 126 18342461426466306393
12522641 24 17988638649484579864
13885169 127 16558754494797817929
13914758 101 13406791108453683156
14068700 675 17917710214774469969
14118638 360 18040998393910100552
14251764 18 18413109446201572378
14251764 46 17167864166524230083
14344974 52 15285360656956744463
1454969 45 18410854356828319750
14856354 85 17489867151094615421
150020 25 16370723725159818022
15064986 266 17895761685886793032
15183329 4 18187357723303520163
15198563 99 17313940810319598213
15301273 46 15339121230097908640
15419008 47 16515680052658516469
15510794 2 15195285322238885198
1577012 14 18262237716603421472
15849732 13 16443067200990633319
15980000 95 18411141337495246280
1818759 1 18131073748805356807
20105231 36 14333412255498429284
2026 5 18125440801204488254
20554085 129 15285351847847458760
21150785 3 17676204675997402014
21360443 120 18412825772540236079
21403212 168 10447932771668313705
21591340 7 9223225243816246945
21792938 703 18192144013863556563
21792961 116 16950280680900897601
23522609 53 18128279885353987065
23559900 14 18040998500424829792
23576562 1 17023746866153055831
249057 3 16443352000171375582
335352 9 18333449868004311179
397830 11 15482087492894916499
4017518 198 16487253275630305967
4325135 7 18060420213803938558
44880568 143 15719670957388088486
45377200 153 17417812885393391222
4625314 4 17346880065705930184
5028188 123 17561079236984468509
5219985 9 18341891887822472217
54039377 194 18411417346032493967
5969126 39 18334569114759438517
6691757 9 17132119040365831763
9953998 17 15841547483984691847

> <PUBCHEM_SHAPE_MULTIPOLES>
592.81
32.26
1.65
1.48
25.86
0.33
-0.22
-6.98
-4.38
0.28
-0.23
-1.52
-0.28
-3.36

> <PUBCHEM_SHAPE_SELFOVERLAP>
1313.769

> <PUBCHEM_SHAPE_VOLUME>
317.6

> <PUBCHEM_COORDINATE_TYPE>
2
5
10

$$$$
