49830907
  -OEChem-10052115183D

 26 28  0     0  0  0  0  0  0999 V2000
    1.1219   -0.0738    0.0006 N   0  0  0  0  0  0  0  0  0  0  0  0
    0.2936   -2.1448    0.0000 N   0  0  0  0  0  0  0  0  0  0  0  0
    2.4614    1.8470    0.0002 N   0  0  0  0  0  0  0  0  0  0  0  0
    0.1567    2.1399    0.0018 N   0  0  0  0  0  0  0  0  0  0  0  0
   -0.0025   -0.8619    0.0005 C   0  0  0  0  0  0  0  0  0  0  0  0
    2.1984   -0.9319    0.0000 C   0  0  0  0  0  0  0  0  0  0  0  0
   -1.3733   -0.4018    0.0001 C   0  0  0  0  0  0  0  0  0  0  0  0
    1.2600    1.3256    0.0008 C   0  0  0  0  0  0  0  0  0  0  0  0
    1.6645   -2.1966    0.0003 C   0  0  0  0  0  0  0  0  0  0  0  0
    3.4770   -0.3480   -0.0011 C   0  0  0  0  0  0  0  0  0  0  0  0
   -2.0350   -0.1804    1.2078 C   0  0  0  0  0  0  0  0  0  0  0  0
   -2.0338   -0.1792   -1.2081 C   0  0  0  0  0  0  0  0  0  0  0  0
    3.5427    0.9922   -0.0009 C   0  0  0  0  0  0  0  0  0  0  0  0
   -3.3575    0.2634    1.2074 C   0  0  0  0  0  0  0  0  0  0  0  0
   -3.3561    0.2646   -1.2086 C   0  0  0  0  0  0  0  0  0  0  0  0
   -4.0180    0.4859   -0.0007 C   0  0  0  0  0  0  0  0  0  0  0  0
    2.1901   -3.1406    0.0000 H   0  0  0  0  0  0  0  0  0  0  0  0
    4.3701   -0.9617   -0.0020 H   0  0  0  0  0  0  0  0  0  0  0  0
   -1.5334   -0.3488    2.1578 H   0  0  0  0  0  0  0  0  0  0  0  0
   -1.5312   -0.3466   -2.1578 H   0  0  0  0  0  0  0  0  0  0  0  0
    4.5128    1.4789   -0.0016 H   0  0  0  0  0  0  0  0  0  0  0  0
   -3.8727    0.4360    2.1478 H   0  0  0  0  0  0  0  0  0  0  0  0
   -3.8704    0.4383   -2.1492 H   0  0  0  0  0  0  0  0  0  0  0  0
    0.2826    3.1472    0.0018 H   0  0  0  0  0  0  0  0  0  0  0  0
   -0.8027    1.8305    0.0030 H   0  0  0  0  0  0  0  0  0  0  0  0
   -5.0476    0.8316   -0.0011 H   0  0  0  0  0  0  0  0  0  0  0  0
  1  5  1  0  0  0  0
  1  6  1  0  0  0  0
  1  8  1  0  0  0  0
  2  5  2  0  0  0  0
  2  9  1  0  0  0  0
  3  8  2  0  0  0  0
  3 13  1  0  0  0  0
  4  8  1  0  0  0  0
  4 24  1  0  0  0  0
  4 25  1  0  0  0  0
  5  7  1  0  0  0  0
  6  9  2  0  0  0  0
  6 10  1  0  0  0  0
  7 11  2  0  0  0  0
  7 12  1  0  0  0  0
  9 17  1  0  0  0  0
 10 13  2  0  0  0  0
 10 18  1  0  0  0  0
 11 14  1  0  0  0  0
 11 19  1  0  0  0  0
 12 15  2  0  0  0  0
 12 20  1  0  0  0  0
 13 21  1  0  0  0  0
 14 16  2  0  0  0  0
 14 22  1  0  0  0  0
 15 16  1  0  0  0  0
 15 23  1  0  0  0  0
 16 26  1  0  0  0  0
M  END
> <PUBCHEM_COMPOUND_CID>
49830907

> <PUBCHEM_CONFORMER_RMSD>
0.6

> <PUBCHEM_CONFORMER_DIVERSEORDER>
1

> <PUBCHEM_MMFF94_PARTIAL_CHARGES>
26
1 0.29
10 -0.11
11 -0.15
12 -0.15
13 0.02
14 -0.15
15 -0.15
16 -0.15
17 0.15
18 0.15
19 0.15
2 -0.57
20 0.15
21 0.15
22 0.15
23 0.15
24 0.4
25 0.4
26 0.15
3 -0.62
4 -0.85
5 0.13
6 -0.2
7 0.05
8 0.51
9 0.08

> <PUBCHEM_EFFECTIVE_ROTOR_COUNT>
1

> <PUBCHEM_PHARMACOPHORE_FEATURES>
5
1 4 donor
4 1 3 4 8 cation
5 1 2 5 6 9 rings
6 1 3 6 8 10 13 rings
6 7 11 12 14 15 16 rings

> <PUBCHEM_HEAVY_ATOM_COUNT>
16

> <PUBCHEM_ATOM_DEF_STEREO_COUNT>
0

> <PUBCHEM_ATOM_UDEF_STEREO_COUNT>
0

> <PUBCHEM_BOND_DEF_STEREO_COUNT>
0

> <PUBCHEM_BOND_UDEF_STEREO_COUNT>
0

> <PUBCHEM_ISOTOPIC_ATOM_COUNT>
0

> <PUBCHEM_COMPONENT_COUNT>
1

> <PUBCHEM_CACTVS_TAUTO_COUNT>
2

> <PUBCHEM_CONFORMER_ID>
02F85BFB00000001

> <PUBCHEM_MMFF94_ENERGY>
48.5653

> <PUBCHEM_FEATURE_SELFOVERLAP>
25.475

> <PUBCHEM_SHAPE_FINGERPRINT>
10219947 1 18410294700776951002
104564 63 18196942071589225108
10608611 8 18187360996094713509
10967382 1 18410573972567262086
10980938 120 18411136922241167054
11031198 65 18334861614520954799
11471102 20 18409727344197575116
11543360 7 15625942109652463152
11640471 11 17560256729647033881
12236239 1 17703790301962814659
124424 183 17749098972424418322
12654215 9 18334006164678812180
13140716 1 18337950220546689954
13581323 91 15068341215780618555
14251717 144 18412539903468154655
15219456 202 18113057121254846531
15309172 13 18409450305837873491
15653759 3 17095525106036358809
15775835 57 18130790074773404077
15848702 151 17559684949272708278
16945 1 18410855434717268518
17844478 74 17894353263279126445
1813 80 17555468227680935566
18186145 218 18342181080791473526
18219364 16 18334861653323223475
19049666 15 17605831417861883431
200 152 18272365417302265703
20201158 50 18260547792695131299
20279233 1 17748828497207229131
20645477 70 18338226056020662671
21524375 3 18265611159673819990
21639500 275 18339913892025577133
22854114 111 18409731759260398989
2334 1 18050286165691933166
23402655 69 18342732988553022365
23493267 7 17313382305715056888
23557571 272 17313108549253207647
23559900 14 16588585292931285530
25 1 18408884044512022822
2748010 2 18194691590609749790
350125 39 17905053903592721456
474 4 18341611563664491968
528886 8 18412260661995737810
63268167 104 18342736325425892169
77492 1 17703788098507565191
81228 2 16897352119511907610
8272917 22 18270688537373424399
84936 182 17916859252550679024
9981440 41 16909722136778846544

> <PUBCHEM_SHAPE_MULTIPOLES>
309.35
6.47
1.89
0.98
1.9
0.11
0
-1.38
0
-1.58
0
1.04
0
0

> <PUBCHEM_SHAPE_SELFOVERLAP>
692.946

> <PUBCHEM_SHAPE_VOLUME>
161.7

> <PUBCHEM_COORDINATE_TYPE>
2
5
10

$$$$
