49830408
  -OEChem-10052115183D

 56 60  0     0  0  0  0  0  0999 V2000
    3.0919    1.3017    2.3802 O   0  0  0  0  0  0  0  0  0  0  0  0
   -3.3598   -0.1450    0.2025 N   0  0  0  0  0  0  0  0  0  0  0  0
   -3.9971   -2.9136   -0.0942 N   0  0  0  0  0  0  0  0  0  0  0  0
   -0.2283    3.4229   -0.7891 N   0  0  0  0  0  0  0  0  0  0  0  0
    2.2241   -1.4803   -0.6813 N   0  0  0  0  0  0  0  0  0  0  0  0
    1.1293    1.5564   -0.3833 N   0  0  0  0  0  0  0  0  0  0  0  0
    2.7440   -2.1409    1.3914 N   0  0  0  0  0  0  0  0  0  0  0  0
    2.0185    3.5274   -1.4473 N   0  0  0  0  0  0  0  0  0  0  0  0
    3.3845   -0.5787    3.6596 N   0  0  0  0  0  0  0  0  0  0  0  0
   -4.5646   -0.5484   -0.5336 C   0  0  0  0  0  0  0  0  0  0  0  0
   -2.3011   -1.1556    0.2887 C   0  0  0  0  0  0  0  0  0  0  0  0
   -5.0652   -1.9077   -0.0402 C   0  0  0  0  0  0  0  0  0  0  0  0
   -2.8747   -2.4961    0.7547 C   0  0  0  0  0  0  0  0  0  0  0  0
   -3.0257    1.2137    0.2226 C   0  0  0  0  0  0  0  0  0  0  0  0
   -4.5011   -4.2201    0.3275 C   0  0  0  0  0  0  0  0  0  0  0  0
   -1.8001    1.6384   -0.2905 C   0  0  0  0  0  0  0  0  0  0  0  0
   -3.9187    2.1434    0.7555 C   0  0  0  0  0  0  0  0  0  0  0  0
   -1.4675    2.9929   -0.2710 C   0  0  0  0  0  0  0  0  0  0  0  0
   -3.5860    3.4980    0.7752 C   0  0  0  0  0  0  0  0  0  0  0  0
   -2.3605    3.9228    0.2617 C   0  0  0  0  0  0  0  0  0  0  0  0
    2.4488   -0.3390    0.0448 C   0  0  0  0  0  0  0  0  0  0  0  0
    2.3521    0.9953   -0.4844 C   0  0  0  0  0  0  0  0  0  0  0  0
    2.4161   -2.5540    0.1842 C   0  0  0  0  0  0  0  0  0  0  0  0
    1.0346    2.8055   -0.8776 C   0  0  0  0  0  0  0  0  0  0  0  0
    2.7657   -0.7715    1.3109 C   0  0  0  0  0  0  0  0  0  0  0  0
    1.8707   -1.6236   -2.0201 C   0  0  0  0  0  0  0  0  0  0  0  0
    2.2340   -3.8613   -0.3553 C   0  0  0  0  0  0  0  0  0  0  0  0
    3.4420    1.6284   -1.0465 C   0  0  0  0  0  0  0  0  0  0  0  0
    1.7019   -2.8582   -2.5210 C   0  0  0  0  0  0  0  0  0  0  0  0
    1.8923   -4.0071   -1.6501 C   0  0  0  0  0  0  0  0  0  0  0  0
    3.2140    2.9059   -1.5159 C   0  0  0  0  0  0  0  0  0  0  0  0
    3.0862    0.0484    2.4419 C   0  0  0  0  0  0  0  0  0  0  0  0
   -4.3318   -0.5982   -1.6053 H   0  0  0  0  0  0  0  0  0  0  0  0
   -5.3772    0.1773   -0.4138 H   0  0  0  0  0  0  0  0  0  0  0  0
   -1.5279   -0.8494    1.0047 H   0  0  0  0  0  0  0  0  0  0  0  0
   -1.8241   -1.2834   -0.6917 H   0  0  0  0  0  0  0  0  0  0  0  0
   -5.4523   -1.8070    0.9829 H   0  0  0  0  0  0  0  0  0  0  0  0
   -5.9029   -2.2161   -0.6774 H   0  0  0  0  0  0  0  0  0  0  0  0
   -2.0735   -3.2442    0.7129 H   0  0  0  0  0  0  0  0  0  0  0  0
   -3.1911   -2.4149    1.8035 H   0  0  0  0  0  0  0  0  0  0  0  0
   -5.3150   -4.5480   -0.3288 H   0  0  0  0  0  0  0  0  0  0  0  0
   -4.8726   -4.2093    1.3587 H   0  0  0  0  0  0  0  0  0  0  0  0
   -3.7134   -4.9780    0.2527 H   0  0  0  0  0  0  0  0  0  0  0  0
   -1.1398    0.9179   -0.7606 H   0  0  0  0  0  0  0  0  0  0  0  0
   -4.8723    1.8312    1.1734 H   0  0  0  0  0  0  0  0  0  0  0  0
   -4.2796    4.2216    1.1934 H   0  0  0  0  0  0  0  0  0  0  0  0
   -2.1127    4.9809    0.2845 H   0  0  0  0  0  0  0  0  0  0  0  0
   -0.2022    4.4035   -1.0522 H   0  0  0  0  0  0  0  0  0  0  0  0
    1.7399   -0.7333   -2.6228 H   0  0  0  0  0  0  0  0  0  0  0  0
    2.3729   -4.7255    0.2847 H   0  0  0  0  0  0  0  0  0  0  0  0
    4.4182    1.1657   -1.1211 H   0  0  0  0  0  0  0  0  0  0  0  0
    1.4265   -3.0233   -3.5554 H   0  0  0  0  0  0  0  0  0  0  0  0
    1.7491   -4.9932   -2.0783 H   0  0  0  0  0  0  0  0  0  0  0  0
    4.0105    3.4824   -1.9740 H   0  0  0  0  0  0  0  0  0  0  0  0
    3.6104   -0.0339    4.4851 H   0  0  0  0  0  0  0  0  0  0  0  0
    3.3846   -1.5890    3.7576 H   0  0  0  0  0  0  0  0  0  0  0  0
  1 32  2  0  0  0  0
  2 10  1  0  0  0  0
  2 11  1  0  0  0  0
  2 14  1  0  0  0  0
  3 12  1  0  0  0  0
  3 13  1  0  0  0  0
  3 15  1  0  0  0  0
  4 18  1  0  0  0  0
  4 24  1  0  0  0  0
  4 48  1  0  0  0  0
  5 21  1  0  0  0  0
  5 23  1  0  0  0  0
  5 26  1  0  0  0  0
  6 22  2  0  0  0  0
  6 24  1  0  0  0  0
  7 23  2  0  0  0  0
  7 25  1  0  0  0  0
  8 24  2  0  0  0  0
  8 31  1  0  0  0  0
  9 32  1  0  0  0  0
  9 55  1  0  0  0  0
  9 56  1  0  0  0  0
 10 12  1  0  0  0  0
 10 33  1  0  0  0  0
 10 34  1  0  0  0  0
 11 13  1  0  0  0  0
 11 35  1  0  0  0  0
 11 36  1  0  0  0  0
 12 37  1  0  0  0  0
 12 38  1  0  0  0  0
 13 39  1  0  0  0  0
 13 40  1  0  0  0  0
 14 16  1  0  0  0  0
 14 17  2  0  0  0  0
 15 41  1  0  0  0  0
 15 42  1  0  0  0  0
 15 43  1  0  0  0  0
 16 18  2  0  0  0  0
 16 44  1  0  0  0  0
 17 19  1  0  0  0  0
 17 45  1  0  0  0  0
 18 20  1  0  0  0  0
 19 20  2  0  0  0  0
 19 46  1  0  0  0  0
 20 47  1  0  0  0  0
 21 22  1  0  0  0  0
 21 25  2  0  0  0  0
 22 28  1  0  0  0  0
 23 27  1  0  0  0  0
 25 32  1  0  0  0  0
 26 29  2  0  0  0  0
 26 49  1  0  0  0  0
 27 30  2  0  0  0  0
 27 50  1  0  0  0  0
 28 31  2  0  0  0  0
 28 51  1  0  0  0  0
 29 30  1  0  0  0  0
 29 52  1  0  0  0  0
 30 53  1  0  0  0  0
 31 54  1  0  0  0  0
M  END
> <PUBCHEM_COMPOUND_CID>
49830408

> <PUBCHEM_CONFORMER_RMSD>
1

> <PUBCHEM_CONFORMER_DIVERSEORDER>
1
144
94
65
132
21
14
105
149
142
83
156
50
36
155
161
61
139
174
133
176
179
124
183
64
60
165
85
51
89
157
95
160
109
72
98
116
117
113
29
15
90
185
123
20
181
120
22
32
118
46
104
10
188
192
103
74
143
100
171
147
150
26
134
31
145
67
24
91
79
107
18
172
84
140
159
177
2
167
136
191
189
102
127
170
92
97
71
182
57
137
99
28
148
138
153
78
111
76
66
49
194
88
158
110
58
125
166
40
190
173
146
112
48
37
3
75
63
59
55
168
184
81
80
93
6
169
12
115
187
152
44
128
39
175
70
130
7
77
56
151
186
73
126
131
86
87
135
193
38
62
68
162
42
69
11
19
82
25
108
54
114
141
154
52
122
17
34
129
178
8
96
45
35
121
106
164
23
41
30
180
9
53
13
119
43
27
47
101
16
163
33
5
4

> <PUBCHEM_MMFF94_PARTIAL_CHARGES>
45
1 -0.57
10 0.37
11 0.37
12 0.27
13 0.27
14 0.1
15 0.27
16 -0.15
17 -0.15
18 0.1
19 -0.15
2 -0.84
20 -0.15
21 -0.2
22 0.36
23 0.14
24 0.72
25 0.14
26 -0.18
27 -0.11
28 -0.15
29 -0.15
3 -0.81
30 -0.15
31 0.16
32 0.72
4 -0.6
44 0.15
45 0.15
46 0.15
47 0.15
48 0.4
49 0.15
5 0.33
50 0.15
51 0.15
52 0.15
53 0.15
54 0.15
55 0.37
56 0.37
6 -0.62
7 -0.57
8 -0.62
9 -0.8

> <PUBCHEM_EFFECTIVE_ROTOR_COUNT>
6.2

> <PUBCHEM_PHARMACOPHORE_FEATURES>
13
1 1 acceptor
1 2 cation
1 3 cation
1 4 donor
1 6 acceptor
1 9 donor
3 5 7 23 cation
4 4 6 8 24 cation
5 5 7 21 23 25 rings
6 14 16 17 18 19 20 rings
6 2 3 10 11 12 13 rings
6 5 23 26 27 29 30 rings
6 6 8 22 24 28 31 rings

> <PUBCHEM_HEAVY_ATOM_COUNT>
32

> <PUBCHEM_ATOM_DEF_STEREO_COUNT>
0

> <PUBCHEM_ATOM_UDEF_STEREO_COUNT>
0

> <PUBCHEM_BOND_DEF_STEREO_COUNT>
0

> <PUBCHEM_BOND_UDEF_STEREO_COUNT>
0

> <PUBCHEM_ISOTOPIC_ATOM_COUNT>
0

> <PUBCHEM_COMPONENT_COUNT>
1

> <PUBCHEM_CACTVS_TAUTO_COUNT>
6

> <PUBCHEM_CONFORMER_ID>
02F85A0800000001

> <PUBCHEM_MMFF94_ENERGY>
104.3269

> <PUBCHEM_FEATURE_SELFOVERLAP>
66.091

> <PUBCHEM_SHAPE_FINGERPRINT>
10616163 171 18339091474634860405
11513181 2 18201165356049776559
12788726 201 18336831991562376785
13383661 66 17553806066361891926
13402501 40 17405995054733002839
1361 2 17548422956892001775
140371 6 18410565193949527773
150020 26 17772481088085754031
15219462 58 17059783200095585552
17974551 9 16913113743250232624
18681886 176 18123190366609186320
19315092 285 17098028767191098123
19319366 153 17248640015976683820
20764821 26 18119816802646733359
21133410 62 17397527084871289359
21315764 371 16701167759117740903
21421861 104 18262250992342078049
23559900 14 18341336617338881727
394071 54 17908170976910563251
4280585 95 18122077403339200694
474144 1 17827342582025583288
484985 159 15800956636865066322
5265222 85 16896253716502879846
5309563 4 17979645855423048127
563151 74 16698888273701928282
5895379 119 18409730625552661034
6823239 73 18270977742890198742
7399639 24 18058995289795186779

> <PUBCHEM_SHAPE_MULTIPOLES>
612.83
9.03
6.52
2.13
8.5
1.04
1.42
3.31
1.85
2.69
-2.17
-3.72
0.45
-0.18

> <PUBCHEM_SHAPE_SELFOVERLAP>
1348.073

> <PUBCHEM_SHAPE_VOLUME>
328.6

> <PUBCHEM_COORDINATE_TYPE>
2
5
10

$$$$
