49830871
  -OEChem-10052120443D

 29 31  0     0  0  0  0  0  0999 V2000
    5.0034    1.2668    0.4320 O   0  0  0  0  0  0  0  0  0  0  0  0
   -2.5768    0.7070    0.2419 N   0  0  0  0  0  0  0  0  0  0  0  0
   -1.2245    0.6159    0.3535 N   0  0  0  0  0  0  0  0  0  0  0  0
   -4.6927    0.1546   -0.1884 N   0  0  0  0  0  0  0  0  0  0  0  0
    0.7324   -0.7491    0.0637 C   0  0  0  0  0  0  0  0  0  0  0  0
   -0.7359   -0.5321   -0.0185 C   0  0  0  0  0  0  0  0  0  0  0  0
   -3.4443   -0.2658   -0.2161 C   0  0  0  0  0  0  0  0  0  0  0  0
    1.6058    0.3300   -0.0720 C   0  0  0  0  0  0  0  0  0  0  0  0
    2.9836    0.1261    0.0040 C   0  0  0  0  0  0  0  0  0  0  0  0
   -1.5518   -1.6679   -0.5505 C   0  0  0  0  0  0  0  0  0  0  0  0
    1.2367   -2.0323    0.2755 C   0  0  0  0  0  0  0  0  0  0  0  0
   -2.8765   -1.4913   -0.6268 C   0  0  0  0  0  0  0  0  0  0  0  0
    3.4880   -1.1572    0.2159 C   0  0  0  0  0  0  0  0  0  0  0  0
    2.6145   -2.2363    0.3514 C   0  0  0  0  0  0  0  0  0  0  0  0
   -3.3345    1.7991    0.5737 C   0  0  0  0  0  0  0  0  0  0  0  0
    3.8948    1.2503   -0.1393 C   0  0  0  0  0  0  0  0  0  0  0  0
   -4.6310    1.4342    0.3008 C   0  0  0  0  0  0  0  0  0  0  0  0
    3.5087    2.4479   -1.0009 C   0  0  0  0  0  0  0  0  0  0  0  0
    1.2085    1.3291   -0.2318 H   0  0  0  0  0  0  0  0  0  0  0  0
   -1.1005   -2.5860   -0.9013 H   0  0  0  0  0  0  0  0  0  0  0  0
    0.5931   -2.8941    0.4226 H   0  0  0  0  0  0  0  0  0  0  0  0
   -3.5181   -2.2733   -1.0175 H   0  0  0  0  0  0  0  0  0  0  0  0
    4.5585   -1.3360    0.2756 H   0  0  0  0  0  0  0  0  0  0  0  0
   -2.8976    2.7083    0.9625 H   0  0  0  0  0  0  0  0  0  0  0  0
    3.0075   -3.2342    0.5236 H   0  0  0  0  0  0  0  0  0  0  0  0
   -5.5234    2.0286    0.4318 H   0  0  0  0  0  0  0  0  0  0  0  0
    4.4171    2.9021   -1.4079 H   0  0  0  0  0  0  0  0  0  0  0  0
    2.8910    2.1346   -1.8469 H   0  0  0  0  0  0  0  0  0  0  0  0
    2.9754    3.1809   -0.3908 H   0  0  0  0  0  0  0  0  0  0  0  0
  1 16  2  0  0  0  0
  2  3  1  0  0  0  0
  2  7  1  0  0  0  0
  2 15  1  0  0  0  0
  3  6  2  0  0  0  0
  4  7  2  0  0  0  0
  4 17  1  0  0  0  0
  5  6  1  0  0  0  0
  5  8  2  0  0  0  0
  5 11  1  0  0  0  0
  6 10  1  0  0  0  0
  7 12  1  0  0  0  0
  8  9  1  0  0  0  0
  8 19  1  0  0  0  0
  9 13  2  0  0  0  0
  9 16  1  0  0  0  0
 10 12  2  0  0  0  0
 10 20  1  0  0  0  0
 11 14  2  0  0  0  0
 11 21  1  0  0  0  0
 12 22  1  0  0  0  0
 13 14  1  0  0  0  0
 13 23  1  0  0  0  0
 14 25  1  0  0  0  0
 15 17  2  0  0  0  0
 15 24  1  0  0  0  0
 16 18  1  0  0  0  0
 17 26  1  0  0  0  0
 18 27  1  0  0  0  0
 18 28  1  0  0  0  0
 18 29  1  0  0  0  0
M  END
> <PUBCHEM_COMPOUND_CID>
49830871

> <PUBCHEM_CONFORMER_RMSD>
0.6

> <PUBCHEM_CONFORMER_DIVERSEORDER>
1
16
2
18
17
3
6
7
13
8
14
4
15
5
11
20
12
19
9
10

> <PUBCHEM_MMFF94_PARTIAL_CHARGES>
26
1 -0.57
10 -0.14
11 -0.15
12 -0.11
13 -0.15
14 -0.15
15 -0.3
16 0.42
17 0.08
18 0.06
19 0.15
2 0.51
20 0.15
21 0.15
22 0.15
23 0.15
24 0.15
25 0.15
26 0.15
3 -0.65
4 -0.57
5 0.09
6 0.35
7 0.14
8 -0.15
9 0.09

> <PUBCHEM_EFFECTIVE_ROTOR_COUNT>
2

> <PUBCHEM_PHARMACOPHORE_FEATURES>
6
1 1 acceptor
1 3 acceptor
3 2 4 7 cation
5 2 4 7 15 17 rings
6 2 3 6 7 10 12 rings
6 5 8 9 11 13 14 rings

> <PUBCHEM_HEAVY_ATOM_COUNT>
18

> <PUBCHEM_ATOM_DEF_STEREO_COUNT>
0

> <PUBCHEM_ATOM_UDEF_STEREO_COUNT>
0

> <PUBCHEM_BOND_DEF_STEREO_COUNT>
0

> <PUBCHEM_BOND_UDEF_STEREO_COUNT>
0

> <PUBCHEM_ISOTOPIC_ATOM_COUNT>
0

> <PUBCHEM_COMPONENT_COUNT>
1

> <PUBCHEM_CACTVS_TAUTO_COUNT>
2

> <PUBCHEM_CONFORMER_ID>
02F85BD700000001

> <PUBCHEM_MMFF94_ENERGY>
49.4741

> <PUBCHEM_FEATURE_SELFOVERLAP>
30.582

> <PUBCHEM_SHAPE_FINGERPRINT>
10014705 185 18334288752437180917
10465860 228 18408606942165401870
10616163 171 18341895246307491143
12107183 9 17763181341380705371
12173636 292 18272925025343772135
12633257 1 17241032310730931016
12644460 14 17968090894342296666
13675066 3 17749114353045138077
14415576 193 18412827967104168870
14739800 52 17988060271786422912
14897335 6 18411418414492770354
15196674 1 18412544293183239339
15239154 128 18411139121375283357
15342168 16 17968384557940301788
15442244 35 18195525892006644034
15536298 74 18341613694274147814
15669948 3 17988633125612863095
17492 89 18411700971891780911
17834072 32 18195528091410129901
18186145 218 18260827073007175638
19050596 39 18409726244617609466
20157964 124 18335133143044426429
20645477 70 18341895143207099094
20715895 44 17763178047547808745
21267235 1 18340775844654440619
21503847 285 18335423418129622962
21524375 3 18263077872473061498
21652331 79 18410012113604411045
22079108 93 17749399173996499619
2255824 54 18334575694696736970
22854114 111 18334859389965252506
23402539 116 18272082855572209228
23402655 69 18342738524744514382
23559900 14 17988082158618437942
245318 6 17099760588315794652
2916195 48 17844518015315923720
3545911 37 18410858767263529228
4214541 1 18412824664195027919
4340502 62 17530972371681831923
4409770 3 16316399819660285750
474 4 18187085091653603800
5104073 3 18409448072507757923
543358 83 18340208501276042522
57096353 35 18271236239644397111
633830 44 18409450310539166070
67856867 119 18411689994286785586
7364860 26 18341613664446993958
77779 3 18411982434083082379
84936 182 18342173418865502672
9709674 26 18412831265528873551
9981440 41 18048029959505508176

> <PUBCHEM_SHAPE_MULTIPOLES>
349.62
9.8
2.43
0.76
1.85
0.09
0.06
4.98
-0.23
-1.42
0.16
-0.06
0.09
-1.22

> <PUBCHEM_SHAPE_SELFOVERLAP>
772.889

> <PUBCHEM_SHAPE_VOLUME>
188.1

> <PUBCHEM_COORDINATE_TYPE>
2
5
10

$$$$
