11856995
  -OEChem-10052115183D

 50 53  0     0  0  0  0  0  0999 V2000
  -10.1469    0.6075    1.5044 F   0  0  0  0  0  0  0  0  0  0  0  0
   -8.6669    1.5920    0.2333 F   0  0  0  0  0  0  0  0  0  0  0  0
   -9.9504   -0.0117   -0.5821 F   0  0  0  0  0  0  0  0  0  0  0  0
    7.3651   -1.5170    0.6638 O   0  0  0  0  0  0  0  0  0  0  0  0
    8.7097    1.0843    0.8587 O   0  0  0  0  0  0  0  0  0  0  0  0
   -1.8660    0.0561    0.8699 O   0  0  0  0  0  0  0  0  0  0  0  0
   -8.3093   -0.5622    0.9127 O   0  0  0  0  0  0  0  0  0  0  0  0
    6.4239   -2.5250    0.4940 N   0  0  0  0  0  0  0  0  0  0  0  0
   -0.8503    0.0210   -1.2411 N   0  0  0  0  0  0  0  0  0  0  0  0
    4.0928   -2.5104   -0.0277 N   0  0  0  0  0  0  0  0  0  0  0  0
   -3.1444   -0.1903   -1.0729 N   0  0  0  0  0  0  0  0  0  0  0  0
    4.6187    0.6266   -0.0393 C   0  0  0  0  0  0  0  0  0  0  0  0
    5.4299   -0.4947    0.1884 C   0  0  0  0  0  0  0  0  0  0  0  0
    3.2179    0.4705   -0.3470 C   0  0  0  0  0  0  0  0  0  0  0  0
    6.7696   -0.3069    0.4809 C   0  0  0  0  0  0  0  0  0  0  0  0
    5.2071    1.8966    0.0405 C   0  0  0  0  0  0  0  0  0  0  0  0
    7.3863    0.9377    0.5682 C   0  0  0  0  0  0  0  0  0  0  0  0
    5.2797   -1.8947    0.2126 C   0  0  0  0  0  0  0  0  0  0  0  0
    6.5655    2.0469    0.3389 C   0  0  0  0  0  0  0  0  0  0  0  0
    2.2720    0.4442    0.6811 C   0  0  0  0  0  0  0  0  0  0  0  0
    2.8006    0.3463   -1.6743 C   0  0  0  0  0  0  0  0  0  0  0  0
    0.5045    0.1708   -0.9432 C   0  0  0  0  0  0  0  0  0  0  0  0
    0.9175    0.2946    0.3835 C   0  0  0  0  0  0  0  0  0  0  0  0
    1.4460    0.1969   -1.9720 C   0  0  0  0  0  0  0  0  0  0  0  0
   -1.9508   -0.0291   -0.3511 C   0  0  0  0  0  0  0  0  0  0  0  0
   -4.4622   -0.2858   -0.5667 C   0  0  0  0  0  0  0  0  0  0  0  0
    9.6160    1.1033   -0.2420 C   0  0  0  0  0  0  0  0  0  0  0  0
   -5.5177   -0.4447   -1.4492 C   0  0  0  0  0  0  0  0  0  0  0  0
   -4.6688   -0.2167    0.8012 C   0  0  0  0  0  0  0  0  0  0  0  0
   -7.0420   -0.4697    0.4253 C   0  0  0  0  0  0  0  0  0  0  0  0
   -6.8168   -0.5373   -0.9498 C   0  0  0  0  0  0  0  0  0  0  0  0
   -5.9679   -0.3094    1.3008 C   0  0  0  0  0  0  0  0  0  0  0  0
   -9.2628    0.4105    0.5001 C   0  0  0  0  0  0  0  0  0  0  0  0
    4.6089    2.7898   -0.1301 H   0  0  0  0  0  0  0  0  0  0  0  0
    6.9867    3.0483    0.3928 H   0  0  0  0  0  0  0  0  0  0  0  0
    2.5780    0.5390    1.7206 H   0  0  0  0  0  0  0  0  0  0  0  0
    3.5210    0.3639   -2.4889 H   0  0  0  0  0  0  0  0  0  0  0  0
    0.2523    0.2838    1.2349 H   0  0  0  0  0  0  0  0  0  0  0  0
    1.1384    0.1013   -3.0103 H   0  0  0  0  0  0  0  0  0  0  0  0
   -1.0734   -0.0630   -2.2298 H   0  0  0  0  0  0  0  0  0  0  0  0
    3.2276   -2.0289   -0.2403 H   0  0  0  0  0  0  0  0  0  0  0  0
    4.0123   -3.5225   -0.0039 H   0  0  0  0  0  0  0  0  0  0  0  0
   -3.0605   -0.2469   -2.0848 H   0  0  0  0  0  0  0  0  0  0  0  0
    9.3955    1.9455   -0.9055 H   0  0  0  0  0  0  0  0  0  0  0  0
    9.5633    0.1620   -0.7982 H   0  0  0  0  0  0  0  0  0  0  0  0
   10.6298    1.2221    0.1501 H   0  0  0  0  0  0  0  0  0  0  0  0
   -5.3531   -0.5000   -2.5216 H   0  0  0  0  0  0  0  0  0  0  0  0
   -3.8950   -0.0935    1.5438 H   0  0  0  0  0  0  0  0  0  0  0  0
   -7.6433   -0.6692   -1.6424 H   0  0  0  0  0  0  0  0  0  0  0  0
   -6.1386   -0.2561    2.3728 H   0  0  0  0  0  0  0  0  0  0  0  0
  1 33  1  0  0  0  0
  2 33  1  0  0  0  0
  3 33  1  0  0  0  0
  4  8  1  0  0  0  0
  4 15  1  0  0  0  0
  5 17  1  0  0  0  0
  5 27  1  0  0  0  0
  6 25  2  0  0  0  0
  7 30  1  0  0  0  0
  7 33  1  0  0  0  0
  8 18  2  0  0  0  0
  9 22  1  0  0  0  0
  9 25  1  0  0  0  0
  9 40  1  0  0  0  0
 10 18  1  0  0  0  0
 10 41  1  0  0  0  0
 10 42  1  0  0  0  0
 11 25  1  0  0  0  0
 11 26  1  0  0  0  0
 11 43  1  0  0  0  0
 12 13  2  0  0  0  0
 12 14  1  0  0  0  0
 12 16  1  0  0  0  0
 13 15  1  0  0  0  0
 13 18  1  0  0  0  0
 14 20  2  0  0  0  0
 14 21  1  0  0  0  0
 15 17  2  0  0  0  0
 16 19  2  0  0  0  0
 16 34  1  0  0  0  0
 17 19  1  0  0  0  0
 19 35  1  0  0  0  0
 20 23  1  0  0  0  0
 20 36  1  0  0  0  0
 21 24  2  0  0  0  0
 21 37  1  0  0  0  0
 22 23  2  0  0  0  0
 22 24  1  0  0  0  0
 23 38  1  0  0  0  0
 24 39  1  0  0  0  0
 26 28  2  0  0  0  0
 26 29  1  0  0  0  0
 27 44  1  0  0  0  0
 27 45  1  0  0  0  0
 27 46  1  0  0  0  0
 28 31  1  0  0  0  0
 28 47  1  0  0  0  0
 29 32  2  0  0  0  0
 29 48  1  0  0  0  0
 30 31  2  0  0  0  0
 30 32  1  0  0  0  0
 31 49  1  0  0  0  0
 32 50  1  0  0  0  0
M  END
> <PUBCHEM_COMPOUND_CID>
11856995

> <PUBCHEM_CONFORMER_RMSD>
1

> <PUBCHEM_CONFORMER_DIVERSEORDER>
1
6
12
5
9
10
3
7
11
2
8
4

> <PUBCHEM_MMFF94_PARTIAL_CHARGES>
44
1 -0.34
10 -0.88
11 -0.55
15 0.14
16 -0.15
17 0.08
18 0.37
19 -0.15
2 -0.34
20 -0.15
21 -0.15
22 0.12
23 -0.15
24 -0.15
25 0.69
26 0.12
27 0.28
28 -0.15
29 -0.15
3 -0.34
30 0.08
31 -0.15
32 -0.15
33 1.3
34 0.15
35 0.15
36 0.15
37 0.15
38 0.15
39 0.15
4 -0.02
40 0.37
41 0.4
42 0.4
43 0.37
47 0.15
48 0.15
49 0.15
5 -0.36
50 0.15
6 -0.57
7 -0.36
8 -0.41
9 -0.55

> <PUBCHEM_EFFECTIVE_ROTOR_COUNT>
8

> <PUBCHEM_PHARMACOPHORE_FEATURES>
11
1 10 donor
1 11 donor
1 5 acceptor
1 6 acceptor
1 7 acceptor
1 9 donor
3 8 10 18 cation
5 4 8 13 15 18 rings
6 12 13 15 16 17 19 rings
6 14 20 21 22 23 24 rings
6 26 28 29 30 31 32 rings

> <PUBCHEM_HEAVY_ATOM_COUNT>
33

> <PUBCHEM_ATOM_DEF_STEREO_COUNT>
0

> <PUBCHEM_ATOM_UDEF_STEREO_COUNT>
0

> <PUBCHEM_BOND_DEF_STEREO_COUNT>
0

> <PUBCHEM_BOND_UDEF_STEREO_COUNT>
0

> <PUBCHEM_ISOTOPIC_ATOM_COUNT>
0

> <PUBCHEM_COMPONENT_COUNT>
1

> <PUBCHEM_CACTVS_TAUTO_COUNT>
12

> <PUBCHEM_CONFORMER_ID>
00B4EC6300000001

> <PUBCHEM_MMFF94_ENERGY>
113.4849

> <PUBCHEM_FEATURE_SELFOVERLAP>
55.969

> <PUBCHEM_SHAPE_FINGERPRINT>
10 15 17703792522466233485
10299344 5 18131911576406888758
10533779 47 18187660055237571627
11135926 11 16950555606923543587
11181472 205 18059584550596943657
11315181 36 14405190578357767239
11719270 70 16559034874062262758
12082328 90 8142094152544225195
12089408 11 17847058887660521935
12144603 126 18131633404228419177
13553643 46 18343022186435748401
13560911 43 17489873752164120201
13617811 41 15357697466428403334
13673619 4 15357696405623924119
14040222 383 16917062309382552975
14068700 675 14201394975839391127
14251764 18 17775563156384728462
14251764 46 17822009821766201897
14294032 229 16415759712944399604
15183329 4 16272214098193649043
15328684 2 17417817171195778810
15392192 104 17561083630757664230
15419008 91 17023446651268831693
15510794 2 17749106699097146059
1577012 14 17775560961851736431
15840311 113 17703507796817186240
16728433 110 13262399990029888078
1754911 235 11600006536204990609
1818759 1 14418132911794270425
19315958 150 18333452058364012922
20105231 36 17022903432416272954
20554085 129 15554445189135355950
21267235 1 15719393936893395053
21362267 313 17774167786573201003
23569943 247 16881022319414610866
23576562 1 11815312916183381331
246663 6 15140961760188686221
24771293 8 15913059703297128137
24893992 56 14117511052018188639
249057 3 16081090407158426267
335507 130 17821726156561801846
3383291 50 16877946053246407787
4340502 62 18410007763472407990
5937810 71 11527685059577805315
6201320 215 18269554932960755201
6691757 9 16415483788183579487

> <PUBCHEM_SHAPE_MULTIPOLES>
613.9
35.32
1.59
1.3
47.08
0.62
-0.37
-5.06
10.05
-4.16
0.26
1.26
-0.03
-0.6

> <PUBCHEM_SHAPE_SELFOVERLAP>
1357.101

> <PUBCHEM_SHAPE_VOLUME>
330.8

> <PUBCHEM_COORDINATE_TYPE>
2
5
10

$$$$
