136027064
  -OEChem-10052115183D

 40 43  0     0  0  0  0  0  0999 V2000
   -0.2977    1.2315    0.0011 N   0  0  0  0  0  0  0  0  0  0  0  0
    0.3480   -0.8951    0.0008 N   0  0  0  0  0  0  0  0  0  0  0  0
    3.8526    2.0254   -0.0003 N   0  0  0  0  0  0  0  0  0  0  0  0
    2.5096    2.0617    0.0003 N   0  0  0  0  0  0  0  0  0  0  0  0
   -5.1954    0.1593   -0.0006 C   0  0  0  0  0  0  0  0  0  0  0  0
   -3.7391   -0.1716    0.0000 C   0  0  0  0  0  0  0  0  0  0  0  0
   -5.9066   -0.4251    1.2582 C   0  0  0  0  0  0  0  0  0  0  0  0
   -5.5351    1.6859   -0.0018 C   0  0  0  0  0  0  0  0  0  0  0  0
   -5.9062   -0.4267   -1.2589 C   0  0  0  0  0  0  0  0  0  0  0  0
   -2.8015    0.8665    0.0003 C   0  0  0  0  0  0  0  0  0  0  0  0
   -1.4560    0.4973    0.0006 C   0  0  0  0  0  0  0  0  0  0  0  0
   -3.3387   -1.5097    0.0001 C   0  0  0  0  0  0  0  0  0  0  0  0
   -1.0263   -0.8268    0.0005 C   0  0  0  0  0  0  0  0  0  0  0  0
   -1.9819   -1.8569    0.0002 C   0  0  0  0  0  0  0  0  0  0  0  0
    0.7517    0.3555    0.0011 C   0  0  0  0  0  0  0  0  0  0  0  0
    2.1666    0.7717    0.0008 C   0  0  0  0  0  0  0  0  0  0  0  0
    3.2828   -0.0922    0.0002 C   0  0  0  0  0  0  0  0  0  0  0  0
    4.3797    0.7621   -0.0007 C   0  0  0  0  0  0  0  0  0  0  0  0
    3.4924   -1.4814    0.0007 C   0  0  0  0  0  0  0  0  0  0  0  0
    5.6999    0.3066   -0.0014 C   0  0  0  0  0  0  0  0  0  0  0  0
    4.8088   -1.9592    0.0000 C   0  0  0  0  0  0  0  0  0  0  0  0
    5.8925   -1.0787   -0.0014 C   0  0  0  0  0  0  0  0  0  0  0  0
   -5.4477   -0.0423    2.1775 H   0  0  0  0  0  0  0  0  0  0  0  0
   -5.8501   -1.5186    1.2914 H   0  0  0  0  0  0  0  0  0  0  0  0
   -6.9693   -0.1566    1.2759 H   0  0  0  0  0  0  0  0  0  0  0  0
   -6.6199    1.8484   -0.0024 H   0  0  0  0  0  0  0  0  0  0  0  0
   -5.1370    2.1862   -0.8924 H   0  0  0  0  0  0  0  0  0  0  0  0
   -5.1379    2.1875    0.8884 H   0  0  0  0  0  0  0  0  0  0  0  0
   -5.8500   -1.5203   -1.2905 H   0  0  0  0  0  0  0  0  0  0  0  0
   -5.4469   -0.0454   -2.1786 H   0  0  0  0  0  0  0  0  0  0  0  0
   -6.9688   -0.1580   -1.2775 H   0  0  0  0  0  0  0  0  0  0  0  0
   -3.0582    1.9176    0.0003 H   0  0  0  0  0  0  0  0  0  0  0  0
   -4.0678   -2.3159   -0.0001 H   0  0  0  0  0  0  0  0  0  0  0  0
   -1.6806   -2.8996    0.0002 H   0  0  0  0  0  0  0  0  0  0  0  0
   -0.2348    2.2411    0.0013 H   0  0  0  0  0  0  0  0  0  0  0  0
    4.3543    2.9047   -0.0007 H   0  0  0  0  0  0  0  0  0  0  0  0
    2.6666   -2.1856    0.0016 H   0  0  0  0  0  0  0  0  0  0  0  0
    6.5401    0.9919   -0.0021 H   0  0  0  0  0  0  0  0  0  0  0  0
    4.9884   -3.0313    0.0003 H   0  0  0  0  0  0  0  0  0  0  0  0
    6.9044   -1.4761   -0.0020 H   0  0  0  0  0  0  0  0  0  0  0  0
  1 11  1  0  0  0  0
  1 15  1  0  0  0  0
  1 35  1  0  0  0  0
  2 13  1  0  0  0  0
  2 15  2  0  0  0  0
  3  4  1  0  0  0  0
  3 18  1  0  0  0  0
  3 36  1  0  0  0  0
  4 16  2  0  0  0  0
  5  6  1  0  0  0  0
  5  7  1  0  0  0  0
  5  8  1  0  0  0  0
  5  9  1  0  0  0  0
  6 10  2  0  0  0  0
  6 12  1  0  0  0  0
  7 23  1  0  0  0  0
  7 24  1  0  0  0  0
  7 25  1  0  0  0  0
  8 26  1  0  0  0  0
  8 27  1  0  0  0  0
  8 28  1  0  0  0  0
  9 29  1  0  0  0  0
  9 30  1  0  0  0  0
  9 31  1  0  0  0  0
 10 11  1  0  0  0  0
 10 32  1  0  0  0  0
 11 13  2  0  0  0  0
 12 14  2  0  0  0  0
 12 33  1  0  0  0  0
 13 14  1  0  0  0  0
 14 34  1  0  0  0  0
 15 16  1  0  0  0  0
 16 17  1  0  0  0  0
 17 18  1  0  0  0  0
 17 19  2  0  0  0  0
 18 20  2  0  0  0  0
 19 21  1  0  0  0  0
 19 37  1  0  0  0  0
 20 22  1  0  0  0  0
 20 38  1  0  0  0  0
 21 22  2  0  0  0  0
 21 39  1  0  0  0  0
 22 40  1  0  0  0  0
M  END
> <PUBCHEM_COMPOUND_CID>
136027064

> <PUBCHEM_CONFORMER_RMSD>
0.6

> <PUBCHEM_CONFORMER_DIVERSEORDER>
1
2
3
4
5

> <PUBCHEM_MMFF94_PARTIAL_CHARGES>
27
1 0.03
10 -0.15
11 -0.15
12 -0.15
13 0.23
14 -0.15
15 0.19
16 0.29
18 -0.15
19 -0.15
2 -0.57
20 -0.15
21 -0.15
22 -0.15
3 0.3
32 0.15
33 0.15
34 0.15
35 0.27
36 0.27
37 0.15
38 0.15
39 0.15
4 -0.71
40 0.15
5 0.14
6 -0.14

> <PUBCHEM_EFFECTIVE_ROTOR_COUNT>
2

> <PUBCHEM_PHARMACOPHORE_FEATURES>
9
1 1 donor
1 3 donor
1 4 acceptor
3 1 2 15 cation
4 5 7 8 9 hydrophobe
5 1 2 11 13 15 rings
5 3 4 16 17 18 rings
6 17 18 19 20 21 22 rings
6 6 10 11 12 13 14 rings

> <PUBCHEM_HEAVY_ATOM_COUNT>
22

> <PUBCHEM_ATOM_DEF_STEREO_COUNT>
0

> <PUBCHEM_ATOM_UDEF_STEREO_COUNT>
0

> <PUBCHEM_BOND_DEF_STEREO_COUNT>
0

> <PUBCHEM_BOND_UDEF_STEREO_COUNT>
0

> <PUBCHEM_ISOTOPIC_ATOM_COUNT>
0

> <PUBCHEM_COMPONENT_COUNT>
1

> <PUBCHEM_CACTVS_TAUTO_COUNT>
-1

> <PUBCHEM_CONFORMER_ID>
081B9BB800000001

> <PUBCHEM_MMFF94_ENERGY>
50.9515

> <PUBCHEM_FEATURE_SELFOVERLAP>
45.869

> <PUBCHEM_SHAPE_FINGERPRINT>
10595046 47 18270397312425274013
10763959 59 17894906322076242789
11089746 13 18201997746206984193
11315181 36 17632579365800195593
11405975 8 18340487862722681330
12107183 9 17764594213758944696
12166972 35 18412266155180457177
12236239 1 17917991676412006141
12403259 415 18113891650353884917
12516196 113 17847057787885046232
12788726 201 17632026264265177032
12838862 33 18339061754136054210
13167372 99 18272939276003387089
13167823 11 18411979191140174318
13533116 47 17989488490119992906
13675066 3 18040720307192931947
13862211 1 18342173375915595527
14251764 18 18202004348099212763
14341114 176 18410298012275928912
15099037 51 18411417302106855271
15183329 4 18411416202595097559
15196674 1 18410575127613011715
15788980 27 18335139804142946415
17349148 13 17989209239551024693
17844677 252 18335990817643094421
17857418 61 18413668002524827242
1813 80 16877943845285220324
19141452 34 18411418440194216951
19489759 90 15554450687004405747
200 152 17988922275342281203
20645477 70 18412826859324509406
21033648 29 18040980857057964965
21065198 57 18338517567950419144
21130935 74 18059856164387018118
21236236 1 18340486660844514353
21267235 1 18339649949870454542
21279426 13 18265614286531038821
21859007 373 17970322880939608708
220451 1 18131074856769359831
221357 26 18408880720265669964
2215653 11 18410853252684049870
22224240 67 17203319015049394446
23081809 10 17988644120786980853
23402539 116 18131064927237709053
23522609 53 18195277518153778509
23536379 177 18341613702753104865
23559900 14 18339919419849200632
29717793 49 17989211438964579796
300161 21 18341607144380254738
3004659 81 18334295349633398478
3014965 18 18261386707166787914
335352 9 18410855447248574071
350125 39 18410294670638684140
3545911 37 18410575102296687200
38695281 34 18272087163272102111
4015057 19 18340198717594016257
4073 2 18041284378270357850
4214541 1 18410573976640839201
46194498 28 17603588534817127940
465052 167 18413394224435713278
5104073 3 18339924925649069643
542803 24 17275107231941110568
59755656 215 18260265213901646382
59755656 520 18187361043951692483
633830 44 17531524394526230154
7226269 152 17917714561497345921
7495541 125 17274815908857545995
77779 3 18409730702888354746
9709674 26 18262804111094402674
9995097 60 18410572872760261286
9996256 80 18340770429418033715

> <PUBCHEM_SHAPE_MULTIPOLES>
432.83
15.88
1.9
0.75
2.2
0.07
0
-0.93
0.01
-1.07
0
0.9
-0.08
0

> <PUBCHEM_SHAPE_SELFOVERLAP>
970.135

> <PUBCHEM_SHAPE_VOLUME>
231

> <PUBCHEM_COORDINATE_TYPE>
2
5
10

$$$$
