49830589
  -OEChem-10052120443D

 52 55  0     1  0  0  0  0  0999 V2000
    0.5343   -0.8417    0.3081 S   0  0  0  0  0  0  0  0  0  0  0  0
   -2.1495   -3.4070   -0.8449 O   0  0  0  0  0  0  0  0  0  0  0  0
   -6.6749    1.9812   -1.4391 O   0  0  0  0  0  0  0  0  0  0  0  0
   -2.3422   -1.4168    0.3295 N   0  0  0  0  0  0  0  0  0  0  0  0
    6.2966    2.6739   -0.0050 N   0  0  0  0  0  0  0  0  0  0  0  0
    6.3759    1.9454    1.1254 N   0  0  0  0  0  0  0  0  0  0  0  0
   -3.7758   -1.4648    0.5069 C   0  0  2  0  0  0  0  0  0  0  0  0
    3.2244   -0.4801    0.1846 C   0  0  0  0  0  0  0  0  0  0  0  0
    2.1051   -1.3243   -0.1732 C   0  0  0  0  0  0  0  0  0  0  0  0
    4.6881    1.2521   -0.2278 C   0  0  0  0  0  0  0  0  0  0  0  0
    2.0899   -2.5116   -0.8715 C   0  0  0  0  0  0  0  0  0  0  0  0
   -4.3746   -0.0749    0.5270 C   0  0  0  0  0  0  0  0  0  0  0  0
    3.6035    0.5347   -0.7162 C   0  0  0  0  0  0  0  0  0  0  0  0
   -0.1712   -2.2228   -0.4179 C   0  0  0  0  0  0  0  0  0  0  0  0
    5.3828    1.0447    1.0204 C   0  0  0  0  0  0  0  0  0  0  0  0
    5.2982    2.3002   -0.8565 C   0  0  0  0  0  0  0  0  0  0  0  0
    0.7712   -3.0321   -1.0135 C   0  0  0  0  0  0  0  0  0  0  0  0
    3.8799   -0.7257    1.4322 C   0  0  0  0  0  0  0  0  0  0  0  0
   -4.1374   -2.2744    1.7505 C   0  0  0  0  0  0  0  0  0  0  0  0
   -1.5852   -2.3998   -0.3452 C   0  0  0  0  0  0  0  0  0  0  0  0
    4.9820    0.0229    1.9007 C   0  0  0  0  0  0  0  0  0  0  0  0
   -5.2602    0.3174   -0.4768 C   0  0  0  0  0  0  0  0  0  0  0  0
    3.2934   -3.1845   -1.4191 C   0  0  0  0  0  0  0  0  0  0  0  0
   -4.0404    0.8140    1.5489 C   0  0  0  0  0  0  0  0  0  0  0  0
    5.0678    2.9872   -2.1382 C   0  0  0  0  0  0  0  0  0  0  0  0
   -5.8116    1.5985   -0.4588 C   0  0  0  0  0  0  0  0  0  0  0  0
   -4.5917    2.0952    1.5667 C   0  0  0  0  0  0  0  0  0  0  0  0
   -5.4775    2.4875    0.5630 C   0  0  0  0  0  0  0  0  0  0  0  0
   -7.2008    3.3053   -1.3604 C   0  0  0  0  0  0  0  0  0  0  0  0
   -4.1859   -2.0087   -0.3537 H   0  0  0  0  0  0  0  0  0  0  0  0
    3.1083    0.7198   -1.6602 H   0  0  0  0  0  0  0  0  0  0  0  0
   -1.8364   -0.6413    0.7489 H   0  0  0  0  0  0  0  0  0  0  0  0
    0.5274   -3.9542   -1.5270 H   0  0  0  0  0  0  0  0  0  0  0  0
    3.5200   -1.5355    2.0687 H   0  0  0  0  0  0  0  0  0  0  0  0
   -3.6924   -1.8524    2.6586 H   0  0  0  0  0  0  0  0  0  0  0  0
   -3.7717   -3.3037    1.6632 H   0  0  0  0  0  0  0  0  0  0  0  0
   -5.2229   -2.3136    1.8937 H   0  0  0  0  0  0  0  0  0  0  0  0
    5.4638   -0.1797    2.8480 H   0  0  0  0  0  0  0  0  0  0  0  0
   -5.5264   -0.3677   -1.2778 H   0  0  0  0  0  0  0  0  0  0  0  0
    3.8043   -2.5371   -2.1396 H   0  0  0  0  0  0  0  0  0  0  0  0
    3.9960   -3.4336   -0.6170 H   0  0  0  0  0  0  0  0  0  0  0  0
    3.0340   -4.1152   -1.9345 H   0  0  0  0  0  0  0  0  0  0  0  0
   -3.3491    0.5290    2.3373 H   0  0  0  0  0  0  0  0  0  0  0  0
    6.9668    3.4220   -0.1309 H   0  0  0  0  0  0  0  0  0  0  0  0
    4.0597    3.4130   -2.1699 H   0  0  0  0  0  0  0  0  0  0  0  0
    5.7804    3.8031   -2.2980 H   0  0  0  0  0  0  0  0  0  0  0  0
    5.1694    2.2864   -2.9731 H   0  0  0  0  0  0  0  0  0  0  0  0
   -4.3299    2.7871    2.3621 H   0  0  0  0  0  0  0  0  0  0  0  0
   -5.8684    3.4965    0.6377 H   0  0  0  0  0  0  0  0  0  0  0  0
   -7.8071    3.4445   -0.4589 H   0  0  0  0  0  0  0  0  0  0  0  0
   -6.4102    4.0581   -1.4494 H   0  0  0  0  0  0  0  0  0  0  0  0
   -7.8680    3.4396   -2.2182 H   0  0  0  0  0  0  0  0  0  0  0  0
  1  9  1  0  0  0  0
  1 14  1  0  0  0  0
  2 20  2  0  0  0  0
  3 26  1  0  0  0  0
  3 29  1  0  0  0  0
  4  7  1  0  0  0  0
  4 20  1  0  0  0  0
  4 32  1  0  0  0  0
  5  6  1  0  0  0  0
  5 16  1  0  0  0  0
  5 44  1  0  0  0  0
  6 15  2  0  0  0  0
  7 12  1  0  0  0  0
  7 19  1  0  0  0  0
  7 30  1  0  0  0  0
  8  9  1  0  0  0  0
  8 13  2  0  0  0  0
  8 18  1  0  0  0  0
  9 11  2  0  0  0  0
 10 13  1  0  0  0  0
 10 15  1  0  0  0  0
 10 16  2  0  0  0  0
 11 17  1  0  0  0  0
 11 23  1  0  0  0  0
 12 22  2  0  0  0  0
 12 24  1  0  0  0  0
 13 31  1  0  0  0  0
 14 17  2  0  0  0  0
 14 20  1  0  0  0  0
 15 21  1  0  0  0  0
 16 25  1  0  0  0  0
 17 33  1  0  0  0  0
 18 21  2  0  0  0  0
 18 34  1  0  0  0  0
 19 35  1  0  0  0  0
 19 36  1  0  0  0  0
 19 37  1  0  0  0  0
 21 38  1  0  0  0  0
 22 26  1  0  0  0  0
 22 39  1  0  0  0  0
 23 40  1  0  0  0  0
 23 41  1  0  0  0  0
 23 42  1  0  0  0  0
 24 27  2  0  0  0  0
 24 43  1  0  0  0  0
 25 45  1  0  0  0  0
 25 46  1  0  0  0  0
 25 47  1  0  0  0  0
 26 28  2  0  0  0  0
 27 28  1  0  0  0  0
 27 48  1  0  0  0  0
 28 49  1  0  0  0  0
 29 50  1  0  0  0  0
 29 51  1  0  0  0  0
 29 52  1  0  0  0  0
M  END
> <PUBCHEM_COMPOUND_CID>
49830589

> <PUBCHEM_CONFORMER_RMSD>
0.8

> <PUBCHEM_CONFORMER_DIVERSEORDER>
2
151
275
91
211
291
230
93
17
118
402
90
216
419
62
43
285
150
3
141
355
163
367
271
218
311
124
240
56
107
426
129
250
258
358
23
361
18
169
323
189
379
29
166
49
401
427
380
416
234
11
44
147
181
336
335
383
406
415
338
176
208
84
57
389
106
5
394
301
41
278
315
286
421
52
14
21
69
164
412
103
306
341
125
331
24
349
392
187
418
409
66
80
309
205
59
294
400
67
77
269
424
372
15
342
259
326
330
174
386
423
144
382
265
214
388
95
74
303
376
34
217
354
126
38
223
51
19
373
16
257
289
360
404
86
121
420
98
196
357
170
346
128
96
384
204
270
314
8
127
120
266
200
83
403
186
267
378
410
64
1
313
206
399
279
428
381
22
136
322
247
81
131
299
155
75
241
370
40
268
68
253
273
123
318
76
422
229
215
325
35
302
391
351
194
71
287
397
368
142
65
347
246
283
261
260
158
243
221
327
110
272
63
290
244
7
340
281
300
73
13
280
113
255
55
417
296
398
256
227
348
352
390
179
224
135
251
359
9
264
407
6
122
193
209
233
408
89
295
159
37
366
385
203
413
112
165
191
39
387
222
293
282
207
182
308
168
405
202
50
371
139
395
157
109
58
111
108
369
377
312
172
363
148
171
140
324
70
329
149
138
248
143
12
32
79
101
393
31
310
414
210
226
292
320
184
30
10
102
252
137
201
185
298
99
245
334
365
26
82
198
304
317
262
343
117
160
396
177
45
332
374
180
197
236
94
277
337
146
353
192
364
72
60
316
319
362
105
249
133
33
162
350
356
232
100
284
36
199
116
130
239
212
274
288
145
425
153
85
242
328
154
183
78
321
152
254
228
161
195
237
220
344
134
27
190
104
54
339
42
47
307
92
411
87
219
119
175
276
97
213
305
238
235
231
375
88
48
28
115
61
188
333
46
297
263
225
20
178
114
4
167
25
345
156
132
53
173

> <PUBCHEM_MMFF94_PARTIAL_CHARGES>
37
1 -0.08
11 -0.18
12 -0.14
13 -0.15
14 -0.05
15 0.29
16 -0.33
17 -0.15
18 -0.15
2 -0.57
20 0.71
21 -0.15
22 -0.15
23 0.18
24 -0.15
25 0.18
26 0.08
27 -0.15
28 -0.15
29 0.28
3 -0.36
31 0.15
32 0.37
33 0.15
34 0.15
38 0.15
39 0.15
4 -0.73
43 0.15
44 0.27
48 0.15
49 0.15
5 0.3
6 -0.71
7 0.44
8 0.05
9 -0.01

> <PUBCHEM_EFFECTIVE_ROTOR_COUNT>
6

> <PUBCHEM_PHARMACOPHORE_FEATURES>
9
1 2 acceptor
1 3 acceptor
1 4 donor
1 5 donor
1 6 acceptor
5 1 9 11 14 17 rings
5 5 6 10 15 16 rings
6 12 22 24 26 27 28 rings
6 8 10 13 15 18 21 rings

> <PUBCHEM_HEAVY_ATOM_COUNT>
29

> <PUBCHEM_ATOM_DEF_STEREO_COUNT>
0

> <PUBCHEM_ATOM_UDEF_STEREO_COUNT>
1

> <PUBCHEM_BOND_DEF_STEREO_COUNT>
0

> <PUBCHEM_BOND_UDEF_STEREO_COUNT>
0

> <PUBCHEM_ISOTOPIC_ATOM_COUNT>
0

> <PUBCHEM_COMPONENT_COUNT>
1

> <PUBCHEM_CACTVS_TAUTO_COUNT>
9

> <PUBCHEM_CONFORMER_ID>
02F85ABD00000002

> <PUBCHEM_MMFF94_ENERGY>
80.7088

> <PUBCHEM_FEATURE_SELFOVERLAP>
45.805

> <PUBCHEM_SHAPE_FINGERPRINT>
10883706 89 18041828516493850290
12107183 9 18337096892424394266
12422481 6 17894911840998090900
12661589 4 10879982550051354356
12975358 362 18190479190014111221
13878862 14 18268698420736326070
14251764 30 10663520626950507953
14294032 229 18058455472984358535
14790565 3 18196378245878823588
14848178 96 18271530792981283019
14904385 31 18335415746991608797
15513586 35 17462852304238617853
16120349 189 18409725162623370359
16708801 149 18198058080202417985
17134984 74 12103840177459802364
19053607 189 18342730784865833641
20511986 3 18334004021432415000
20691028 202 18128832867199374225
20715895 44 18410570643672189178
21033648 29 17895764981144534693
21302155 148 18410016575859030352
21585481 104 14620804777908994569
21599406 157 14476963376280870473
21968339 14 16774081739854283486
22033318 11 17968086522192651040
22122407 14 17896608477750333968
23559900 14 18268160759704077534
24204213 265 17343774890746959566
25025965 108 14256627766879727668
2748736 6 18411411791938348389
2838139 119 18129940199846323542
312425 54 16515399668434297394
3862424 121 12893919606495579429
3918712 181 18201147819287428185
392239 28 16443615922038662962
4144715 1 18187656850606718010
44249763 50 17130694158161696114
474113 269 10737870703376525385
5104073 3 17894629270562302106
5372103 7 17969482842162623013
60123966 16 18129385903893672254
6036956 94 18408892815374402813
6697151 62 17909834227958907095
7808743 9 18270683181116891130
9849439 229 18410579487242486431

> <PUBCHEM_SHAPE_MULTIPOLES>
573.97
19.34
4.54
1.71
9.98
0.39
0.16
-22.52
-0.35
0.4
-2.09
-0.41
-0.48
1.18

> <PUBCHEM_SHAPE_SELFOVERLAP>
1242.128

> <PUBCHEM_SHAPE_VOLUME>
319.1

> <PUBCHEM_COORDINATE_TYPE>
2
5
10

$$$$
