9869943
  -OEChem-10052120443D

 60 63  0     0  0  0  0  0  0999 V2000
   -6.0372   -0.2000    2.5627 Cl  0  0  0  0  0  0  0  0  0  0  0  0
   -5.0048   -1.3293   -2.6778 Cl  0  0  0  0  0  0  0  0  0  0  0  0
    0.7234   -1.7957    0.8925 O   0  0  0  0  0  0  0  0  0  0  0  0
   -1.9490   -0.6336    0.3726 N   0  0  0  0  0  0  0  0  0  0  0  0
    2.5187   -0.4477    0.7495 N   0  0  0  0  0  0  0  0  0  0  0  0
   -3.1928    1.1275   -0.1520 N   0  0  0  0  0  0  0  0  0  0  0  0
    7.4392   -0.9101   -0.5120 N   0  0  0  0  0  0  0  0  0  0  0  0
   -4.2777   -0.9768    0.2330 N   0  0  0  0  0  0  0  0  0  0  0  0
   -1.0593    0.4012    0.2161 C   0  0  0  0  0  0  0  0  0  0  0  0
    0.3362    0.4985    0.3242 C   0  0  0  0  0  0  0  0  0  0  0  0
    0.9460    1.7478    0.0919 C   0  0  0  0  0  0  0  0  0  0  0  0
   -1.8658    1.4875   -0.1111 C   0  0  0  0  0  0  0  0  0  0  0  0
    2.4322    1.8686    0.2035 C   0  0  0  0  0  0  0  0  0  0  0  0
    3.1433    0.7635    0.5273 C   0  0  0  0  0  0  0  0  0  0  0  0
    1.1598   -0.6744    0.6736 C   0  0  0  0  0  0  0  0  0  0  0  0
    0.1270    2.8439   -0.2389 C   0  0  0  0  0  0  0  0  0  0  0  0
   -3.2063   -0.1517    0.1433 C   0  0  0  0  0  0  0  0  0  0  0  0
   -1.2683    2.7332   -0.3437 C   0  0  0  0  0  0  0  0  0  0  0  0
    3.0316    3.2295   -0.0566 C   0  0  0  0  0  0  0  0  0  0  0  0
   -1.7268   -2.0210    0.7157 C   0  0  0  0  0  0  0  0  0  0  0  0
    4.5818    0.7190    0.6735 C   0  0  0  0  0  0  0  0  0  0  0  0
    6.9000    0.4075   -0.1916 C   0  0  0  0  0  0  0  0  0  0  0  0
    5.4081    0.4440   -0.3375 C   0  0  0  0  0  0  0  0  0  0  0  0
    8.8998   -0.9042   -0.4198 C   0  0  0  0  0  0  0  0  0  0  0  0
    6.8774   -1.9262    0.3788 C   0  0  0  0  0  0  0  0  0  0  0  0
   -5.6434   -0.7437   -0.0862 C   0  0  0  0  0  0  0  0  0  0  0  0
    9.5068    0.0999   -1.3851 C   0  0  0  0  0  0  0  0  0  0  0  0
    7.4298   -3.3044    0.0571 C   0  0  0  0  0  0  0  0  0  0  0  0
   -6.5364   -0.3806    0.9181 C   0  0  0  0  0  0  0  0  0  0  0  0
   -6.0796   -0.8804   -1.4010 C   0  0  0  0  0  0  0  0  0  0  0  0
   -7.8763   -0.1522    0.6050 C   0  0  0  0  0  0  0  0  0  0  0  0
   -7.4194   -0.6519   -1.7142 C   0  0  0  0  0  0  0  0  0  0  0  0
   -8.3178   -0.2878   -0.7111 C   0  0  0  0  0  0  0  0  0  0  0  0
    0.5515    3.8273   -0.4278 H   0  0  0  0  0  0  0  0  0  0  0  0
   -1.8676    3.6011   -0.6011 H   0  0  0  0  0  0  0  0  0  0  0  0
    3.1082   -1.2410    0.9894 H   0  0  0  0  0  0  0  0  0  0  0  0
    4.1199    3.2394    0.0579 H   0  0  0  0  0  0  0  0  0  0  0  0
    2.8195    3.5583   -1.0797 H   0  0  0  0  0  0  0  0  0  0  0  0
    2.6384    3.9691    0.6494 H   0  0  0  0  0  0  0  0  0  0  0  0
   -1.0961   -2.4657   -0.0577 H   0  0  0  0  0  0  0  0  0  0  0  0
   -2.6264   -2.6321    0.7030 H   0  0  0  0  0  0  0  0  0  0  0  0
   -1.3294   -2.0713    1.7317 H   0  0  0  0  0  0  0  0  0  0  0  0
    4.9676    0.8920    1.6744 H   0  0  0  0  0  0  0  0  0  0  0  0
    7.2040    0.7258    0.8148 H   0  0  0  0  0  0  0  0  0  0  0  0
    7.2664    1.1673   -0.8902 H   0  0  0  0  0  0  0  0  0  0  0  0
    5.0054    0.2573   -1.3312 H   0  0  0  0  0  0  0  0  0  0  0  0
   -4.2227   -1.8199    0.7965 H   0  0  0  0  0  0  0  0  0  0  0  0
    9.2465   -0.6958    0.6003 H   0  0  0  0  0  0  0  0  0  0  0  0
    9.3141   -1.8725   -0.7178 H   0  0  0  0  0  0  0  0  0  0  0  0
    7.0679   -1.6945    1.4346 H   0  0  0  0  0  0  0  0  0  0  0  0
    5.7914   -1.9956    0.2492 H   0  0  0  0  0  0  0  0  0  0  0  0
    9.0813    0.0064   -2.3901 H   0  0  0  0  0  0  0  0  0  0  0  0
   10.5848   -0.0790   -1.4701 H   0  0  0  0  0  0  0  0  0  0  0  0
    9.3903    1.1330   -1.0433 H   0  0  0  0  0  0  0  0  0  0  0  0
    6.8216   -4.0666    0.5580 H   0  0  0  0  0  0  0  0  0  0  0  0
    8.4537   -3.4417    0.4184 H   0  0  0  0  0  0  0  0  0  0  0  0
    7.3955   -3.5177   -1.0169 H   0  0  0  0  0  0  0  0  0  0  0  0
   -8.5896    0.1323    1.3746 H   0  0  0  0  0  0  0  0  0  0  0  0
   -7.7801   -0.7531   -2.7346 H   0  0  0  0  0  0  0  0  0  0  0  0
   -9.3612   -0.1099   -0.9550 H   0  0  0  0  0  0  0  0  0  0  0  0
  1 29  1  0  0  0  0
  2 30  1  0  0  0  0
  3 15  2  0  0  0  0
  4  9  1  0  0  0  0
  4 17  1  0  0  0  0
  4 20  1  0  0  0  0
  5 14  1  0  0  0  0
  5 15  1  0  0  0  0
  5 36  1  0  0  0  0
  6 12  1  0  0  0  0
  6 17  2  0  0  0  0
  7 22  1  0  0  0  0
  7 24  1  0  0  0  0
  7 25  1  0  0  0  0
  8 17  1  0  0  0  0
  8 26  1  0  0  0  0
  8 47  1  0  0  0  0
  9 10  1  0  0  0  0
  9 12  2  0  0  0  0
 10 11  2  0  0  0  0
 10 15  1  0  0  0  0
 11 13  1  0  0  0  0
 11 16  1  0  0  0  0
 12 18  1  0  0  0  0
 13 14  2  0  0  0  0
 13 19  1  0  0  0  0
 14 21  1  0  0  0  0
 16 18  2  0  0  0  0
 16 34  1  0  0  0  0
 18 35  1  0  0  0  0
 19 37  1  0  0  0  0
 19 38  1  0  0  0  0
 19 39  1  0  0  0  0
 20 40  1  0  0  0  0
 20 41  1  0  0  0  0
 20 42  1  0  0  0  0
 21 23  2  0  0  0  0
 21 43  1  0  0  0  0
 22 23  1  0  0  0  0
 22 44  1  0  0  0  0
 22 45  1  0  0  0  0
 23 46  1  0  0  0  0
 24 27  1  0  0  0  0
 24 48  1  0  0  0  0
 24 49  1  0  0  0  0
 25 28  1  0  0  0  0
 25 50  1  0  0  0  0
 25 51  1  0  0  0  0
 26 29  2  0  0  0  0
 26 30  1  0  0  0  0
 27 52  1  0  0  0  0
 27 53  1  0  0  0  0
 27 54  1  0  0  0  0
 28 55  1  0  0  0  0
 28 56  1  0  0  0  0
 28 57  1  0  0  0  0
 29 31  1  0  0  0  0
 30 32  2  0  0  0  0
 31 33  2  0  0  0  0
 31 58  1  0  0  0  0
 32 33  1  0  0  0  0
 32 59  1  0  0  0  0
 33 60  1  0  0  0  0
M  END
> <PUBCHEM_COMPOUND_CID>
9869943

> <PUBCHEM_CONFORMER_RMSD>
1

> <PUBCHEM_CONFORMER_DIVERSEORDER>
2
13
16
15
12
3
4
14
18
9
20
5
19
7
17
8
11
6
1
10

> <PUBCHEM_MMFF94_PARTIAL_CHARGES>
40
1 -0.18
10 0.09
11 0.03
12 0.23
13 -0.17
14 0.11
15 0.54
16 -0.15
17 0.27
18 -0.15
19 0.14
2 -0.18
20 0.26
21 -0.15
22 0.41
23 -0.29
24 0.27
25 0.27
26 0.1
29 0.18
3 -0.57
30 0.18
31 -0.15
32 -0.15
33 -0.15
34 0.15
35 0.15
36 0.37
4 0.05
43 0.15
46 0.15
47 0.4
5 -0.54
58 0.15
59 0.15
6 -0.57
60 0.15
7 -0.81
8 -0.58
9 -0.15

> <PUBCHEM_EFFECTIVE_ROTOR_COUNT>
7

> <PUBCHEM_PHARMACOPHORE_FEATURES>
9
1 3 acceptor
1 5 donor
1 7 cation
1 8 donor
4 4 6 8 17 cation
5 4 6 9 12 17 rings
6 26 29 30 31 32 33 rings
6 5 10 11 13 14 15 rings
6 9 10 11 12 16 18 rings

> <PUBCHEM_HEAVY_ATOM_COUNT>
33

> <PUBCHEM_ATOM_DEF_STEREO_COUNT>
0

> <PUBCHEM_ATOM_UDEF_STEREO_COUNT>
0

> <PUBCHEM_BOND_DEF_STEREO_COUNT>
1

> <PUBCHEM_BOND_UDEF_STEREO_COUNT>
0

> <PUBCHEM_ISOTOPIC_ATOM_COUNT>
0

> <PUBCHEM_COMPONENT_COUNT>
1

> <PUBCHEM_CACTVS_TAUTO_COUNT>
4

> <PUBCHEM_CONFORMER_ID>
00969A7700000002

> <PUBCHEM_MMFF94_ENERGY>
112.754

> <PUBCHEM_FEATURE_SELFOVERLAP>
45.796

> <PUBCHEM_SHAPE_FINGERPRINT>
10076449 9 18333169470389379613
10299344 5 17917712400601268142
11135926 11 18261109669260754347
11408170 108 17632305553240891975
11672396 167 18115865188998119522
12236239 1 18059572560018528133
12522641 24 17561074848593659096
12539745 222 16199880475160671072
13248334 5 18124873719107542920
13540713 5 17753037307475304128
13617811 41 18040151813159729844
13673619 4 18272369767925275888
13782708 43 17989197141029046010
13811026 1 18409163321230732808
14068700 675 17704355489151664553
14117953 113 18413669123458609575
14216079 64 18413107247558196062
14856354 85 14779267549424807371
14931854 50 17967245378115742962
15064986 266 18114186319623518733
15183329 4 18335698355812668419
15198563 99 17968089777034382085
16087824 20 18334573492101441061
16728433 281 16083029825674776973
18603816 31 16988268872397774183
19301679 30 15625678094514226948
20105231 36 18040158430950213091
2026 5 18129383692877402518
21130935 74 18199466735012092179
21267235 1 18335423477937613233
21792961 116 17748822995111244184
22311459 1 18408602565462040594
23522609 53 17986137264061686489
23559900 14 18264203797564555017
23569917 315 18199751509120746711
23569943 247 18342453699583426707
23576562 1 17386852900853721031
249057 25 17346049955759722665
249057 3 18334576880123034558
3004659 81 18040710402582200617
335352 9 18335702766643795966
4017518 198 17632580461323721551
4112364 45 13110667398777405762
439807 62 18407762517805300442
444769 64 18343303691297121471
5104073 3 10950957155089651103
5219985 9 18273214192580906352
5265222 85 15792307014806227995
5470011 282 17531253868286307606
59682541 35 11312054378996405941
6081469 158 17967246482059462350
9962374 69 18341604966958442766

> <PUBCHEM_SHAPE_MULTIPOLES>
652.09
27.53
2.68
1.47
22.52
0.84
-0.27
-15.62
-6.86
3.96
-0.13
-3.16
-0.57
-0.97

> <PUBCHEM_SHAPE_SELFOVERLAP>
1395.229

> <PUBCHEM_SHAPE_VOLUME>
365.9

> <PUBCHEM_COORDINATE_TYPE>
2
5
10

$$$$
