49830540
  -OEChem-10052120443D

 41 45  0     0  0  0  0  0  0999 V2000
    7.1405   -1.7934    0.4075 O   0  0  0  0  0  0  0  0  0  0  0  0
   -4.5944    0.8194    1.1113 O   0  0  0  0  0  0  0  0  0  0  0  0
    4.9748   -1.9997    1.3045 N   0  0  0  0  0  0  0  0  0  0  0  0
   -2.2657    1.0627    0.9995 N   0  0  0  0  0  0  0  0  0  0  0  0
   -3.5600   -0.3792   -0.5105 N   0  0  0  0  0  0  0  0  0  0  0  0
    4.0072   -0.2958    0.1238 C   0  0  0  0  0  0  0  0  0  0  0  0
    3.1779    0.6553   -0.4397 C   0  0  0  0  0  0  0  0  0  0  0  0
    3.6948   -1.3364    1.1428 C   0  0  0  0  0  0  0  0  0  0  0  0
    5.3490   -0.3716   -0.2527 C   0  0  0  0  0  0  0  0  0  0  0  0
    1.7839    0.7597   -0.0717 C   0  0  0  0  0  0  0  0  0  0  0  0
    5.9734   -1.4626    0.5016 C   0  0  0  0  0  0  0  0  0  0  0  0
    3.7237    1.5274   -1.3877 C   0  0  0  0  0  0  0  0  0  0  0  0
    5.9129    0.4762   -1.1854 C   0  0  0  0  0  0  0  0  0  0  0  0
    5.0790    1.4383   -1.7571 C   0  0  0  0  0  0  0  0  0  0  0  0
    0.8208    0.0353   -0.7741 C   0  0  0  0  0  0  0  0  0  0  0  0
    1.4021    1.5843    0.9866 C   0  0  0  0  0  0  0  0  0  0  0  0
   -0.9061    0.9605    0.6397 C   0  0  0  0  0  0  0  0  0  0  0  0
   -0.5242    0.1357   -0.4185 C   0  0  0  0  0  0  0  0  0  0  0  0
    0.0571    1.6848    1.3422 C   0  0  0  0  0  0  0  0  0  0  0  0
   -3.4354    0.4680    0.4873 C   0  0  0  0  0  0  0  0  0  0  0  0
   -5.5493    0.1179    0.4327 C   0  0  0  0  0  0  0  0  0  0  0  0
   -4.9128   -0.6141   -0.5588 C   0  0  0  0  0  0  0  0  0  0  0  0
   -6.9193    0.1131    0.6644 C   0  0  0  0  0  0  0  0  0  0  0  0
   -5.6841   -1.4263   -1.4024 C   0  0  0  0  0  0  0  0  0  0  0  0
   -7.6743   -0.7020   -0.1860 C   0  0  0  0  0  0  0  0  0  0  0  0
   -7.0714   -1.4573   -1.1994 C   0  0  0  0  0  0  0  0  0  0  0  0
    3.3997   -0.9096    2.1047 H   0  0  0  0  0  0  0  0  0  0  0  0
    2.9653   -2.0688    0.7878 H   0  0  0  0  0  0  0  0  0  0  0  0
    5.1265   -2.7773    1.9392 H   0  0  0  0  0  0  0  0  0  0  0  0
    3.1068    2.2915   -1.8568 H   0  0  0  0  0  0  0  0  0  0  0  0
    6.9567    0.4053   -1.4678 H   0  0  0  0  0  0  0  0  0  0  0  0
    5.4786    2.1277   -2.4961 H   0  0  0  0  0  0  0  0  0  0  0  0
    1.1024   -0.6126   -1.6011 H   0  0  0  0  0  0  0  0  0  0  0  0
    2.1403    2.1552    1.5449 H   0  0  0  0  0  0  0  0  0  0  0  0
   -1.2334   -0.4467   -0.9943 H   0  0  0  0  0  0  0  0  0  0  0  0
   -0.2258    2.3313    2.1690 H   0  0  0  0  0  0  0  0  0  0  0  0
   -2.4126    1.6939    1.7845 H   0  0  0  0  0  0  0  0  0  0  0  0
   -7.3757    0.7008    1.4510 H   0  0  0  0  0  0  0  0  0  0  0  0
   -5.2276   -2.0156   -2.1907 H   0  0  0  0  0  0  0  0  0  0  0  0
   -8.7530   -0.7499   -0.0568 H   0  0  0  0  0  0  0  0  0  0  0  0
   -7.6898   -2.0798   -1.8414 H   0  0  0  0  0  0  0  0  0  0  0  0
  1 11  2  0  0  0  0
  2 20  1  0  0  0  0
  2 21  1  0  0  0  0
  3  8  1  0  0  0  0
  3 11  1  0  0  0  0
  3 29  1  0  0  0  0
  4 17  1  0  0  0  0
  4 20  1  0  0  0  0
  4 37  1  0  0  0  0
  5 20  2  0  0  0  0
  5 22  1  0  0  0  0
  6  7  2  0  0  0  0
  6  8  1  0  0  0  0
  6  9  1  0  0  0  0
  7 10  1  0  0  0  0
  7 12  1  0  0  0  0
  8 27  1  0  0  0  0
  8 28  1  0  0  0  0
  9 11  1  0  0  0  0
  9 13  2  0  0  0  0
 10 15  2  0  0  0  0
 10 16  1  0  0  0  0
 12 14  2  0  0  0  0
 12 30  1  0  0  0  0
 13 14  1  0  0  0  0
 13 31  1  0  0  0  0
 14 32  1  0  0  0  0
 15 18  1  0  0  0  0
 15 33  1  0  0  0  0
 16 19  2  0  0  0  0
 16 34  1  0  0  0  0
 17 18  2  0  0  0  0
 17 19  1  0  0  0  0
 18 35  1  0  0  0  0
 19 36  1  0  0  0  0
 21 22  1  0  0  0  0
 21 23  2  0  0  0  0
 22 24  2  0  0  0  0
 23 25  1  0  0  0  0
 23 38  1  0  0  0  0
 24 26  1  0  0  0  0
 24 39  1  0  0  0  0
 25 26  2  0  0  0  0
 25 40  1  0  0  0  0
 26 41  1  0  0  0  0
M  END
> <PUBCHEM_COMPOUND_CID>
49830540

> <PUBCHEM_CONFORMER_RMSD>
0.8

> <PUBCHEM_CONFORMER_DIVERSEORDER>
1
11
13
6
17
10
5
8
12
4
15
16
3
2
14
7
9

> <PUBCHEM_MMFF94_PARTIAL_CHARGES>
37
1 -0.57
11 0.54
12 -0.15
13 -0.15
14 -0.15
15 -0.15
16 -0.15
17 0.1
18 -0.15
19 -0.15
2 -0.28
20 0.56
21 0.14
22 0.23
23 -0.15
24 -0.15
25 -0.15
26 -0.15
29 0.37
3 -0.73
30 0.15
31 0.15
32 0.15
33 0.15
34 0.15
35 0.15
36 0.15
37 0.4
38 0.15
39 0.15
4 -0.58
40 0.15
41 0.15
5 -0.57
6 -0.14
8 0.44
9 0.09

> <PUBCHEM_EFFECTIVE_ROTOR_COUNT>
3.4

> <PUBCHEM_PHARMACOPHORE_FEATURES>
9
1 1 acceptor
1 3 donor
1 4 donor
3 4 5 20 cation
5 2 5 20 21 22 rings
5 3 6 8 9 11 rings
6 10 15 16 17 18 19 rings
6 21 22 23 24 25 26 rings
6 6 7 9 12 13 14 rings

> <PUBCHEM_HEAVY_ATOM_COUNT>
26

> <PUBCHEM_ATOM_DEF_STEREO_COUNT>
0

> <PUBCHEM_ATOM_UDEF_STEREO_COUNT>
0

> <PUBCHEM_BOND_DEF_STEREO_COUNT>
0

> <PUBCHEM_BOND_UDEF_STEREO_COUNT>
0

> <PUBCHEM_ISOTOPIC_ATOM_COUNT>
0

> <PUBCHEM_COMPONENT_COUNT>
1

> <PUBCHEM_CACTVS_TAUTO_COUNT>
4

> <PUBCHEM_CONFORMER_ID>
02F85A8C00000001

> <PUBCHEM_MMFF94_ENERGY>
80.2731

> <PUBCHEM_FEATURE_SELFOVERLAP>
45.879

> <PUBCHEM_SHAPE_FINGERPRINT>
10 15 15985096431650598170
10299344 5 18410014338566022191
10622 236 17972022653101926386
106641 1 17632569462507678226
11443803 9 18058739143380337564
11524674 6 15410898479352866613
11646440 116 15985109630327906379
11719270 70 17775569723674925095
11963148 33 17846778507500286783
12082328 90 17894914036601799021
12166972 35 18410293640242509869
12236239 1 18411704266389373712
125118 31 9655310232694782543
12516196 113 16702025283513158209
13533116 47 18333732407990298152
13668630 136 18335138670008297382
13782708 43 18201152256773698911
13862211 1 18202282506844069825
14068700 675 18130790070784970593
14251752 14 18410290286257731925
14251764 18 18343582962190296095
14347332 77 18411417285270319129
15119646 104 18410858728814967659
15183329 4 17022899025953504009
15198563 99 16660916678486290229
15348495 7 14764337284603614783
15352257 5 18041286560346112867
15419008 47 15936406754048231461
15419008 91 16845281705905902673
15483637 11 17533794950832363594
17134984 74 17603584140638718994
17857418 61 18341894091140077779
18222031 100 17846787320719994368
20028762 73 17346317128511018903
20157964 124 17676492774188457172
21130935 74 14189587329828356485
21150785 3 18341619256251800988
21267235 1 17632023048246930797
22061861 79 17385723595164386387
221357 26 17095520690873594436
2215653 11 16805325483210914962
22224240 67 13901906709379885965
22956985 138 17699020478883568294
23035841 295 18131072645436065791
23081809 10 18410018732117482761
23198884 109 17603304856738542853
23522609 53 18125471728583303593
23559900 14 17896043298577075697
23569914 152 15942550666200948303
29717793 49 18186523189624743068
3004659 81 17988649635356424277
312425 54 14405187287526504887
3383291 50 16988841731347454727
3411729 13 17273683455432646752
3472631 163 11386665000664615242
34797466 226 16443350905165815893
3633792 109 17821445733630733241
397830 11 14189281716676434415
4073 2 18123184868591917081
4098825 35 17894627007852911077
439807 62 18408885140293133731
44249763 50 15357980147921425025
465052 167 18202284723026141164
5104073 3 17346037904772138123
5283156 175 18409731746976968281
559249 180 18060136540726975823
59682541 52 17167859747177183114
6700243 42 17701007403305125964
86090 222 15338021748329858796

> <PUBCHEM_SHAPE_MULTIPOLES>
508.39
21.87
1.73
1.41
19.31
0.27
-0.21
10.34
-3.22
-1.68
0.28
-0.76
-0.14
-3.23

> <PUBCHEM_SHAPE_SELFOVERLAP>
1156.816

> <PUBCHEM_SHAPE_VOLUME>
265.9

> <PUBCHEM_COORDINATE_TYPE>
2
5
10

$$$$
