24772168
  -OEChem-10052120433D

 31 33  0     0  0  0  0  0  0999 V2000
    1.2572   -1.6379   -0.0011 O   0  0  0  0  0  0  0  0  0  0  0  0
   -0.2191    0.1801   -0.0011 N   0  0  0  0  0  0  0  0  0  0  0  0
   -3.9320   -1.7440    0.0009 N   0  0  0  0  0  0  0  0  0  0  0  0
    2.0546    0.5606   -0.0017 N   0  0  0  0  0  0  0  0  0  0  0  0
    3.9689   -0.8662   -0.0001 N   0  0  0  0  0  0  0  0  0  0  0  0
    5.6080    1.4098    0.0012 N   0  0  0  0  0  0  0  0  0  0  0  0
   -2.6656    0.3063   -0.0002 C   0  0  0  0  0  0  0  0  0  0  0  0
   -1.4766   -0.4354   -0.0008 C   0  0  0  0  0  0  0  0  0  0  0  0
   -3.8877   -0.3982    0.0008 C   0  0  0  0  0  0  0  0  0  0  0  0
   -2.6565    1.7115   -0.0005 C   0  0  0  0  0  0  0  0  0  0  0  0
   -1.5189   -1.8222   -0.0006 C   0  0  0  0  0  0  0  0  0  0  0  0
   -5.0686    0.3389    0.0013 C   0  0  0  0  0  0  0  0  0  0  0  0
   -3.8525    2.4235    0.0002 C   0  0  0  0  0  0  0  0  0  0  0  0
   -5.0599    1.7360    0.0011 C   0  0  0  0  0  0  0  0  0  0  0  0
   -2.7617   -2.4225    0.0003 C   0  0  0  0  0  0  0  0  0  0  0  0
    1.0569   -0.4274   -0.0013 C   0  0  0  0  0  0  0  0  0  0  0  0
    3.4581    0.3811   -0.0019 C   0  0  0  0  0  0  0  0  0  0  0  0
    4.2632    1.4990   -0.0011 C   0  0  0  0  0  0  0  0  0  0  0  0
    5.3137   -0.9554    0.0019 C   0  0  0  0  0  0  0  0  0  0  0  0
    6.1188    0.1624    0.0027 C   0  0  0  0  0  0  0  0  0  0  0  0
   -1.7446    2.2991   -0.0013 H   0  0  0  0  0  0  0  0  0  0  0  0
   -0.6752   -2.4917   -0.0011 H   0  0  0  0  0  0  0  0  0  0  0  0
   -0.1990    1.1927   -0.0011 H   0  0  0  0  0  0  0  0  0  0  0  0
   -6.0277   -0.1759    0.0020 H   0  0  0  0  0  0  0  0  0  0  0  0
   -3.8426    3.5092   -0.0001 H   0  0  0  0  0  0  0  0  0  0  0  0
   -2.8587   -3.5034    0.0005 H   0  0  0  0  0  0  0  0  0  0  0  0
   -5.9979    2.2835    0.0016 H   0  0  0  0  0  0  0  0  0  0  0  0
    1.7389    1.5273   -0.0020 H   0  0  0  0  0  0  0  0  0  0  0  0
    3.8655    2.5074   -0.0017 H   0  0  0  0  0  0  0  0  0  0  0  0
    5.7249   -1.9573    0.0032 H   0  0  0  0  0  0  0  0  0  0  0  0
    7.1993    0.0898    0.0045 H   0  0  0  0  0  0  0  0  0  0  0  0
  1 16  2  0  0  0  0
  2  8  1  0  0  0  0
  2 16  1  0  0  0  0
  2 23  1  0  0  0  0
  3  9  1  0  0  0  0
  3 15  2  0  0  0  0
  4 16  1  0  0  0  0
  4 17  1  0  0  0  0
  4 28  1  0  0  0  0
  5 17  2  0  0  0  0
  5 19  1  0  0  0  0
  6 18  2  0  0  0  0
  6 20  1  0  0  0  0
  7  8  1  0  0  0  0
  7  9  1  0  0  0  0
  7 10  2  0  0  0  0
  8 11  2  0  0  0  0
  9 12  2  0  0  0  0
 10 13  1  0  0  0  0
 10 21  1  0  0  0  0
 11 15  1  0  0  0  0
 11 22  1  0  0  0  0
 12 14  1  0  0  0  0
 12 24  1  0  0  0  0
 13 14  2  0  0  0  0
 13 25  1  0  0  0  0
 14 27  1  0  0  0  0
 15 26  1  0  0  0  0
 17 18  1  0  0  0  0
 18 29  1  0  0  0  0
 19 20  2  0  0  0  0
 19 30  1  0  0  0  0
 20 31  1  0  0  0  0
M  END
> <PUBCHEM_COMPOUND_CID>
24772168

> <PUBCHEM_CONFORMER_RMSD>
0.6

> <PUBCHEM_CONFORMER_DIVERSEORDER>
1
24
15
21
10
17
12
9
22
11
18
5
16
23
2
14
7
8
3
20
19
4
13
6

> <PUBCHEM_MMFF94_PARTIAL_CHARGES>
30
1 -0.57
10 -0.15
11 -0.15
12 -0.15
13 -0.15
14 -0.15
15 0.16
16 0.69
17 0.43
18 0.16
19 0.16
2 -0.55
20 0.16
21 0.15
22 0.15
23 0.37
24 0.15
25 0.15
26 0.15
27 0.15
28 0.37
29 0.15
3 -0.62
30 0.15
31 0.15
4 -0.55
5 -0.62
6 -0.62
8 0.12
9 0.31

> <PUBCHEM_EFFECTIVE_ROTOR_COUNT>
4

> <PUBCHEM_PHARMACOPHORE_FEATURES>
8
1 1 acceptor
1 2 donor
1 3 acceptor
1 4 donor
1 6 acceptor
6 3 7 8 9 11 15 rings
6 5 6 17 18 19 20 rings
6 7 9 10 12 13 14 rings

> <PUBCHEM_HEAVY_ATOM_COUNT>
20

> <PUBCHEM_ATOM_DEF_STEREO_COUNT>
0

> <PUBCHEM_ATOM_UDEF_STEREO_COUNT>
0

> <PUBCHEM_BOND_DEF_STEREO_COUNT>
0

> <PUBCHEM_BOND_UDEF_STEREO_COUNT>
0

> <PUBCHEM_ISOTOPIC_ATOM_COUNT>
0

> <PUBCHEM_COMPONENT_COUNT>
1

> <PUBCHEM_CACTVS_TAUTO_COUNT>
11

> <PUBCHEM_CONFORMER_ID>
0179FE4800000001

> <PUBCHEM_MMFF94_ENERGY>
68.0202

> <PUBCHEM_FEATURE_SELFOVERLAP>
40.678

> <PUBCHEM_SHAPE_FINGERPRINT>
10014705 185 18409167709943153385
10411042 1 17978229684726586595
10595046 47 18335983181327982958
11315181 36 18113617927776942108
11405975 8 18408318891651757642
11595378 159 17023453158313121404
12107183 9 17903349308709457082
12236239 1 17966969426229545938
12390115 104 18200608982018455721
12403259 415 18060414759358977320
12616971 3 16950285130808776092
13073987 5 18334855043775055282
13167823 11 18408038533345821482
13785724 45 17834110845791567834
14341114 176 18409735062322605044
14508225 48 18125424557573728391
15042514 8 18264775544455277027
15183329 4 18410856525855109730
15196674 1 18410575097922520676
15250474 111 18336249211455552858
15501527 16 18411984641791094761
17844677 252 18338524139704270472
1813 80 16660368047874900014
19489759 90 18342455945729093505
20281389 69 18334011683453642848
20645477 56 18410013208884128237
20645477 70 16916798327506413022
21033648 29 17845922022607182096
21065198 57 18411699932746052202
21236236 1 18413388757031866631
21267235 1 18336552715550944403
21279426 13 18341052896241714902
23402539 116 18413384350015457173
23536379 177 18408885127276207362
23559900 14 18343577469228103952
245318 6 16593666420043083460
300161 21 18412539921085704762
3004659 81 18409169875498298554
34797466 226 17775013426773492420
3545911 37 18411983541920699245
4073 2 18113904905419454506
4214541 1 18410573989673434148
441001 317 18412544310252403769
5104073 3 18408038520376180042
5283173 99 18413107238694325448
542803 24 18410291415358987164
559249 180 18410007702699527850
59755656 215 18341619153557441566
59755656 520 17022904549154944146
6327066 14 18117551835139026189
633830 44 17749110023892319986
77779 3 18410293635983725198
90127 26 18335149704274705034
9965369 4 18336542716597826834
9981440 41 18334862705965478875

> <PUBCHEM_SHAPE_MULTIPOLES>
380.82
14.43
2.3
0.59
15.47
0.14
0
-4.46
-0.01
-2.38
0
-0.04
-0.01
0

> <PUBCHEM_SHAPE_SELFOVERLAP>
838.163

> <PUBCHEM_SHAPE_VOLUME>
201.8

> <PUBCHEM_COORDINATE_TYPE>
2
5
10

$$$$
