44364260
  -OEChem-10062122013D

 65 73  0     1  0  0  0  0  0999 V2000
    0.1356    3.3054   -2.4578 O   0  0  0  0  0  0  0  0  0  0  0  0
   -1.9335   -0.9526   -3.1741 O   0  0  0  0  0  0  0  0  0  0  0  0
   -1.1624    1.5594   -4.2676 O   0  0  0  0  0  0  0  0  0  0  0  0
    5.5030   -0.0008    1.1060 O   0  0  0  0  0  0  0  0  0  0  0  0
    3.5227   -4.0922    0.4066 O   0  0  0  0  0  0  0  0  0  0  0  0
   -1.8612    1.1789   -0.0523 N   0  0  0  0  0  0  0  0  0  0  0  0
    0.4254    1.7474   -0.0729 N   0  0  0  0  0  0  0  0  0  0  0  0
   -0.8586   -0.9024   -0.5197 N   0  0  0  0  0  0  0  0  0  0  0  0
    4.8387   -2.2189    0.8420 N   0  0  0  0  0  0  0  0  0  0  0  0
   -0.8909    2.1550   -0.5468 C   0  0  1  0  0  0  0  0  0  0  0  0
   -1.9379   -0.0040   -0.9090 C   0  0  2  0  0  0  0  0  0  0  0  0
   -0.9388    2.4567   -2.0609 C   0  0  2  0  0  0  0  0  0  0  0  0
   -2.0060    0.2604   -2.4287 C   0  0  1  0  0  0  0  0  0  0  0  0
   -0.9057    1.1948   -2.9094 C   0  0  0  0  0  0  0  0  0  0  0  0
    1.0741    0.5451    0.0155 C   0  0  0  0  0  0  0  0  0  0  0  0
    0.4600   -0.7222   -0.1986 C   0  0  0  0  0  0  0  0  0  0  0  0
    2.4757    0.4965    0.3978 C   0  0  0  0  0  0  0  0  0  0  0  0
    1.3289   -1.8712   -0.0033 C   0  0  0  0  0  0  0  0  0  0  0  0
    1.4282    2.6378    0.3438 C   0  0  0  0  0  0  0  0  0  0  0  0
   -0.9650   -2.3025   -0.4910 C   0  0  0  0  0  0  0  0  0  0  0  0
   -3.1830    1.7912    0.1187 C   0  0  0  0  0  0  0  0  0  0  0  0
    2.6447    1.9372    0.5991 C   0  0  0  0  0  0  0  0  0  0  0  0
    0.3040   -2.8951   -0.2184 C   0  0  0  0  0  0  0  0  0  0  0  0
    3.2771   -0.6328    0.5165 C   0  0  0  0  0  0  0  0  0  0  0  0
    2.6833   -1.8591    0.3082 C   0  0  0  0  0  0  0  0  0  0  0  0
   -4.0074    1.0667    1.1494 C   0  0  0  0  0  0  0  0  0  0  0  0
    1.3622    4.0403    0.5048 C   0  0  0  0  0  0  0  0  0  0  0  0
   -2.1029   -3.1129   -0.7041 C   0  0  0  0  0  0  0  0  0  0  0  0
    3.7654    2.7048    1.0095 C   0  0  0  0  0  0  0  0  0  0  0  0
    0.3666   -4.3120   -0.1770 C   0  0  0  0  0  0  0  0  0  0  0  0
    4.6741   -0.8543    0.8622 C   0  0  0  0  0  0  0  0  0  0  0  0
    3.6868   -2.8937    0.5143 C   0  0  0  0  0  0  0  0  0  0  0  0
    2.4922    4.7495    0.9104 C   0  0  0  0  0  0  0  0  0  0  0  0
   -1.9891   -4.5018   -0.6535 C   0  0  0  0  0  0  0  0  0  0  0  0
    3.6825    4.0910    1.1588 C   0  0  0  0  0  0  0  0  0  0  0  0
   -0.7681   -5.0970   -0.3944 C   0  0  0  0  0  0  0  0  0  0  0  0
   -5.3977    1.0439    1.0398 C   0  0  0  0  0  0  0  0  0  0  0  0
   -3.3811    0.4185    2.2139 C   0  0  0  0  0  0  0  0  0  0  0  0
   -6.1618    0.3728    1.9945 C   0  0  0  0  0  0  0  0  0  0  0  0
   -4.1451   -0.2525    3.1686 C   0  0  0  0  0  0  0  0  0  0  0  0
   -5.5355   -0.2754    3.0589 C   0  0  0  0  0  0  0  0  0  0  0  0
   -1.0700    3.1022   -0.0257 H   0  0  0  0  0  0  0  0  0  0  0  0
   -2.8463   -0.5579   -0.6483 H   0  0  0  0  0  0  0  0  0  0  0  0
   -1.8607    3.0105   -2.2836 H   0  0  0  0  0  0  0  0  0  0  0  0
   -2.9793    0.7035   -2.6760 H   0  0  0  0  0  0  0  0  0  0  0  0
    0.0785    0.7155   -2.9037 H   0  0  0  0  0  0  0  0  0  0  0  0
   -3.7218    1.8682   -0.8334 H   0  0  0  0  0  0  0  0  0  0  0  0
   -3.0897    2.8159    0.5036 H   0  0  0  0  0  0  0  0  0  0  0  0
    0.0162    4.1568   -2.0040 H   0  0  0  0  0  0  0  0  0  0  0  0
   -2.7212   -1.4774   -2.9524 H   0  0  0  0  0  0  0  0  0  0  0  0
   -2.0372    1.9816   -4.3101 H   0  0  0  0  0  0  0  0  0  0  0  0
    0.4439    4.5876    0.3145 H   0  0  0  0  0  0  0  0  0  0  0  0
   -3.0754   -2.6767   -0.9119 H   0  0  0  0  0  0  0  0  0  0  0  0
    4.7159    2.2297    1.2239 H   0  0  0  0  0  0  0  0  0  0  0  0
    1.3006   -4.8212    0.0316 H   0  0  0  0  0  0  0  0  0  0  0  0
    5.7194   -2.6795    1.0425 H   0  0  0  0  0  0  0  0  0  0  0  0
    2.4348    5.8280    1.0303 H   0  0  0  0  0  0  0  0  0  0  0  0
   -2.8679   -5.1188   -0.8199 H   0  0  0  0  0  0  0  0  0  0  0  0
    4.5577    4.6515    1.4752 H   0  0  0  0  0  0  0  0  0  0  0  0
   -0.6890   -6.1798   -0.3555 H   0  0  0  0  0  0  0  0  0  0  0  0
   -5.8974    1.5462    0.2159 H   0  0  0  0  0  0  0  0  0  0  0  0
   -2.3022    0.4315    2.3412 H   0  0  0  0  0  0  0  0  0  0  0  0
   -7.2445    0.3554    1.9093 H   0  0  0  0  0  0  0  0  0  0  0  0
   -3.6579   -0.7540    3.9998 H   0  0  0  0  0  0  0  0  0  0  0  0
   -6.1303   -0.7972    3.8029 H   0  0  0  0  0  0  0  0  0  0  0  0
  1 12  1  0  0  0  0
  1 49  1  0  0  0  0
  2 13  1  0  0  0  0
  2 50  1  0  0  0  0
  3 14  1  0  0  0  0
  3 51  1  0  0  0  0
  4 31  2  0  0  0  0
  5 32  2  0  0  0  0
  6 10  1  0  0  0  0
  6 11  1  0  0  0  0
  6 21  1  0  0  0  0
  7 10  1  0  0  0  0
  7 15  1  0  0  0  0
  7 19  1  0  0  0  0
  8 11  1  0  0  0  0
  8 16  1  0  0  0  0
  8 20  1  0  0  0  0
  9 31  1  0  0  0  0
  9 32  1  0  0  0  0
  9 56  1  0  0  0  0
 10 12  1  0  0  0  0
 10 42  1  0  0  0  0
 11 13  1  0  0  0  0
 11 43  1  0  0  0  0
 12 14  1  0  0  0  0
 12 44  1  0  0  0  0
 13 14  1  0  0  0  0
 13 45  1  0  0  0  0
 14 46  1  0  0  0  0
 15 16  2  0  0  0  0
 15 17  1  0  0  0  0
 16 18  1  0  0  0  0
 17 22  1  0  0  0  0
 17 24  2  0  0  0  0
 18 23  1  0  0  0  0
 18 25  2  0  0  0  0
 19 22  1  0  0  0  0
 19 27  2  0  0  0  0
 20 23  1  0  0  0  0
 20 28  2  0  0  0  0
 21 26  1  0  0  0  0
 21 47  1  0  0  0  0
 21 48  1  0  0  0  0
 22 29  2  0  0  0  0
 23 30  2  0  0  0  0
 24 25  1  0  0  0  0
 24 31  1  0  0  0  0
 25 32  1  0  0  0  0
 26 37  2  0  0  0  0
 26 38  1  0  0  0  0
 27 33  1  0  0  0  0
 27 52  1  0  0  0  0
 28 34  1  0  0  0  0
 28 53  1  0  0  0  0
 29 35  1  0  0  0  0
 29 54  1  0  0  0  0
 30 36  1  0  0  0  0
 30 55  1  0  0  0  0
 33 35  2  0  0  0  0
 33 57  1  0  0  0  0
 34 36  2  0  0  0  0
 34 58  1  0  0  0  0
 35 59  1  0  0  0  0
 36 60  1  0  0  0  0
 37 39  1  0  0  0  0
 37 61  1  0  0  0  0
 38 40  2  0  0  0  0
 38 62  1  0  0  0  0
 39 41  2  0  0  0  0
 39 63  1  0  0  0  0
 40 41  1  0  0  0  0
 40 64  1  0  0  0  0
 41 65  1  0  0  0  0
M  END
> <PUBCHEM_COMPOUND_CID>
44364260

> <PUBCHEM_CONFORMER_RMSD>
0.8

> <PUBCHEM_CONFORMER_DIVERSEORDER>
2
1

> <PUBCHEM_MMFF94_PARTIAL_CHARGES>
56
1 -0.68
10 0.53
11 0.53
12 0.28
13 0.28
14 0.28
15 -0.05
16 -0.05
17 -0.01
18 -0.01
19 -0.15
2 -0.68
20 -0.15
21 0.41
24 0.09
25 0.09
26 -0.14
27 -0.15
28 -0.15
29 -0.15
3 -0.68
30 -0.15
31 0.54
32 0.54
33 -0.15
34 -0.15
35 -0.15
36 -0.15
37 -0.15
38 -0.15
39 -0.15
4 -0.57
40 -0.15
41 -0.15
49 0.4
5 -0.57
50 0.4
51 0.4
52 0.15
53 0.15
54 0.15
55 0.15
56 0.37
57 0.15
58 0.15
59 0.15
6 -0.81
60 0.15
61 0.15
62 0.15
63 0.15
64 0.15
65 0.15
7 -0.04
8 -0.04
9 -0.49

> <PUBCHEM_EFFECTIVE_ROTOR_COUNT>
3

> <PUBCHEM_PHARMACOPHORE_FEATURES>
21
1 1 acceptor
1 1 donor
1 2 acceptor
1 2 donor
1 3 acceptor
1 3 donor
1 4 acceptor
1 5 acceptor
1 6 cation
1 7 cation
1 8 cation
1 9 donor
5 7 15 17 19 22 rings
5 8 16 18 20 23 rings
5 9 24 25 31 32 rings
6 15 16 17 18 24 25 rings
6 19 22 27 29 33 35 rings
6 20 23 28 30 34 36 rings
6 26 37 38 39 40 41 rings
6 6 10 11 12 13 14 rings
7 6 7 8 10 11 15 16 rings

> <PUBCHEM_HEAVY_ATOM_COUNT>
41

> <PUBCHEM_ATOM_DEF_STEREO_COUNT>
4

> <PUBCHEM_ATOM_UDEF_STEREO_COUNT>
0

> <PUBCHEM_BOND_DEF_STEREO_COUNT>
0

> <PUBCHEM_BOND_UDEF_STEREO_COUNT>
0

> <PUBCHEM_ISOTOPIC_ATOM_COUNT>
0

> <PUBCHEM_COMPONENT_COUNT>
1

> <PUBCHEM_CACTVS_TAUTO_COUNT>
2

> <PUBCHEM_CONFORMER_ID>
02A4F1E400000002

> <PUBCHEM_MMFF94_ENERGY>
164.5071

> <PUBCHEM_FEATURE_SELFOVERLAP>
107.953

> <PUBCHEM_SHAPE_FINGERPRINT>
10290309 65 18192702346811640730
10305334 12 17914348019421825368
1100329 8 18341609335029847368
11227688 84 17693081973088658855
11445158 3 18261398831743251916
11513181 2 17844256330805104615
12128747 34 18120096083476034241
12156800 1 17406312139557819237
12422481 6 18041559273046057833
12608794 3 18340472422447277170
12788726 201 16986299745930105495
13140716 1 18339076094346150970
13636023 51 17604445010945482605
13911987 19 18120642540638156950
14400156 96 18188506777980721433
14955137 171 18268157448410145906
15219462 58 17341235336080678688
15324884 4 17823676647103348476
15815584 197 17839753564764541301
16067690 210 15985101903438876018
16090146 7 16987692655358999229
16112460 7 18342738571656910619
19319366 153 18057611060243043753
20764821 26 18265600152258098920
20775438 99 17186091956374003174
21796203 349 18267042569563556338
3380486 145 17897709088652478045
392239 28 18272378546975098611
469060 322 17981578526017994723
50150288 127 17201092627966174443
563151 40 17905633316557260608
57527358 35 15050005781762535170

> <PUBCHEM_SHAPE_MULTIPOLES>
794.49
9.3
6.48
2.75
4.33
3.87
-2.09
-2.14
9.39
-4.71
-0.21
3.81
-1.67
-0.61

> <PUBCHEM_SHAPE_SELFOVERLAP>
1845.121

> <PUBCHEM_SHAPE_VOLUME>
402.3

> <PUBCHEM_COORDINATE_TYPE>
2
5
10

$$$$
