52938983
  -OEChem-10052115143D

 64 67  0     0  0  0  0  0  0999 V2000
   10.4929   -1.0212    1.3318 Cl  0  0  0  0  0  0  0  0  0  0  0  0
    7.9506   -3.3658   -1.4557 F   0  0  0  0  0  0  0  0  0  0  0  0
    9.8916   -2.3896   -1.3700 F   0  0  0  0  0  0  0  0  0  0  0  0
    9.2332   -3.6344    0.2794 F   0  0  0  0  0  0  0  0  0  0  0  0
   -2.3494    3.1731   -1.8293 O   0  0  0  0  0  0  0  0  0  0  0  0
   -9.7721   -1.9407    2.7155 O   0  0  0  0  0  0  0  0  0  0  0  0
    4.4128    2.0698    1.2404 O   0  0  0  0  0  0  0  0  0  0  0  0
   -5.3886   -0.7531   -1.7539 N   0  0  0  0  0  0  0  0  0  0  0  0
   -2.4643    1.0607   -0.8140 N   0  0  0  0  0  0  0  0  0  0  0  0
   -5.6172    0.3336   -2.5109 N   0  0  0  0  0  0  0  0  0  0  0  0
   -3.8559   -1.6908   -0.2097 N   0  0  0  0  0  0  0  0  0  0  0  0
    2.7532    1.1353   -0.1240 N   0  0  0  0  0  0  0  0  0  0  0  0
    4.8434    0.1567   -0.0338 N   0  0  0  0  0  0  0  0  0  0  0  0
   -6.3413   -1.8393   -1.7845 C   0  0  0  0  0  0  0  0  0  0  0  0
   -4.2378   -0.6847   -1.0250 C   0  0  0  0  0  0  0  0  0  0  0  0
   -3.6743    0.5312   -1.3261 C   0  0  0  0  0  0  0  0  0  0  0  0
   -7.2553   -1.8668   -0.5848 C   0  0  0  0  0  0  0  0  0  0  0  0
   -0.6333    2.5821   -0.3741 C   0  0  0  0  0  0  0  0  0  0  0  0
   -0.5199    3.6695    0.4922 C   0  0  0  0  0  0  0  0  0  0  0  0
   -4.5667    1.1146   -2.2454 C   0  0  0  0  0  0  0  0  0  0  0  0
   -1.8794    2.3061   -1.0769 C   0  0  0  0  0  0  0  0  0  0  0  0
    0.4575    1.7375   -0.5797 C   0  0  0  0  0  0  0  0  0  0  0  0
    1.6618    1.9802    0.0810 C   0  0  0  0  0  0  0  0  0  0  0  0
   -7.3176   -3.0048    0.2196 C   0  0  0  0  0  0  0  0  0  0  0  0
   -8.0390   -0.7537   -0.2801 C   0  0  0  0  0  0  0  0  0  0  0  0
    0.6844    3.9123    1.1528 C   0  0  0  0  0  0  0  0  0  0  0  0
    1.7752    3.0676    0.9474 C   0  0  0  0  0  0  0  0  0  0  0  0
   -1.6721    4.5899    0.7306 C   0  0  0  0  0  0  0  0  0  0  0  0
   -8.1632   -3.0295    1.3286 C   0  0  0  0  0  0  0  0  0  0  0  0
   -8.8847   -0.7786    0.8287 C   0  0  0  0  0  0  0  0  0  0  0  0
   -8.9470   -1.9165    1.6331 C   0  0  0  0  0  0  0  0  0  0  0  0
    6.1918   -0.1305    0.2845 C   0  0  0  0  0  0  0  0  0  0  0  0
    4.0476    1.2095    0.4456 C   0  0  0  0  0  0  0  0  0  0  0  0
    8.1544   -1.5150    0.0227 C   0  0  0  0  0  0  0  0  0  0  0  0
    6.8257   -1.2309   -0.2929 C   0  0  0  0  0  0  0  0  0  0  0  0
    6.8865    0.6855    1.1772 C   0  0  0  0  0  0  0  0  0  0  0  0
    8.8490   -0.6991    0.9157 C   0  0  0  0  0  0  0  0  0  0  0  0
    8.2151    0.4011    1.4930 C   0  0  0  0  0  0  0  0  0  0  0  0
    8.7974   -2.7029   -0.6173 C   0  0  0  0  0  0  0  0  0  0  0  0
  -10.5451   -0.7684    2.9684 C   0  0  0  0  0  0  0  0  0  0  0  0
   -5.7750   -2.7727   -1.8860 H   0  0  0  0  0  0  0  0  0  0  0  0
   -6.9452   -1.7443   -2.6959 H   0  0  0  0  0  0  0  0  0  0  0  0
   -1.9903    0.4418   -0.1598 H   0  0  0  0  0  0  0  0  0  0  0  0
   -4.5086    2.0730   -2.7404 H   0  0  0  0  0  0  0  0  0  0  0  0
    0.3737    0.8917   -1.2592 H   0  0  0  0  0  0  0  0  0  0  0  0
   -6.7130   -3.8792   -0.0058 H   0  0  0  0  0  0  0  0  0  0  0  0
   -8.0108    0.1377   -0.9007 H   0  0  0  0  0  0  0  0  0  0  0  0
    0.7887    4.7564    1.8296 H   0  0  0  0  0  0  0  0  0  0  0  0
    2.6710    3.3230    1.4950 H   0  0  0  0  0  0  0  0  0  0  0  0
   -1.8417    5.2252   -0.1445 H   0  0  0  0  0  0  0  0  0  0  0  0
   -2.5846    4.0282    0.9569 H   0  0  0  0  0  0  0  0  0  0  0  0
   -1.4899    5.2487    1.5870 H   0  0  0  0  0  0  0  0  0  0  0  0
   -4.3903   -2.5451   -0.0918 H   0  0  0  0  0  0  0  0  0  0  0  0
   -2.9996   -1.6389    0.3335 H   0  0  0  0  0  0  0  0  0  0  0  0
   -8.2073   -3.9186    1.9517 H   0  0  0  0  0  0  0  0  0  0  0  0
   -9.4669    0.1191    1.0063 H   0  0  0  0  0  0  0  0  0  0  0  0
    2.5944    0.3650   -0.7688 H   0  0  0  0  0  0  0  0  0  0  0  0
    4.4052   -0.4835   -0.6911 H   0  0  0  0  0  0  0  0  0  0  0  0
    6.2734   -1.8595   -0.9871 H   0  0  0  0  0  0  0  0  0  0  0  0
    6.4675    1.5536    1.6653 H   0  0  0  0  0  0  0  0  0  0  0  0
    8.7436    1.0458    2.1910 H   0  0  0  0  0  0  0  0  0  0  0  0
   -9.9074    0.0942    3.1899 H   0  0  0  0  0  0  0  0  0  0  0  0
  -11.2484   -0.5665    2.1534 H   0  0  0  0  0  0  0  0  0  0  0  0
  -11.1425   -0.9625    3.8653 H   0  0  0  0  0  0  0  0  0  0  0  0
  1 37  1  0  0  0  0
  2 39  1  0  0  0  0
  3 39  1  0  0  0  0
  4 39  1  0  0  0  0
  5 21  2  0  0  0  0
  6 31  1  0  0  0  0
  6 40  1  0  0  0  0
  7 33  2  0  0  0  0
  8 10  1  0  0  0  0
  8 14  1  0  0  0  0
  8 15  1  0  0  0  0
  9 16  1  0  0  0  0
  9 21  1  0  0  0  0
  9 43  1  0  0  0  0
 10 20  2  0  0  0  0
 11 15  1  0  0  0  0
 11 53  1  0  0  0  0
 11 54  1  0  0  0  0
 12 23  1  0  0  0  0
 12 33  1  0  0  0  0
 12 57  1  0  0  0  0
 13 32  1  0  0  0  0
 13 33  1  0  0  0  0
 13 58  1  0  0  0  0
 14 17  1  0  0  0  0
 14 41  1  0  0  0  0
 14 42  1  0  0  0  0
 15 16  2  0  0  0  0
 16 20  1  0  0  0  0
 17 24  2  0  0  0  0
 17 25  1  0  0  0  0
 18 19  2  0  0  0  0
 18 21  1  0  0  0  0
 18 22  1  0  0  0  0
 19 26  1  0  0  0  0
 19 28  1  0  0  0  0
 20 44  1  0  0  0  0
 22 23  2  0  0  0  0
 22 45  1  0  0  0  0
 23 27  1  0  0  0  0
 24 29  1  0  0  0  0
 24 46  1  0  0  0  0
 25 30  2  0  0  0  0
 25 47  1  0  0  0  0
 26 27  2  0  0  0  0
 26 48  1  0  0  0  0
 27 49  1  0  0  0  0
 28 50  1  0  0  0  0
 28 51  1  0  0  0  0
 28 52  1  0  0  0  0
 29 31  2  0  0  0  0
 29 55  1  0  0  0  0
 30 31  1  0  0  0  0
 30 56  1  0  0  0  0
 32 35  2  0  0  0  0
 32 36  1  0  0  0  0
 34 35  1  0  0  0  0
 34 37  2  0  0  0  0
 34 39  1  0  0  0  0
 35 59  1  0  0  0  0
 36 38  2  0  0  0  0
 36 60  1  0  0  0  0
 37 38  1  0  0  0  0
 38 61  1  0  0  0  0
 40 62  1  0  0  0  0
 40 63  1  0  0  0  0
 40 64  1  0  0  0  0
M  END
> <PUBCHEM_COMPOUND_CID>
52938983

> <PUBCHEM_CONFORMER_RMSD>
1.4

> <PUBCHEM_CONFORMER_DIVERSEORDER>
1
165
146
144
77
66
188
23
133
168
67
171
150
97
174
123
40
6
58
164
104
90
65
177
49
138
43
93
169
129
148
52
59
103
101
125
62
141
149
41
170
20
161
137
111
57
107
166
162
91
120
74
157
155
160
153
38
185
134
105
60
115
14
26
75
64
53
50
135
76
116
56
190
122
118
121
22
175
158
78
181
33
147
30
127
136
82
139
131
28
182
17
163
95
128
154
39
44
85
113
29
94
98
24
34
2
184
46
140
42
37
191
152
21
69
151
71
112
88
124
106
63
119
130
176
4
47
27
45
84
110
68
51
86
48
73
186
178
109
10
173
102
167
81
8
7
180
54
72
100
189
70
92
80
55
183
11
99
117
143
32
108
179
96
132
83
145
142
35
126
31
36
156
172
87
9
18
89
114
13
61
79
187
5
19
3
16
159
15
25
12

> <PUBCHEM_MMFF94_PARTIAL_CHARGES>
56
1 -0.18
10 -0.71
11 -0.88
12 -0.55
13 -0.55
14 0.4
15 -0.07
16 0.06
17 -0.14
18 0.09
19 -0.14
2 -0.34
20 0.14
21 0.54
22 -0.15
23 0.12
24 -0.15
25 -0.15
26 -0.15
27 -0.15
28 0.14
29 -0.15
3 -0.34
30 -0.15
31 0.08
32 0.12
33 0.69
34 -0.14
35 -0.15
36 -0.15
37 0.18
38 -0.15
39 1.16
4 -0.34
40 0.28
43 0.37
44 0.15
45 0.15
46 0.15
47 0.15
48 0.15
49 0.15
5 -0.57
53 0.4
54 0.4
55 0.15
56 0.15
57 0.37
58 0.37
59 0.15
6 -0.36
60 0.15
61 0.15
7 -0.57
8 0.31
9 -0.49

> <PUBCHEM_EFFECTIVE_ROTOR_COUNT>
11

> <PUBCHEM_PHARMACOPHORE_FEATURES>
13
1 10 acceptor
1 11 cation
1 11 donor
1 12 donor
1 13 donor
1 5 acceptor
1 6 acceptor
1 7 acceptor
1 9 donor
5 8 10 15 16 20 rings
6 17 24 25 29 30 31 rings
6 18 19 22 23 26 27 rings
6 32 34 35 36 37 38 rings

> <PUBCHEM_HEAVY_ATOM_COUNT>
40

> <PUBCHEM_ATOM_DEF_STEREO_COUNT>
0

> <PUBCHEM_ATOM_UDEF_STEREO_COUNT>
0

> <PUBCHEM_BOND_DEF_STEREO_COUNT>
0

> <PUBCHEM_BOND_UDEF_STEREO_COUNT>
0

> <PUBCHEM_ISOTOPIC_ATOM_COUNT>
0

> <PUBCHEM_COMPONENT_COUNT>
1

> <PUBCHEM_CACTVS_TAUTO_COUNT>
18

> <PUBCHEM_CONFORMER_ID>
0327C8E700000001

> <PUBCHEM_MMFF94_ENERGY>
117.8057

> <PUBCHEM_FEATURE_SELFOVERLAP>
66.022

> <PUBCHEM_SHAPE_FINGERPRINT>
10740516 88 18409169921899277454
11374522 79 18260834790810238087
11672396 167 18198897188886326887
117089 54 18343300341317251452
11761917 87 18409731798622025617
12758862 56 18336815455801734657
13165054 146 8934994867575248601
15419008 145 18273222998160746889
15510800 12 18408038528807897186
15538507 75 14907911436097833918
15773216 30 18192149515833382884
17852330 53 16056332635132707238
1818759 1 18334575754599036030
19246450 95 17704357654901734605
20105231 36 17967813890658954987
2026 5 18261387815669523954
20982279 24 18408047298862434682
21130935 74 17983851461713467983
21927370 108 18342739607066535569
22149856 69 16128665154590965220
23522609 53 13624903391041675525
23569943 247 18270955843533010111
23729398 52 18194680595605625584
25242607 90 18272640277702208466
25269216 80 15791726417697401877
2835820 25 15769505261872067705
306946 40 11671784858215587907
3991529 202 18059861688036117377
437795 150 18259977150872385189
44575985 234 18337678637619017195
4461854 278 17632290207866056254
4756326 101 12607416447341392459
5372103 7 10303825280621985377
54039377 194 18186799205756049397
54728670 133 17775287111366155609
5719381 82 18186234039599483986
57676310 108 14129637614329709185
6327066 14 8574714619615460884
636775 8 17967810548277170844
9937071 3 18410006642005876250
9980921 7 10735875080527256865

> <PUBCHEM_SHAPE_MULTIPOLES>
755.74
41.51
5
2.12
22.57
2.89
0.29
-54.14
17.76
1.71
0.49
-5.61
-0.4
5.03

> <PUBCHEM_SHAPE_SELFOVERLAP>
1635.806

> <PUBCHEM_SHAPE_VOLUME>
415

> <PUBCHEM_COORDINATE_TYPE>
2
5
10

$$$$
