4269486
  -OEChem-10052115183D

 15 16  0     0  0  0  0  0  0999 V2000
   -2.2692    0.9666   -0.0001 S   0  0  0  0  0  0  0  0  0  0  0  0
    0.2343    1.8781    0.0004 N   0  0  0  0  0  0  0  0  0  0  0  0
    2.0723    0.2965   -0.0003 N   0  0  0  0  0  0  0  0  0  0  0  0
    1.7315   -2.0587    0.0002 N   0  0  0  0  0  0  0  0  0  0  0  0
   -0.1642   -0.5276    0.0000 C   0  0  0  0  0  0  0  0  0  0  0  0
   -0.5733    0.7996    0.0000 C   0  0  0  0  0  0  0  0  0  0  0  0
    1.2169   -0.7483   -0.0001 C   0  0  0  0  0  0  0  0  0  0  0  0
   -1.2915   -1.4083    0.0001 C   0  0  0  0  0  0  0  0  0  0  0  0
   -2.4910   -0.7296   -0.0001 C   0  0  0  0  0  0  0  0  0  0  0  0
    1.5341    1.5317   -0.0001 C   0  0  0  0  0  0  0  0  0  0  0  0
   -1.2325   -2.4895    0.0002 H   0  0  0  0  0  0  0  0  0  0  0  0
   -3.4864   -1.1508   -0.0002 H   0  0  0  0  0  0  0  0  0  0  0  0
    2.2417    2.3535    0.0001 H   0  0  0  0  0  0  0  0  0  0  0  0
    2.7340   -2.1904    0.0003 H   0  0  0  0  0  0  0  0  0  0  0  0
    1.1141   -2.8586    0.0005 H   0  0  0  0  0  0  0  0  0  0  0  0
  1  6  1  0  0  0  0
  1  9  1  0  0  0  0
  2  6  2  0  0  0  0
  2 10  1  0  0  0  0
  3  7  1  0  0  0  0
  3 10  2  0  0  0  0
  4  7  1  0  0  0  0
  4 14  1  0  0  0  0
  4 15  1  0  0  0  0
  5  6  1  0  0  0  0
  5  7  2  0  0  0  0
  5  8  1  0  0  0  0
  8  9  2  0  0  0  0
  8 11  1  0  0  0  0
  9 12  1  0  0  0  0
 10 13  1  0  0  0  0
M  END
> <PUBCHEM_COMPOUND_CID>
4269486

> <PUBCHEM_CONFORMER_RMSD>
0.4

> <PUBCHEM_CONFORMER_DIVERSEORDER>
1

> <PUBCHEM_MMFF94_PARTIAL_CHARGES>
14
1 -0.08
10 0.47
11 0.15
12 0.15
13 0.15
14 0.4
15 0.4
2 -0.57
3 -0.62
4 -0.9
6 0.3
7 0.41
8 -0.15
9 -0.11

> <PUBCHEM_EFFECTIVE_ROTOR_COUNT>
0

> <PUBCHEM_PHARMACOPHORE_FEATURES>
6
1 2 acceptor
1 4 cation
1 4 donor
3 2 3 10 cation
5 1 5 6 8 9 rings
6 2 3 5 6 7 10 rings

> <PUBCHEM_HEAVY_ATOM_COUNT>
10

> <PUBCHEM_ATOM_DEF_STEREO_COUNT>
0

> <PUBCHEM_ATOM_UDEF_STEREO_COUNT>
0

> <PUBCHEM_BOND_DEF_STEREO_COUNT>
0

> <PUBCHEM_BOND_UDEF_STEREO_COUNT>
0

> <PUBCHEM_ISOTOPIC_ATOM_COUNT>
0

> <PUBCHEM_COMPONENT_COUNT>
1

> <PUBCHEM_CACTVS_TAUTO_COUNT>
4

> <PUBCHEM_CONFORMER_ID>
004125AE00000001

> <PUBCHEM_MMFF94_ENERGY>
20.5828

> <PUBCHEM_FEATURE_SELFOVERLAP>
30.526

> <PUBCHEM_SHAPE_FINGERPRINT>
12423570 1 15021879831372356553
12524768 44 18269558243161182527
12897270 3 18266176325898587175
16945 1 18338516455754368933
18185500 45 18412262860829082575
193761 8 18338798918368102180
21040471 1 17618222149202462052
23552423 10 18334862722596104231
241688 4 18121781634019790352
2748010 2 18338515231635916231
29004967 10 18335986453586602019
5084963 1 17842568619025991185
528886 8 18194960979089462777
66348 1 18411420592030484039

> <PUBCHEM_SHAPE_MULTIPOLES>
194.7
3.09
2.02
0.6
0.72
0.09
0
0.18
0
-0.56
0
0.06
-0.01
0

> <PUBCHEM_SHAPE_SELFOVERLAP>
414.334

> <PUBCHEM_SHAPE_VOLUME>
110.4

> <PUBCHEM_COORDINATE_TYPE>
2
5
10

$$$$
