6539985
  -OEChem-10052115173D

 44 47  0     0  0  0  0  0  0999 V2000
    6.0199   -1.9634    0.8053 S   0  0  0  0  0  0  0  0  0  0  0  0
   -2.6074    0.0902    1.2327 O   0  0  0  0  0  0  0  0  0  0  0  0
   -1.7278   -0.5184   -0.8519 N   0  0  0  0  0  0  0  0  0  0  0  0
    7.1805    0.3971    0.3819 N   0  0  0  0  0  0  0  0  0  0  0  0
   -4.0054   -0.2141   -0.6172 N   0  0  0  0  0  0  0  0  0  0  0  0
    5.8239    2.2740   -0.3361 N   0  0  0  0  0  0  0  0  0  0  0  0
    3.4833    2.1100   -0.6840 N   0  0  0  0  0  0  0  0  0  0  0  0
    3.7932   -0.8668    0.1458 C   0  0  0  0  0  0  0  0  0  0  0  0
    2.3774   -0.7778   -0.1099 C   0  0  0  0  0  0  0  0  0  0  0  0
    4.7771    0.1660    0.0401 C   0  0  0  0  0  0  0  0  0  0  0  0
    6.0361   -0.3140    0.3765 C   0  0  0  0  0  0  0  0  0  0  0  0
    1.5082   -0.4310    0.9209 C   0  0  0  0  0  0  0  0  0  0  0  0
    1.8869   -1.0390   -1.3864 C   0  0  0  0  0  0  0  0  0  0  0  0
    4.3316   -2.0689    0.5509 C   0  0  0  0  0  0  0  0  0  0  0  0
   -0.3576   -0.6056   -0.6041 C   0  0  0  0  0  0  0  0  0  0  0  0
    4.7075    1.5146   -0.3246 C   0  0  0  0  0  0  0  0  0  0  0  0
    0.1382   -0.3447    0.6734 C   0  0  0  0  0  0  0  0  0  0  0  0
    0.5168   -0.9526   -1.6339 C   0  0  0  0  0  0  0  0  0  0  0  0
   -5.2879    0.0559   -0.0842 C   0  0  0  0  0  0  0  0  0  0  0  0
   -7.6615    0.2352   -0.3829 C   0  0  0  0  0  0  0  0  0  0  0  0
   -2.7692   -0.1841    0.0478 C   0  0  0  0  0  0  0  0  0  0  0  0
   -6.3973   -0.0298   -0.9093 C   0  0  0  0  0  0  0  0  0  0  0  0
   -5.4075    0.3990    1.2525 C   0  0  0  0  0  0  0  0  0  0  0  0
    6.9790    1.6750    0.0138 C   0  0  0  0  0  0  0  0  0  0  0  0
   -7.7989    0.5821    0.9611 C   0  0  0  0  0  0  0  0  0  0  0  0
   -6.6718    0.6640    1.7788 C   0  0  0  0  0  0  0  0  0  0  0  0
   -8.8672    0.1470   -1.2568 C   0  0  0  0  0  0  0  0  0  0  0  0
    1.8804   -0.2236    1.9214 H   0  0  0  0  0  0  0  0  0  0  0  0
    2.5555   -1.3094   -2.2001 H   0  0  0  0  0  0  0  0  0  0  0  0
    3.8238   -3.0104    0.7135 H   0  0  0  0  0  0  0  0  0  0  0  0
   -0.4715   -0.0700    1.5221 H   0  0  0  0  0  0  0  0  0  0  0  0
    0.1444   -1.1580   -2.6344 H   0  0  0  0  0  0  0  0  0  0  0  0
   -2.0128   -0.7224   -1.8066 H   0  0  0  0  0  0  0  0  0  0  0  0
   -6.2890   -0.3023   -1.9561 H   0  0  0  0  0  0  0  0  0  0  0  0
   -3.9857   -0.4600   -1.6038 H   0  0  0  0  0  0  0  0  0  0  0  0
   -4.5885    0.4842    1.9504 H   0  0  0  0  0  0  0  0  0  0  0  0
    7.8607    2.3061   -0.0036 H   0  0  0  0  0  0  0  0  0  0  0  0
   -8.7786    0.7890    1.3836 H   0  0  0  0  0  0  0  0  0  0  0  0
    3.4851    3.0887   -0.9397 H   0  0  0  0  0  0  0  0  0  0  0  0
    2.6153    1.5995   -0.6965 H   0  0  0  0  0  0  0  0  0  0  0  0
   -6.7802    0.9338    2.8254 H   0  0  0  0  0  0  0  0  0  0  0  0
   -8.6275    0.4260   -2.2885 H   0  0  0  0  0  0  0  0  0  0  0  0
   -9.2611   -0.8742   -1.2512 H   0  0  0  0  0  0  0  0  0  0  0  0
   -9.6543    0.8281   -0.9157 H   0  0  0  0  0  0  0  0  0  0  0  0
  1 11  1  0  0  0  0
  1 14  1  0  0  0  0
  2 21  2  0  0  0  0
  3 15  1  0  0  0  0
  3 21  1  0  0  0  0
  3 33  1  0  0  0  0
  4 11  2  0  0  0  0
  4 24  1  0  0  0  0
  5 19  1  0  0  0  0
  5 21  1  0  0  0  0
  5 35  1  0  0  0  0
  6 16  1  0  0  0  0
  6 24  2  0  0  0  0
  7 16  1  0  0  0  0
  7 39  1  0  0  0  0
  7 40  1  0  0  0  0
  8  9  1  0  0  0  0
  8 10  1  0  0  0  0
  8 14  2  0  0  0  0
  9 12  2  0  0  0  0
  9 13  1  0  0  0  0
 10 11  1  0  0  0  0
 10 16  2  0  0  0  0
 12 17  1  0  0  0  0
 12 28  1  0  0  0  0
 13 18  2  0  0  0  0
 13 29  1  0  0  0  0
 14 30  1  0  0  0  0
 15 17  2  0  0  0  0
 15 18  1  0  0  0  0
 17 31  1  0  0  0  0
 18 32  1  0  0  0  0
 19 22  1  0  0  0  0
 19 23  2  0  0  0  0
 20 22  2  0  0  0  0
 20 25  1  0  0  0  0
 20 27  1  0  0  0  0
 22 34  1  0  0  0  0
 23 26  1  0  0  0  0
 23 36  1  0  0  0  0
 24 37  1  0  0  0  0
 25 26  2  0  0  0  0
 25 38  1  0  0  0  0
 26 41  1  0  0  0  0
 27 42  1  0  0  0  0
 27 43  1  0  0  0  0
 27 44  1  0  0  0  0
M  END
> <PUBCHEM_COMPOUND_CID>
6539985

> <PUBCHEM_CONFORMER_RMSD>
0.8

> <PUBCHEM_CONFORMER_DIVERSEORDER>
2
11
15
10
17
7
16
12
9
4
18
3
13
14
6
1
5
8

> <PUBCHEM_MMFF94_PARTIAL_CHARGES>
40
1 -0.08
11 0.3
12 -0.15
13 -0.15
14 -0.11
15 0.12
16 0.41
17 -0.15
18 -0.15
19 0.12
2 -0.57
20 -0.14
21 0.69
22 -0.15
23 -0.15
24 0.47
25 -0.15
26 -0.15
27 0.14
28 0.15
29 0.15
3 -0.55
30 0.15
31 0.15
32 0.15
33 0.37
34 0.15
35 0.37
36 0.15
37 0.15
38 0.15
39 0.4
4 -0.57
40 0.4
41 0.15
5 -0.55
6 -0.62
7 -0.9
8 -0.05
9 0.05

> <PUBCHEM_EFFECTIVE_ROTOR_COUNT>
5

> <PUBCHEM_PHARMACOPHORE_FEATURES>
11
1 2 acceptor
1 3 donor
1 4 acceptor
1 5 donor
1 7 cation
1 7 donor
3 4 6 24 cation
5 1 8 10 11 14 rings
6 19 20 22 23 25 26 rings
6 4 6 10 11 16 24 rings
6 9 12 13 15 17 18 rings

> <PUBCHEM_HEAVY_ATOM_COUNT>
27

> <PUBCHEM_ATOM_DEF_STEREO_COUNT>
0

> <PUBCHEM_ATOM_UDEF_STEREO_COUNT>
0

> <PUBCHEM_BOND_DEF_STEREO_COUNT>
0

> <PUBCHEM_BOND_UDEF_STEREO_COUNT>
0

> <PUBCHEM_ISOTOPIC_ATOM_COUNT>
0

> <PUBCHEM_COMPONENT_COUNT>
1

> <PUBCHEM_CACTVS_TAUTO_COUNT>
12

> <PUBCHEM_CONFORMER_ID>
0063CAD100000002

> <PUBCHEM_MMFF94_ENERGY>
85.7286

> <PUBCHEM_FEATURE_SELFOVERLAP>
55.95

> <PUBCHEM_SHAPE_FINGERPRINT>
10 15 16732704977731996084
10162869 55 18337944684133411335
10299344 5 18060418010913002923
10554248 39 17702940306312446645
10906281 52 17775300356363956427
11315181 36 18344145900567161875
11524674 6 16660370281785655243
11646440 116 16732707142474810061
11719270 70 17203327775717341350
12166972 35 8286195050678980975
12236239 1 18130785677138408166
125118 31 18410013196068330757
13167372 99 18341334396735294472
13533116 47 18041561339078412034
13617811 41 16343706543012463024
14068700 675 13406798818110462599
14170010 4 17822012008379146926
14251757 52 17703785951240267128
14251764 18 17989203742319881579
14251764 46 15936410031161154411
14294032 229 17418375757815600769
14429380 56 18410567414157905005
14849402 71 18340771545656246529
14856354 85 17418091049397910093
15131766 46 18192989555005417172
15183329 4 17418096524853653305
15301273 46 16588021299194796423
15348495 7 17386016125518799081
15419008 47 17095517392444349621
15419008 91 16588295116714350309
15475509 35 16081914968329058458
15510794 2 17603304852433052491
1577012 14 18131068246714412631
15840311 113 18201437009027240832
15849732 13 17385444310953741391
16120349 18 18408598180126286557
16989713 51 16342844586827566111
17093844 174 17313104151750002553
18335252 114 18273496788786745732
20157964 124 18409167701859809450
2026 5 10015047330469280004
20771845 171 17846505820590555126
21095086 128 10159691405497151485
21150785 3 15051735300414553245
21344244 78 18198326387642400938
21792934 111 17313103043205706013
22122407 14 18270413783620028280
22224240 67 17822008718276456011
22956985 138 13264329521768996696
23081809 10 17988918972823972511
23522609 53 17845393127492155641
23576562 1 17130416003036716061
255183 451 17843132403222018318
3092352 35 18131630088529985158
3383291 50 15791742923093275713
397830 11 17605005869349882699
4073 2 17895760711087836674
4325135 7 18272369771924343709
4340502 62 17967533476196287946
445580 37 15913336775684219587
45377200 153 11815314037313245557
5758199 1 17561365067712495687
59520757 100 15984529126494812564
59755656 215 14549024264420999485

> <PUBCHEM_SHAPE_MULTIPOLES>
528.72
26.29
1.64
1.31
33.83
0.41
-0.03
6.76
-2.14
-4.5
0.06
1.76
-0.12
-1.46

> <PUBCHEM_SHAPE_SELFOVERLAP>
1159.601

> <PUBCHEM_SHAPE_VOLUME>
287

> <PUBCHEM_COORDINATE_TYPE>
2
5
10

$$$$
