448991
  -OEChem-10052120443D

 55 57  0     1  0  0  0  0  0999 V2000
    4.1942   -1.0078    1.4341 Cl  0  0  0  0  0  0  0  0  0  0  0  0
   -0.7733   -4.3365    2.1009 O   0  0  0  0  0  0  0  0  0  0  0  0
    6.5298    2.1460    0.5313 O   0  0  0  0  0  0  0  0  0  0  0  0
    6.4560    0.1349   -0.5254 O   0  0  0  0  0  0  0  0  0  0  0  0
   -1.4865   -2.4608    0.1556 N   0  0  0  0  0  0  0  0  0  0  0  0
   -4.3067    1.3595    0.0151 N   0  0  0  0  0  0  0  0  0  0  0  0
   -3.0384   -0.7107    0.0911 N   0  0  0  0  0  0  0  0  0  0  0  0
   -0.6363   -0.2800    0.0641 N   0  0  0  0  0  0  0  0  0  0  0  0
   -2.6334    2.8311   -0.0506 N   0  0  0  0  0  0  0  0  0  0  0  0
    0.2716    1.9324   -0.0258 N   0  0  0  0  0  0  0  0  0  0  0  0
   -0.1524   -3.0339    0.1709 C   0  0  2  0  0  0  0  0  0  0  0  0
    0.4508   -3.0417   -1.2532 C   0  0  0  0  0  0  0  0  0  0  0  0
   -0.2148   -4.4308    0.7941 C   0  0  0  0  0  0  0  0  0  0  0  0
   -0.3932   -3.8043   -2.2794 C   0  0  0  0  0  0  0  0  0  0  0  0
    1.8835   -3.5873   -1.2498 C   0  0  0  0  0  0  0  0  0  0  0  0
   -5.6572    0.8521    0.0399 C   0  0  0  0  0  0  0  0  0  0  0  0
   -3.1557    0.6246    0.0392 C   0  0  0  0  0  0  0  0  0  0  0  0
   -1.7305   -1.1024    0.1010 C   0  0  0  0  0  0  0  0  0  0  0  0
   -2.1299    1.5554   -0.0018 C   0  0  0  0  0  0  0  0  0  0  0  0
   -0.8300    1.0599    0.0125 C   0  0  0  0  0  0  0  0  0  0  0  0
   -3.9412    2.6784   -0.0394 C   0  0  0  0  0  0  0  0  0  0  0  0
   -6.4148    1.3017    1.2905 C   0  0  0  0  0  0  0  0  0  0  0  0
   -6.4227    1.1994   -1.2384 C   0  0  0  0  0  0  0  0  0  0  0  0
    1.6664    1.7157   -0.0237 C   0  0  0  0  0  0  0  0  0  0  0  0
    2.1972    0.5998    0.6219 C   0  0  0  0  0  0  0  0  0  0  0  0
    2.5116    2.6185   -0.6677 C   0  0  0  0  0  0  0  0  0  0  0  0
    3.5756    0.3862    0.6236 C   0  0  0  0  0  0  0  0  0  0  0  0
    3.8901    2.4050   -0.6658 C   0  0  0  0  0  0  0  0  0  0  0  0
    4.4220    1.2887   -0.0202 C   0  0  0  0  0  0  0  0  0  0  0  0
    5.8683    1.1067   -0.0446 C   0  0  0  0  0  0  0  0  0  0  0  0
    0.4840   -2.4297    0.8315 H   0  0  0  0  0  0  0  0  0  0  0  0
    0.5114   -2.0035   -1.6046 H   0  0  0  0  0  0  0  0  0  0  0  0
   -2.2914   -3.0765    0.1375 H   0  0  0  0  0  0  0  0  0  0  0  0
    0.7800   -4.8737    0.8925 H   0  0  0  0  0  0  0  0  0  0  0  0
   -0.8498   -5.1073    0.2138 H   0  0  0  0  0  0  0  0  0  0  0  0
   -0.4561   -4.8710   -2.0436 H   0  0  0  0  0  0  0  0  0  0  0  0
    0.0502   -3.7153   -3.2776 H   0  0  0  0  0  0  0  0  0  0  0  0
   -1.4105   -3.4056   -2.3398 H   0  0  0  0  0  0  0  0  0  0  0  0
    2.4931   -3.0830   -0.4934 H   0  0  0  0  0  0  0  0  0  0  0  0
    1.9135   -4.6644   -1.0584 H   0  0  0  0  0  0  0  0  0  0  0  0
    2.3568   -3.4166   -2.2231 H   0  0  0  0  0  0  0  0  0  0  0  0
   -5.5857   -0.2421    0.0840 H   0  0  0  0  0  0  0  0  0  0  0  0
   -4.6636    3.4829   -0.0689 H   0  0  0  0  0  0  0  0  0  0  0  0
   -5.8659    1.0299    2.1989 H   0  0  0  0  0  0  0  0  0  0  0  0
   -7.4003    0.8265    1.3368 H   0  0  0  0  0  0  0  0  0  0  0  0
   -6.5646    2.3868    1.3040 H   0  0  0  0  0  0  0  0  0  0  0  0
   -6.5728    2.2799   -1.3386 H   0  0  0  0  0  0  0  0  0  0  0  0
   -7.4085    0.7224   -1.2400 H   0  0  0  0  0  0  0  0  0  0  0  0
   -5.8794    0.8547   -2.1253 H   0  0  0  0  0  0  0  0  0  0  0  0
    0.0130    2.9005   -0.1967 H   0  0  0  0  0  0  0  0  0  0  0  0
   -0.7977   -5.2374    2.4661 H   0  0  0  0  0  0  0  0  0  0  0  0
    1.5602   -0.0960    1.1594 H   0  0  0  0  0  0  0  0  0  0  0  0
    2.1092    3.4911   -1.1759 H   0  0  0  0  0  0  0  0  0  0  0  0
    4.5353    3.1158   -1.1760 H   0  0  0  0  0  0  0  0  0  0  0  0
    7.5020    2.0168    0.5102 H   0  0  0  0  0  0  0  0  0  0  0  0
  1 27  1  0  0  0  0
  2 13  1  0  0  0  0
  2 51  1  0  0  0  0
  3 30  1  0  0  0  0
  3 55  1  0  0  0  0
  4 30  2  0  0  0  0
  5 11  1  0  0  0  0
  5 18  1  0  0  0  0
  5 33  1  0  0  0  0
  6 16  1  0  0  0  0
  6 17  1  0  0  0  0
  6 21  1  0  0  0  0
  7 17  2  0  0  0  0
  7 18  1  0  0  0  0
  8 18  2  0  0  0  0
  8 20  1  0  0  0  0
  9 19  1  0  0  0  0
  9 21  2  0  0  0  0
 10 20  1  0  0  0  0
 10 24  1  0  0  0  0
 10 50  1  0  0  0  0
 11 12  1  0  0  0  0
 11 13  1  0  0  0  0
 11 31  1  0  0  0  0
 12 14  1  0  0  0  0
 12 15  1  0  0  0  0
 12 32  1  0  0  0  0
 13 34  1  0  0  0  0
 13 35  1  0  0  0  0
 14 36  1  0  0  0  0
 14 37  1  0  0  0  0
 14 38  1  0  0  0  0
 15 39  1  0  0  0  0
 15 40  1  0  0  0  0
 15 41  1  0  0  0  0
 16 22  1  0  0  0  0
 16 23  1  0  0  0  0
 16 42  1  0  0  0  0
 17 19  1  0  0  0  0
 19 20  2  0  0  0  0
 21 43  1  0  0  0  0
 22 44  1  0  0  0  0
 22 45  1  0  0  0  0
 22 46  1  0  0  0  0
 23 47  1  0  0  0  0
 23 48  1  0  0  0  0
 23 49  1  0  0  0  0
 24 25  2  0  0  0  0
 24 26  1  0  0  0  0
 25 27  1  0  0  0  0
 25 52  1  0  0  0  0
 26 28  2  0  0  0  0
 26 53  1  0  0  0  0
 27 29  2  0  0  0  0
 28 29  1  0  0  0  0
 28 54  1  0  0  0  0
 29 30  1  0  0  0  0
M  END
> <PUBCHEM_COMPOUND_CID>
448991

> <PUBCHEM_CONFORMER_RMSD>
1

> <PUBCHEM_CONFORMER_DIVERSEORDER>
1
51
35
22
11
44
57
52
12
54
9
42
32
27
15
7
21
47
40
48
36
28
37
53
19
8
38
25
55
33
13
56
26
10
31
50
14
30
39
58
17
45
43
18
29
16
23
46
49
41
5
3
20
34
24
2
6
4

> <PUBCHEM_MMFF94_PARTIAL_CHARGES>
33
1 -0.18
10 -0.6
11 0.37
13 0.28
16 0.26
17 0.11
18 0.72
19 0.23
2 -0.68
20 0.41
21 0.04
24 0.1
25 -0.15
26 -0.15
27 0.18
28 -0.15
29 0.09
3 -0.65
30 0.63
33 0.4
4 -0.57
43 0.15
5 -0.87
50 0.4
51 0.4
52 0.15
53 0.15
54 0.15
55 0.5
6 0.05
7 -0.57
8 -0.62
9 -0.57

> <PUBCHEM_EFFECTIVE_ROTOR_COUNT>
8

> <PUBCHEM_PHARMACOPHORE_FEATURES>
15
1 10 cation
1 10 donor
1 2 acceptor
1 2 donor
1 3 acceptor
1 4 acceptor
1 5 donor
3 12 14 15 hydrophobe
3 16 22 23 hydrophobe
3 3 4 30 anion
3 6 9 21 cation
4 5 7 8 18 cation
5 6 9 17 19 21 rings
6 24 25 26 27 28 29 rings
6 7 8 17 18 19 20 rings

> <PUBCHEM_HEAVY_ATOM_COUNT>
30

> <PUBCHEM_ATOM_DEF_STEREO_COUNT>
1

> <PUBCHEM_ATOM_UDEF_STEREO_COUNT>
0

> <PUBCHEM_BOND_DEF_STEREO_COUNT>
0

> <PUBCHEM_BOND_UDEF_STEREO_COUNT>
0

> <PUBCHEM_ISOTOPIC_ATOM_COUNT>
0

> <PUBCHEM_COMPONENT_COUNT>
1

> <PUBCHEM_CACTVS_TAUTO_COUNT>
13

> <PUBCHEM_CONFORMER_ID>
0006D9DF00000001

> <PUBCHEM_MMFF94_ENERGY>
80.463

> <PUBCHEM_FEATURE_SELFOVERLAP>
76.312

> <PUBCHEM_SHAPE_FINGERPRINT>
10616163 171 18265334083218218290
107951 10 18334017211351132434
11135926 11 18412820292952348021
11513181 2 18201999919798748630
11524674 6 18202281416059553164
11991303 11 18114185297331151079
12553582 1 17042606986097747142
12597179 24 18411989061175597519
12741549 16 13768200627384643180
12788726 201 18123173860559614787
13540713 4 17973170531126769525
138480 1 17761211007790486162
14028597 1 17560534897741740953
14866123 147 18265616657501224971
15042514 8 18119817069061280067
15131766 46 15793438464602524036
15664445 248 17695074297059359671
15927050 60 18412544306132120519
16719943 64 18410011065637444866
18681886 176 18411132567688434160
20028762 73 18272083942272600085
20554085 129 17988062440064444560
21033648 29 17916573367243818776
21133410 171 17043111550757227930
21344244 246 18343297029549580047
23366157 5 17973448702792983937
23559900 14 18342748394669207132
23598288 3 18049165763158866694
249057 3 18410013256672646292
3298306 158 18342181046284068374
340366 18 18114750437908115868
3411729 13 18268433430482225201
38695281 34 18272933808541563919
4017518 198 18202286901334632182
4073 2 18264488567788782864
4093350 32 16916235356178225621
5265222 85 18339088193427812060
532947 4 18268154158122182479
5385378 56 18271255906658269961
59755656 215 18411137991920386045
6376802 90 17749948831691316989
6669772 16 18411702054096413199
6673363 416 17259917217619249686

> <PUBCHEM_SHAPE_MULTIPOLES>
571.76
13.41
5.41
1.3
0.87
7.69
-0.07
-13.39
0.79
-0.73
-0.52
0.14
1.49
0.02

> <PUBCHEM_SHAPE_SELFOVERLAP>
1206.039

> <PUBCHEM_SHAPE_VOLUME>
322.1

> <PUBCHEM_COORDINATE_TYPE>
2
5
10

$$$$
