49830656
  -OEChem-10062121543D

 70 73  0     0  0  0  0  0  0999 V2000
    0.2040    3.1362   -0.6295 O   0  0  0  0  0  0  0  0  0  0  0  0
    0.9885   -5.3566   -0.3166 O   0  0  0  0  0  0  0  0  0  0  0  0
   -4.9143   -2.2493   -0.3623 O   0  0  0  0  0  0  0  0  0  0  0  0
    3.1768    0.1341    0.3843 N   0  0  0  0  0  0  0  0  0  0  0  0
    4.4750    0.4616    0.2672 N   0  0  0  0  0  0  0  0  0  0  0  0
    0.9120    1.0264    0.0887 N   0  0  0  0  0  0  0  0  0  0  0  0
    0.0671   -3.4958   -1.3487 N   0  0  0  0  0  0  0  0  0  0  0  0
   -1.3441    1.4743   -0.0591 N   0  0  0  0  0  0  0  0  0  0  0  0
    5.6846    2.4554   -0.4171 C   0  0  0  0  0  0  0  0  0  0  0  0
    4.4312    1.7258   -0.1614 C   0  0  0  0  0  0  0  0  0  0  0  0
    5.7932    2.9271   -1.9076 C   0  0  0  0  0  0  0  0  0  0  0  0
    7.0140    1.6570   -0.1532 C   0  0  0  0  0  0  0  0  0  0  0  0
    5.8069    3.7377    0.4755 C   0  0  0  0  0  0  0  0  0  0  0  0
    3.1155    2.2019   -0.3167 C   0  0  0  0  0  0  0  0  0  0  0  0
    2.3216    1.1415    0.0463 C   0  0  0  0  0  0  0  0  0  0  0  0
    2.8251   -1.1454    0.8177 C   0  0  0  0  0  0  0  0  0  0  0  0
    2.0629   -1.9754   -0.0045 C   0  0  0  0  0  0  0  0  0  0  0  0
    3.2367   -1.5946    2.0726 C   0  0  0  0  0  0  0  0  0  0  0  0
    1.7121   -3.2543    0.4281 C   0  0  0  0  0  0  0  0  0  0  0  0
   -0.0449    1.9994   -0.2411 C   0  0  0  0  0  0  0  0  0  0  0  0
    2.8863   -2.8737    2.5051 C   0  0  0  0  0  0  0  0  0  0  0  0
   -2.1792   -4.4820   -1.6510 C   0  0  0  0  0  0  0  0  0  0  0  0
   -0.8018   -4.2173   -2.2507 C   0  0  0  0  0  0  0  0  0  0  0  0
    2.1238   -3.7034    1.6829 C   0  0  0  0  0  0  0  0  0  0  0  0
    0.9168   -4.1200   -0.4283 C   0  0  0  0  0  0  0  0  0  0  0  0
   -2.9252   -3.1929   -1.3055 C   0  0  0  0  0  0  0  0  0  0  0  0
   -2.5762    2.1051   -0.2716 C   0  0  0  0  0  0  0  0  0  0  0  0
   -3.7173    1.7706    0.4755 C   0  0  0  0  0  0  0  0  0  0  0  0
   -4.9358    2.4423    0.2160 C   0  0  0  0  0  0  0  0  0  0  0  0
   -4.2795   -3.4822   -0.6725 C   0  0  0  0  0  0  0  0  0  0  0  0
   -2.6353    3.0877   -1.2603 C   0  0  0  0  0  0  0  0  0  0  0  0
   -3.6760    0.7843    1.4744 C   0  0  0  0  0  0  0  0  0  0  0  0
   -4.9770    3.4286   -0.7829 C   0  0  0  0  0  0  0  0  0  0  0  0
   -3.8335    3.7481   -1.5155 C   0  0  0  0  0  0  0  0  0  0  0  0
   -6.0769    2.1077    0.9631 C   0  0  0  0  0  0  0  0  0  0  0  0
   -4.8195    0.4647    2.2069 C   0  0  0  0  0  0  0  0  0  0  0  0
   -6.0176    1.1251    1.9518 C   0  0  0  0  0  0  0  0  0  0  0  0
    6.7269    3.4703   -2.0918 H   0  0  0  0  0  0  0  0  0  0  0  0
    5.7578    2.0690   -2.5888 H   0  0  0  0  0  0  0  0  0  0  0  0
    4.9639    3.5933   -2.1719 H   0  0  0  0  0  0  0  0  0  0  0  0
    7.9006    2.2656   -0.3651 H   0  0  0  0  0  0  0  0  0  0  0  0
    7.0721    1.3317    0.8921 H   0  0  0  0  0  0  0  0  0  0  0  0
    7.0626    0.7618   -0.7841 H   0  0  0  0  0  0  0  0  0  0  0  0
    6.7405    4.2774    0.2805 H   0  0  0  0  0  0  0  0  0  0  0  0
    4.9779    4.4298    0.2874 H   0  0  0  0  0  0  0  0  0  0  0  0
    5.7817    3.4731    1.5390 H   0  0  0  0  0  0  0  0  0  0  0  0
    2.7991    3.1802   -0.6478 H   0  0  0  0  0  0  0  0  0  0  0  0
    0.5566    0.1305    0.4082 H   0  0  0  0  0  0  0  0  0  0  0  0
    1.7909   -1.6207   -0.9956 H   0  0  0  0  0  0  0  0  0  0  0  0
    3.8276   -0.9596    2.7283 H   0  0  0  0  0  0  0  0  0  0  0  0
   -2.7714   -5.0668   -2.3648 H   0  0  0  0  0  0  0  0  0  0  0  0
   -2.0711   -5.0922   -0.7457 H   0  0  0  0  0  0  0  0  0  0  0  0
    3.2052   -3.2225    3.4829 H   0  0  0  0  0  0  0  0  0  0  0  0
   -0.8907   -3.6185   -3.1633 H   0  0  0  0  0  0  0  0  0  0  0  0
   -0.3275   -5.1681   -2.5167 H   0  0  0  0  0  0  0  0  0  0  0  0
    1.8572   -4.6945    2.0409 H   0  0  0  0  0  0  0  0  0  0  0  0
   -2.3397   -2.5758   -0.6130 H   0  0  0  0  0  0  0  0  0  0  0  0
   -3.0646   -2.5821   -2.2062 H   0  0  0  0  0  0  0  0  0  0  0  0
   -0.0105   -2.4846   -1.3655 H   0  0  0  0  0  0  0  0  0  0  0  0
   -1.3668    0.5933    0.4426 H   0  0  0  0  0  0  0  0  0  0  0  0
   -4.9211   -4.0413   -1.3609 H   0  0  0  0  0  0  0  0  0  0  0  0
   -4.1636   -4.0554    0.2528 H   0  0  0  0  0  0  0  0  0  0  0  0
   -1.7844    3.3410   -1.8843 H   0  0  0  0  0  0  0  0  0  0  0  0
   -2.7713    0.2401    1.7275 H   0  0  0  0  0  0  0  0  0  0  0  0
   -5.9033    3.9562   -1.0009 H   0  0  0  0  0  0  0  0  0  0  0  0
   -3.8820    4.5062   -2.2918 H   0  0  0  0  0  0  0  0  0  0  0  0
   -7.0241    2.6109    0.7807 H   0  0  0  0  0  0  0  0  0  0  0  0
   -4.7745   -0.2992    2.9778 H   0  0  0  0  0  0  0  0  0  0  0  0
   -6.9074    0.8758    2.5225 H   0  0  0  0  0  0  0  0  0  0  0  0
   -5.7703   -2.4635    0.0461 H   0  0  0  0  0  0  0  0  0  0  0  0
  1 20  2  0  0  0  0
  2 25  2  0  0  0  0
  3 30  1  0  0  0  0
  3 70  1  0  0  0  0
  4  5  1  0  0  0  0
  4 15  1  0  0  0  0
  4 16  1  0  0  0  0
  5 10  2  0  0  0  0
  6 15  1  0  0  0  0
  6 20  1  0  0  0  0
  6 48  1  0  0  0  0
  7 23  1  0  0  0  0
  7 25  1  0  0  0  0
  7 59  1  0  0  0  0
  8 20  1  0  0  0  0
  8 27  1  0  0  0  0
  8 60  1  0  0  0  0
  9 10  1  0  0  0  0
  9 11  1  0  0  0  0
  9 12  1  0  0  0  0
  9 13  1  0  0  0  0
 10 14  1  0  0  0  0
 11 38  1  0  0  0  0
 11 39  1  0  0  0  0
 11 40  1  0  0  0  0
 12 41  1  0  0  0  0
 12 42  1  0  0  0  0
 12 43  1  0  0  0  0
 13 44  1  0  0  0  0
 13 45  1  0  0  0  0
 13 46  1  0  0  0  0
 14 15  2  0  0  0  0
 14 47  1  0  0  0  0
 16 17  1  0  0  0  0
 16 18  2  0  0  0  0
 17 19  2  0  0  0  0
 17 49  1  0  0  0  0
 18 21  1  0  0  0  0
 18 50  1  0  0  0  0
 19 24  1  0  0  0  0
 19 25  1  0  0  0  0
 21 24  2  0  0  0  0
 21 53  1  0  0  0  0
 22 23  1  0  0  0  0
 22 26  1  0  0  0  0
 22 51  1  0  0  0  0
 22 52  1  0  0  0  0
 23 54  1  0  0  0  0
 23 55  1  0  0  0  0
 24 56  1  0  0  0  0
 26 30  1  0  0  0  0
 26 57  1  0  0  0  0
 26 58  1  0  0  0  0
 27 28  1  0  0  0  0
 27 31  2  0  0  0  0
 28 29  1  0  0  0  0
 28 32  2  0  0  0  0
 29 33  1  0  0  0  0
 29 35  2  0  0  0  0
 30 61  1  0  0  0  0
 30 62  1  0  0  0  0
 31 34  1  0  0  0  0
 31 63  1  0  0  0  0
 32 36  1  0  0  0  0
 32 64  1  0  0  0  0
 33 34  2  0  0  0  0
 33 65  1  0  0  0  0
 34 66  1  0  0  0  0
 35 37  1  0  0  0  0
 35 67  1  0  0  0  0
 36 37  2  0  0  0  0
 36 68  1  0  0  0  0
 37 69  1  0  0  0  0
M  END
> <PUBCHEM_COMPOUND_CID>
49830656

> <PUBCHEM_CONFORMER_RMSD>
1.2

> <PUBCHEM_CONFORMER_DIVERSEORDER>
2
52
48
38
57
56
23
44
32
14
25
26
20
24
40
45
16
12
6
22
35
61
49
11
39
62
53
41
17
58
43
54
51
13
21
47
28
7
60
34
9
8
46
59
33
19
50
10
18
5
29
27
42
55
15
31
4
37
30
36
1
3

> <PUBCHEM_MMFF94_PARTIAL_CHARGES>
46
1 -0.57
10 0.11
14 -0.15
15 -0.09
16 -0.02
17 -0.15
18 -0.15
19 0.09
2 -0.57
20 0.69
21 -0.15
23 0.3
24 -0.15
25 0.54
27 0.12
3 -0.68
30 0.28
31 -0.15
32 -0.15
33 -0.15
34 -0.15
35 -0.15
36 -0.15
37 -0.15
4 0.59
47 0.15
48 0.37
49 0.15
5 -0.71
50 0.15
53 0.15
56 0.15
59 0.37
6 -0.49
60 0.37
63 0.15
64 0.15
65 0.15
66 0.15
67 0.15
68 0.15
69 0.15
7 -0.73
70 0.4
8 -0.55
9 0.18

> <PUBCHEM_EFFECTIVE_ROTOR_COUNT>
12

> <PUBCHEM_PHARMACOPHORE_FEATURES>
13
1 1 acceptor
1 2 acceptor
1 3 acceptor
1 3 donor
1 5 acceptor
1 6 donor
1 7 donor
1 8 donor
4 9 11 12 13 hydrophobe
5 4 5 10 14 15 rings
6 16 17 18 19 21 24 rings
6 27 28 29 31 33 34 rings
6 28 29 32 35 36 37 rings

> <PUBCHEM_HEAVY_ATOM_COUNT>
37

> <PUBCHEM_ATOM_DEF_STEREO_COUNT>
0

> <PUBCHEM_ATOM_UDEF_STEREO_COUNT>
0

> <PUBCHEM_BOND_DEF_STEREO_COUNT>
0

> <PUBCHEM_BOND_UDEF_STEREO_COUNT>
0

> <PUBCHEM_ISOTOPIC_ATOM_COUNT>
0

> <PUBCHEM_COMPONENT_COUNT>
1

> <PUBCHEM_CACTVS_TAUTO_COUNT>
14

> <PUBCHEM_CONFORMER_ID>
02F85B0000000002

> <PUBCHEM_MMFF94_ENERGY>
117.5552

> <PUBCHEM_FEATURE_SELFOVERLAP>
66.049

> <PUBCHEM_SHAPE_FINGERPRINT>
10010297 198 18260829280694478818
10169797 241 17970650500997046466
10190206 1 18193271021739605604
10290309 65 18339084774581213813
10815517 723 18052261992002127908
11204353 107 18409725192277457353
11434127 23 17386575789701011121
11991303 11 18265916815938835108
12202916 173 16674958335046714966
12788726 201 18124582330912899750
14004853 49 18411690011292484520
14026016 164 18050850219504989399
14114206 34 17838310223456132502
14294032 229 18338795745252706584
15183329 4 11887684948403175148
15264996 163 18049999197811351527
15351339 4 17182760607676749346
15392192 104 18341629083991471705
161222 619 18053100628065821295
1979834 28 17911504403231867355
20764821 26 18268700616003002935
21133410 58 17542764436479606525
23559900 14 17827634751476746481
3178227 256 18261956233622299936
4461854 278 18048063996937310531
50677037 204 17619630619186793953
563151 40 18339655532921478348
6176135 31 18197494026995951427
6608658 132 18055620966204323087
9658208 31 18267309901777917624
9982175 49 17898577732955914021

> <PUBCHEM_SHAPE_MULTIPOLES>
718.93
14.88
8.05
1.95
1.96
8.57
-0.46
-16.98
-2.46
-0.62
3.65
-0.85
1.36
-3.39

> <PUBCHEM_SHAPE_SELFOVERLAP>
1543.041

> <PUBCHEM_SHAPE_VOLUME>
396.1

> <PUBCHEM_COORDINATE_TYPE>
2
5
10

$$$$
