49830883
  -OEChem-10052120443D

 42 44  0     0  0  0  0  0  0999 V2000
    1.9043   -0.1250   -2.2535 O   0  0  0  0  0  0  0  0  0  0  0  0
   -2.8584   -3.3743   -0.1286 O   0  0  0  0  0  0  0  0  0  0  0  0
   -4.4568   -1.3676    1.5259 O   0  0  0  0  0  0  0  0  0  0  0  0
    4.2484   -0.5503    1.8743 O   0  0  0  0  0  0  0  0  0  0  0  0
   -1.0677   -1.0722   -1.4825 N   0  0  0  0  0  0  0  0  0  0  0  0
   -2.8314    1.1367    0.3421 N   0  0  0  0  0  0  0  0  0  0  0  0
    0.2170    4.0443    0.1380 N   0  0  0  0  0  0  0  0  0  0  0  0
   -2.0422   -1.0422   -0.6050 C   0  0  0  0  0  0  0  0  0  0  0  0
   -0.0290   -2.0785   -1.4750 C   0  0  0  0  0  0  0  0  0  0  0  0
   -2.7532   -0.1497    0.1307 C   0  0  0  0  0  0  0  0  0  0  0  0
    1.1073   -1.6654   -0.5991 C   0  0  0  0  0  0  0  0  0  0  0  0
   -2.7876   -2.1751   -0.0607 C   0  0  0  0  0  0  0  0  0  0  0  0
   -3.5607   -1.2044    0.7396 C   0  0  0  0  0  0  0  0  0  0  0  0
    2.0248   -0.7056   -1.0268 C   0  0  0  0  0  0  0  0  0  0  0  0
    1.2454   -2.2503    0.6597 C   0  0  0  0  0  0  0  0  0  0  0  0
    3.0806   -0.3310   -0.1956 C   0  0  0  0  0  0  0  0  0  0  0  0
   -1.8033    2.1172    0.2735 C   0  0  0  0  0  0  0  0  0  0  0  0
    2.3014   -1.8758    1.4907 C   0  0  0  0  0  0  0  0  0  0  0  0
    3.2189   -0.9161    1.0630 C   0  0  0  0  0  0  0  0  0  0  0  0
   -2.1094    3.4253   -0.0850 C   0  0  0  0  0  0  0  0  0  0  0  0
   -0.4882    1.7715    0.5644 C   0  0  0  0  0  0  0  0  0  0  0  0
    2.8863    0.8461   -2.6096 C   0  0  0  0  0  0  0  0  0  0  0  0
   -1.0725    4.3428   -0.1376 C   0  0  0  0  0  0  0  0  0  0  0  0
    0.4761    2.7631    0.4828 C   0  0  0  0  0  0  0  0  0  0  0  0
    5.1499    0.4365    1.3745 C   0  0  0  0  0  0  0  0  0  0  0  0
   -0.4156   -3.0626   -1.1826 H   0  0  0  0  0  0  0  0  0  0  0  0
    0.3350   -2.2185   -2.5008 H   0  0  0  0  0  0  0  0  0  0  0  0
   -0.7825   -0.2109   -1.9461 H   0  0  0  0  0  0  0  0  0  0  0  0
   -3.6812    1.5351    0.7383 H   0  0  0  0  0  0  0  0  0  0  0  0
    0.5369   -2.9973    1.0077 H   0  0  0  0  0  0  0  0  0  0  0  0
    3.7923    0.4120   -0.5215 H   0  0  0  0  0  0  0  0  0  0  0  0
    2.4034   -2.3343    2.4706 H   0  0  0  0  0  0  0  0  0  0  0  0
   -3.1244    3.7284   -0.3190 H   0  0  0  0  0  0  0  0  0  0  0  0
   -0.2030    0.7731    0.8741 H   0  0  0  0  0  0  0  0  0  0  0  0
    2.6341    1.2011   -3.6145 H   0  0  0  0  0  0  0  0  0  0  0  0
    3.8876    0.4066   -2.6749 H   0  0  0  0  0  0  0  0  0  0  0  0
    2.8498    1.7207   -1.9508 H   0  0  0  0  0  0  0  0  0  0  0  0
   -1.2585    5.3759   -0.4122 H   0  0  0  0  0  0  0  0  0  0  0  0
    1.5157    2.5466    0.7060 H   0  0  0  0  0  0  0  0  0  0  0  0
    5.9042    0.6040    2.1505 H   0  0  0  0  0  0  0  0  0  0  0  0
    4.6481    1.3963    1.2099 H   0  0  0  0  0  0  0  0  0  0  0  0
    5.6844    0.0834    0.4859 H   0  0  0  0  0  0  0  0  0  0  0  0
  1 14  1  0  0  0  0
  1 22  1  0  0  0  0
  2 12  2  0  0  0  0
  3 13  2  0  0  0  0
  4 19  1  0  0  0  0
  4 25  1  0  0  0  0
  5  8  1  0  0  0  0
  5  9  1  0  0  0  0
  5 28  1  0  0  0  0
  6 10  1  0  0  0  0
  6 17  1  0  0  0  0
  6 29  1  0  0  0  0
  7 23  2  0  0  0  0
  7 24  1  0  0  0  0
  8 10  2  0  0  0  0
  8 12  1  0  0  0  0
  9 11  1  0  0  0  0
  9 26  1  0  0  0  0
  9 27  1  0  0  0  0
 10 13  1  0  0  0  0
 11 14  2  0  0  0  0
 11 15  1  0  0  0  0
 12 13  1  0  0  0  0
 14 16  1  0  0  0  0
 15 18  2  0  0  0  0
 15 30  1  0  0  0  0
 16 19  2  0  0  0  0
 16 31  1  0  0  0  0
 17 20  2  0  0  0  0
 17 21  1  0  0  0  0
 18 19  1  0  0  0  0
 18 32  1  0  0  0  0
 20 23  1  0  0  0  0
 20 33  1  0  0  0  0
 21 24  2  0  0  0  0
 21 34  1  0  0  0  0
 22 35  1  0  0  0  0
 22 36  1  0  0  0  0
 22 37  1  0  0  0  0
 23 38  1  0  0  0  0
 24 39  1  0  0  0  0
 25 40  1  0  0  0  0
 25 41  1  0  0  0  0
 25 42  1  0  0  0  0
M  END
> <PUBCHEM_COMPOUND_CID>
49830883

> <PUBCHEM_CONFORMER_RMSD>
1.2

> <PUBCHEM_CONFORMER_DIVERSEORDER>
1
49
63
46
68
14
26
22
23
65
2
38
64
39
33
66
34
40
67
15
59
54
8
69
20
58
29
37
35
11
6
32
48
4
10
41
12
31
16
44
60
19
36
53
25
47
45
70
17
43
61
57
56
42
51
13
55
50
24
28
21
3
27
30
62
18
9
52
71
5
7

> <PUBCHEM_MMFF94_PARTIAL_CHARGES>
34
1 -0.36
10 0.03
11 -0.14
12 0.64
13 0.64
14 0.08
15 -0.15
16 -0.15
17 0.1
18 -0.15
19 0.08
2 -0.57
20 -0.15
21 -0.15
22 0.28
23 0.16
24 0.16
25 0.28
28 0.4
29 0.4
3 -0.57
30 0.15
31 0.15
32 0.15
33 0.15
34 0.15
38 0.15
39 0.15
4 -0.36
5 -0.87
6 -0.6
7 -0.62
8 0.03
9 0.51

> <PUBCHEM_EFFECTIVE_ROTOR_COUNT>
7

> <PUBCHEM_PHARMACOPHORE_FEATURES>
12
1 1 acceptor
1 2 acceptor
1 3 acceptor
1 4 acceptor
1 5 cation
1 5 donor
1 6 cation
1 6 donor
1 7 acceptor
4 8 10 12 13 rings
6 11 14 15 16 18 19 rings
6 7 17 20 21 23 24 rings

> <PUBCHEM_HEAVY_ATOM_COUNT>
25

> <PUBCHEM_ATOM_DEF_STEREO_COUNT>
0

> <PUBCHEM_ATOM_UDEF_STEREO_COUNT>
0

> <PUBCHEM_BOND_DEF_STEREO_COUNT>
0

> <PUBCHEM_BOND_UDEF_STEREO_COUNT>
0

> <PUBCHEM_ISOTOPIC_ATOM_COUNT>
0

> <PUBCHEM_COMPONENT_COUNT>
1

> <PUBCHEM_CACTVS_TAUTO_COUNT>
11

> <PUBCHEM_CONFORMER_ID>
02F85BE300000001

> <PUBCHEM_MMFF94_ENERGY>
97.1421

> <PUBCHEM_FEATURE_SELFOVERLAP>
60.898

> <PUBCHEM_SHAPE_FINGERPRINT>
10675989 125 16903824962109549832
11370993 70 17474655166494483592
11578080 2 17609468860357349903
11595378 159 18408882932732567692
12035758 1 18338806624568242433
12156800 1 14325887162777444112
12422481 6 17987792063826643160
12553582 1 18340219565206794503
12788726 201 18189919593774948577
13009979 54 18187086118414824082
13140716 1 18270397325500164585
133893 2 17837759394380026079
14081887 123 18340197488842765200
14178342 30 18044093458390521922
14787075 74 17970340636734914490
15475509 35 17316221400000831275
17876694 64 18040711455402738348
17974551 9 17685206179862414978
20715895 44 17609770904001317869
22149856 69 17476941056398313881
3187 122 18409720755823660625
3797600 57 17970373574401329022
392239 28 18263910207043817402
57091435 65 18121774204101460304
7097593 13 17681272161675804154
90316 7 18411422791507706251

> <PUBCHEM_SHAPE_MULTIPOLES>
476.07
7.12
4.69
1.77
3.69
4.8
-0.79
-2.13
3.33
-4.13
0.18
1.95
-0.37
-0.18

> <PUBCHEM_SHAPE_SELFOVERLAP>
1032.941

> <PUBCHEM_SHAPE_VOLUME>
257.2

> <PUBCHEM_COORDINATE_TYPE>
2
5
10

$$$$
