24905286
  -OEChem-10052115153D

 30 32  0     0  0  0  0  0  0999 V2000
    4.6436    0.3133   -0.0867 O   0  0  0  0  0  0  0  0  0  0  0  0
    3.2955   -0.0644    2.3145 O   0  0  0  0  0  0  0  0  0  0  0  0
   -1.3334   -2.0319   -0.1444 N   0  0  0  0  0  0  0  0  0  0  0  0
   -2.6817   -2.1233   -0.1400 N   0  0  0  0  0  0  0  0  0  0  0  0
   -4.3520   -0.3581   -0.0458 N   0  0  0  0  0  0  0  0  0  0  0  0
   -3.2914    1.9095    0.0543 N   0  0  0  0  0  0  0  0  0  0  0  0
   -0.9096    2.2725    0.0553 N   0  0  0  0  0  0  0  0  0  0  0  0
   -0.8483   -0.7524   -0.0872 C   0  0  0  0  0  0  0  0  0  0  0  0
   -1.9637    0.0333   -0.0430 C   0  0  0  0  0  0  0  0  0  0  0  0
    0.5677   -0.4780   -0.0835 C   0  0  0  0  0  0  0  0  0  0  0  0
   -3.0808   -0.8481   -0.0773 C   0  0  0  0  0  0  0  0  0  0  0  0
    1.2604   -0.4017    1.1248 C   0  0  0  0  0  0  0  0  0  0  0  0
    1.2442   -0.2886   -1.2884 C   0  0  0  0  0  0  0  0  0  0  0  0
   -2.0208    1.4165    0.0226 C   0  0  0  0  0  0  0  0  0  0  0  0
    2.6298   -0.1363    1.1282 C   0  0  0  0  0  0  0  0  0  0  0  0
    3.3064    0.0532   -0.0767 C   0  0  0  0  0  0  0  0  0  0  0  0
    2.6136   -0.0229   -1.2850 C   0  0  0  0  0  0  0  0  0  0  0  0
   -4.3388    1.0131    0.0187 C   0  0  0  0  0  0  0  0  0  0  0  0
    5.2592    0.4942   -1.3605 C   0  0  0  0  0  0  0  0  0  0  0  0
   -0.8021   -2.8926   -0.1884 H   0  0  0  0  0  0  0  0  0  0  0  0
    0.7343   -0.5484    2.0660 H   0  0  0  0  0  0  0  0  0  0  0  0
    0.7175   -0.3442   -2.2383 H   0  0  0  0  0  0  0  0  0  0  0  0
    3.0729    0.1136   -2.2580 H   0  0  0  0  0  0  0  0  0  0  0  0
   -5.3230    1.4732    0.0467 H   0  0  0  0  0  0  0  0  0  0  0  0
    0.0377    1.9306    0.0321 H   0  0  0  0  0  0  0  0  0  0  0  0
   -1.0731    3.2696    0.1029 H   0  0  0  0  0  0  0  0  0  0  0  0
    2.6677   -0.2210    3.0407 H   0  0  0  0  0  0  0  0  0  0  0  0
    6.3211    0.6916   -1.1800 H   0  0  0  0  0  0  0  0  0  0  0  0
    4.8576    1.3697   -1.8822 H   0  0  0  0  0  0  0  0  0  0  0  0
    5.2039   -0.4153   -1.9684 H   0  0  0  0  0  0  0  0  0  0  0  0
  1 16  1  0  0  0  0
  1 19  1  0  0  0  0
  2 15  1  0  0  0  0
  2 27  1  0  0  0  0
  3  4  1  0  0  0  0
  3  8  1  0  0  0  0
  3 20  1  0  0  0  0
  4 11  2  0  0  0  0
  5 11  1  0  0  0  0
  5 18  2  0  0  0  0
  6 14  2  0  0  0  0
  6 18  1  0  0  0  0
  7 14  1  0  0  0  0
  7 25  1  0  0  0  0
  7 26  1  0  0  0  0
  8  9  2  0  0  0  0
  8 10  1  0  0  0  0
  9 11  1  0  0  0  0
  9 14  1  0  0  0  0
 10 12  2  0  0  0  0
 10 13  1  0  0  0  0
 12 15  1  0  0  0  0
 12 21  1  0  0  0  0
 13 17  2  0  0  0  0
 13 22  1  0  0  0  0
 15 16  2  0  0  0  0
 16 17  1  0  0  0  0
 17 23  1  0  0  0  0
 18 24  1  0  0  0  0
 19 28  1  0  0  0  0
 19 29  1  0  0  0  0
 19 30  1  0  0  0  0
M  END
> <PUBCHEM_COMPOUND_CID>
24905286

> <PUBCHEM_CONFORMER_RMSD>
0.6

> <PUBCHEM_CONFORMER_DIVERSEORDER>
2
1

> <PUBCHEM_MMFF94_PARTIAL_CHARGES>
26
1 -0.36
10 0.05
11 0.54
12 -0.15
13 -0.15
14 0.41
15 0.08
16 0.08
17 -0.15
18 0.47
19 0.28
2 -0.53
20 0.27
21 0.15
22 0.15
23 0.15
24 0.15
25 0.4
26 0.4
27 0.45
3 0.3
4 -0.71
5 -0.57
6 -0.62
7 -0.9
8 -0.2

> <PUBCHEM_EFFECTIVE_ROTOR_COUNT>
2

> <PUBCHEM_PHARMACOPHORE_FEATURES>
10
1 1 acceptor
1 2 donor
1 3 donor
1 7 donor
3 4 5 11 cation
3 5 6 18 cation
3 6 7 14 cation
5 3 4 8 9 11 rings
6 10 12 13 15 16 17 rings
6 5 6 9 11 14 18 rings

> <PUBCHEM_HEAVY_ATOM_COUNT>
19

> <PUBCHEM_ATOM_DEF_STEREO_COUNT>
0

> <PUBCHEM_ATOM_UDEF_STEREO_COUNT>
0

> <PUBCHEM_BOND_DEF_STEREO_COUNT>
0

> <PUBCHEM_BOND_UDEF_STEREO_COUNT>
0

> <PUBCHEM_ISOTOPIC_ATOM_COUNT>
0

> <PUBCHEM_COMPONENT_COUNT>
1

> <PUBCHEM_CACTVS_TAUTO_COUNT>
72

> <PUBCHEM_CONFORMER_ID>
017C064600000002

> <PUBCHEM_MMFF94_ENERGY>
66.1388

> <PUBCHEM_FEATURE_SELFOVERLAP>
51.129

> <PUBCHEM_SHAPE_FINGERPRINT>
10366900 7 17704353247136043565
10498660 4 18339360768878694981
11132069 177 18342452626157301505
11471102 20 15841552990048434042
12186901 62 18343306959165411934
12236239 1 17749108893703945879
12390115 104 18058182626623098681
12403259 415 17632576071523427618
13134695 92 15841555163465384024
13140716 1 18195252337582565219
13538477 17 18186517726273439675
13631057 29 16734968979447984922
13897977 58 18334299772785211693
14739800 52 18264474248273100104
15219456 202 17489863851699953986
15669948 3 18408879659413957423
16945 1 18411418423662953687
18186145 218 16845568716752188690
200 152 16008748039397940195
20510252 161 18271811164314876961
20645477 56 18413114948286741405
20645477 70 15358239533976512218
2297311 6 18270413770497261870
23048698 100 17312819360024681512
23175994 123 16845583023367236840
23402539 116 18413666924324551655
23493267 7 18343023280986795802
23557571 272 18202009849377254279
23559900 14 18272375222522737686
2748010 2 18123196702012729455
350125 39 17834964070633889425
474 4 17096378409086203708
77492 1 17749105599469382491
7808743 9 18268156352909363336

> <PUBCHEM_SHAPE_MULTIPOLES>
354.37
9.06
1.65
1.25
3.87
0.16
0.41
1.84
-1.1
-2.05
-0.06
1.87
-0.05
-0.43

> <PUBCHEM_SHAPE_SELFOVERLAP>
788.342

> <PUBCHEM_SHAPE_VOLUME>
186.9

> <PUBCHEM_COORDINATE_TYPE>
2
5
10

$$$$
