49830943
  -OEChem-10052120443D

 57 60  0     0  0  0  0  0  0999 V2000
    2.7818   -5.4960   -0.5740 Cl  0  0  0  0  0  0  0  0  0  0  0  0
    4.5894    0.9797    0.3032 O   0  0  0  0  0  0  0  0  0  0  0  0
    0.1072    2.6197    0.7693 O   0  0  0  0  0  0  0  0  0  0  0  0
   -2.6910    0.1675    0.6813 N   0  0  0  0  0  0  0  0  0  0  0  0
   -0.4095   -0.1610    0.9196 N   0  0  0  0  0  0  0  0  0  0  0  0
   -1.8361   -1.8951    0.0453 N   0  0  0  0  0  0  0  0  0  0  0  0
    1.9046   -0.5140    1.1536 N   0  0  0  0  0  0  0  0  0  0  0  0
   -4.0424   -0.2198    0.3224 C   0  0  0  0  0  0  0  0  0  0  0  0
   -5.0555    0.6551    1.0677 C   0  0  0  0  0  0  0  0  0  0  0  0
   -4.2303   -0.1298   -1.1954 C   0  0  0  0  0  0  0  0  0  0  0  0
   -5.0883    2.0939    0.5515 C   0  0  0  0  0  0  0  0  0  0  0  0
   -4.2651    1.3119   -1.7029 C   0  0  0  0  0  0  0  0  0  0  0  0
   -5.3020    2.1465   -0.9579 C   0  0  0  0  0  0  0  0  0  0  0  0
   -1.5956   -0.6651    0.5434 C   0  0  0  0  0  0  0  0  0  0  0  0
    0.6309   -1.0022    0.7694 C   0  0  0  0  0  0  0  0  0  0  0  0
   -0.7752   -2.7095   -0.0917 C   0  0  0  0  0  0  0  0  0  0  0  0
    0.5179   -2.2956    0.2674 C   0  0  0  0  0  0  0  0  0  0  0  0
    2.1004    0.7990    1.6759 C   0  0  0  0  0  0  0  0  0  0  0  0
   -0.9280   -3.9981   -0.5978 C   0  0  0  0  0  0  0  0  0  0  0  0
    1.6199   -3.1557    0.1196 C   0  0  0  0  0  0  0  0  0  0  0  0
    2.3433    1.7788    0.5616 C   0  0  0  0  0  0  0  0  0  0  0  0
    0.1628   -4.8593   -0.7480 C   0  0  0  0  0  0  0  0  0  0  0  0
    1.4384   -4.4380   -0.3891 C   0  0  0  0  0  0  0  0  0  0  0  0
    3.5850    1.8204   -0.0724 C   0  0  0  0  0  0  0  0  0  0  0  0
    1.3270    2.6470    0.1627 C   0  0  0  0  0  0  0  0  0  0  0  0
    3.8106    2.7300   -1.1057 C   0  0  0  0  0  0  0  0  0  0  0  0
    1.5525    3.5567   -0.8707 C   0  0  0  0  0  0  0  0  0  0  0  0
    2.7942    3.5979   -1.5050 C   0  0  0  0  0  0  0  0  0  0  0  0
    5.8251    1.0921   -0.4002 C   0  0  0  0  0  0  0  0  0  0  0  0
   -0.8719    3.5429    0.2968 C   0  0  0  0  0  0  0  0  0  0  0  0
   -4.2206   -1.2540    0.6444 H   0  0  0  0  0  0  0  0  0  0  0  0
   -4.8368    0.6609    2.1425 H   0  0  0  0  0  0  0  0  0  0  0  0
   -6.0556    0.2182    0.9505 H   0  0  0  0  0  0  0  0  0  0  0  0
   -5.1805   -0.6128   -1.4586 H   0  0  0  0  0  0  0  0  0  0  0  0
   -3.4474   -0.6784   -1.7308 H   0  0  0  0  0  0  0  0  0  0  0  0
   -5.8945    2.6415    1.0531 H   0  0  0  0  0  0  0  0  0  0  0  0
   -4.1555    2.6082    0.8083 H   0  0  0  0  0  0  0  0  0  0  0  0
   -3.2749    1.7690   -1.5875 H   0  0  0  0  0  0  0  0  0  0  0  0
   -4.4926    1.3170   -2.7750 H   0  0  0  0  0  0  0  0  0  0  0  0
   -6.3070    1.7773   -1.1968 H   0  0  0  0  0  0  0  0  0  0  0  0
   -5.2544    3.1861   -1.3010 H   0  0  0  0  0  0  0  0  0  0  0  0
   -2.5122    1.1023    1.0278 H   0  0  0  0  0  0  0  0  0  0  0  0
    2.7098   -0.9308    0.7011 H   0  0  0  0  0  0  0  0  0  0  0  0
    1.2846    1.1119    2.3389 H   0  0  0  0  0  0  0  0  0  0  0  0
    2.9814    0.7903    2.3308 H   0  0  0  0  0  0  0  0  0  0  0  0
   -1.9161   -4.3518   -0.8862 H   0  0  0  0  0  0  0  0  0  0  0  0
    2.6257   -2.8597    0.4028 H   0  0  0  0  0  0  0  0  0  0  0  0
   -0.0028   -5.8566   -1.1474 H   0  0  0  0  0  0  0  0  0  0  0  0
    4.7474    2.8201   -1.6444 H   0  0  0  0  0  0  0  0  0  0  0  0
    0.8115    4.2591   -1.2362 H   0  0  0  0  0  0  0  0  0  0  0  0
    2.9695    4.3058   -2.3101 H   0  0  0  0  0  0  0  0  0  0  0  0
    5.7108    0.8416   -1.4603 H   0  0  0  0  0  0  0  0  0  0  0  0
    6.2881    2.0733   -0.2496 H   0  0  0  0  0  0  0  0  0  0  0  0
    6.5075    0.3507    0.0285 H   0  0  0  0  0  0  0  0  0  0  0  0
   -0.5574    4.5809    0.4494 H   0  0  0  0  0  0  0  0  0  0  0  0
   -1.1500    3.3379   -0.7426 H   0  0  0  0  0  0  0  0  0  0  0  0
   -1.7714    3.3961    0.9027 H   0  0  0  0  0  0  0  0  0  0  0  0
  1 23  1  0  0  0  0
  2 24  1  0  0  0  0
  2 29  1  0  0  0  0
  3 25  1  0  0  0  0
  3 30  1  0  0  0  0
  4  8  1  0  0  0  0
  4 14  1  0  0  0  0
  4 42  1  0  0  0  0
  5 14  1  0  0  0  0
  5 15  2  0  0  0  0
  6 14  2  0  0  0  0
  6 16  1  0  0  0  0
  7 15  1  0  0  0  0
  7 18  1  0  0  0  0
  7 43  1  0  0  0  0
  8  9  1  0  0  0  0
  8 10  1  0  0  0  0
  8 31  1  0  0  0  0
  9 11  1  0  0  0  0
  9 32  1  0  0  0  0
  9 33  1  0  0  0  0
 10 12  1  0  0  0  0
 10 34  1  0  0  0  0
 10 35  1  0  0  0  0
 11 13  1  0  0  0  0
 11 36  1  0  0  0  0
 11 37  1  0  0  0  0
 12 13  1  0  0  0  0
 12 38  1  0  0  0  0
 12 39  1  0  0  0  0
 13 40  1  0  0  0  0
 13 41  1  0  0  0  0
 15 17  1  0  0  0  0
 16 17  2  0  0  0  0
 16 19  1  0  0  0  0
 17 20  1  0  0  0  0
 18 21  1  0  0  0  0
 18 44  1  0  0  0  0
 18 45  1  0  0  0  0
 19 22  2  0  0  0  0
 19 46  1  0  0  0  0
 20 23  2  0  0  0  0
 20 47  1  0  0  0  0
 21 24  2  0  0  0  0
 21 25  1  0  0  0  0
 22 23  1  0  0  0  0
 22 48  1  0  0  0  0
 24 26  1  0  0  0  0
 25 27  2  0  0  0  0
 26 28  2  0  0  0  0
 26 49  1  0  0  0  0
 27 28  1  0  0  0  0
 27 50  1  0  0  0  0
 28 51  1  0  0  0  0
 29 52  1  0  0  0  0
 29 53  1  0  0  0  0
 29 54  1  0  0  0  0
 30 55  1  0  0  0  0
 30 56  1  0  0  0  0
 30 57  1  0  0  0  0
M  END
> <PUBCHEM_COMPOUND_CID>
49830943

> <PUBCHEM_CONFORMER_RMSD>
1

> <PUBCHEM_CONFORMER_DIVERSEORDER>
2
15
27
53
62
51
47
70
60
56
65
1
11
35
34
61
38
29
71
21
17
32
18
45
59
19
58
48
23
63
55
66
25
43
33
52
41
5
57
36
54
7
28
10
69
46
40
12
14
3
72
64
44
16
26
13
50
68
6
74
31
30
22
24
37
49
9
67
39
8
73
4
20
42

> <PUBCHEM_MMFF94_PARTIAL_CHARGES>
32
1 -0.18
14 0.72
15 0.41
16 0.31
18 0.51
19 -0.15
2 -0.36
20 -0.15
21 -0.14
22 -0.15
23 0.18
24 0.08
25 0.08
26 -0.15
27 -0.15
28 -0.15
29 0.28
3 -0.36
30 0.28
4 -0.87
42 0.4
43 0.4
46 0.15
47 0.15
48 0.15
49 0.15
5 -0.62
50 0.15
51 0.15
6 -0.62
7 -0.87
8 0.37

> <PUBCHEM_EFFECTIVE_ROTOR_COUNT>
8.2

> <PUBCHEM_PHARMACOPHORE_FEATURES>
9
1 2 acceptor
1 3 acceptor
1 4 donor
1 7 donor
4 4 5 6 14 cation
6 16 17 19 20 22 23 rings
6 21 24 25 26 27 28 rings
6 5 6 14 15 16 17 rings
6 8 9 10 11 12 13 rings

> <PUBCHEM_HEAVY_ATOM_COUNT>
30

> <PUBCHEM_ATOM_DEF_STEREO_COUNT>
0

> <PUBCHEM_ATOM_UDEF_STEREO_COUNT>
0

> <PUBCHEM_BOND_DEF_STEREO_COUNT>
0

> <PUBCHEM_BOND_UDEF_STEREO_COUNT>
0

> <PUBCHEM_ISOTOPIC_ATOM_COUNT>
0

> <PUBCHEM_COMPONENT_COUNT>
1

> <PUBCHEM_CACTVS_TAUTO_COUNT>
9

> <PUBCHEM_CONFORMER_ID>
02F85C1F00000002

> <PUBCHEM_MMFF94_ENERGY>
106.1956

> <PUBCHEM_FEATURE_SELFOVERLAP>
45.703

> <PUBCHEM_SHAPE_FINGERPRINT>
10483366 6 18266752294462599822
10940486 97 18047473615270524652
11285246 1 17624951100561905767
11488393 25 18190743024952280920
11513181 2 18199178487098815949
12160290 23 17614261691540154051
13642711 20 18339079289590920982
13690498 29 17400948765040480196
138480 1 18050852117690305459
14114211 80 18194704759080245321
14117953 113 18339359653136640654
14508225 48 17691121535408518583
14556957 393 17400394168698924894
14790565 3 18411144657562403985
15082195 135 18195219223600835293
15297060 5 18272094906617861881
15439362 3 18339078177415936281
15775530 1 18117025306176076147
1601671 61 18260260854599752176
16988056 13 17976246946647624037
18785283 64 18337113367501969539
20101258 96 17546179501819458147
20775438 99 17181892624814297453
21033650 10 17467085471941675092
21641784 216 17547030532399391902
22907989 373 17762608899660556919
23559900 14 18127114283264799507
340366 18 18263086681503856836
38695281 34 18410857676436833587
4017518 198 18272651256277382078
4394409 98 18190484765070416894
46194498 28 18119232979827155541
5081480 168 17981331092920268221
5265222 85 18262532510279537868
5385378 56 18340780251781153033
7164475 11 17474665530397800560

> <PUBCHEM_SHAPE_MULTIPOLES>
587.59
9.7
7.49
1.28
7.97
8.55
-0.12
-7.75
-1.7
-7.54
-2.69
0.36
-0.59
-0.26

> <PUBCHEM_SHAPE_SELFOVERLAP>
1258.413

> <PUBCHEM_SHAPE_VOLUME>
325.7

> <PUBCHEM_COORDINATE_TYPE>
2
5
10

$$$$
