44560751
  -OEChem-10062122023D

 47 50  0     0  0  0  0  0  0999 V2000
   -3.0668    0.9899    0.6969 O   0  0  0  0  0  0  0  0  0  0  0  0
   -2.2149   -0.9172   -0.3644 N   0  0  0  0  0  0  0  0  0  0  0  0
    3.5432    0.8459   -1.7578 N   0  0  0  0  0  0  0  0  0  0  0  0
    6.2631    1.0589   -1.3357 N   0  0  0  0  0  0  0  0  0  0  0  0
    7.4419   -0.0456    0.9249 N   0  0  0  0  0  0  0  0  0  0  0  0
   -4.4966   -0.5610   -0.3125 N   0  0  0  0  0  0  0  0  0  0  0  0
    3.3521   -0.3882    0.3301 C   0  0  0  0  0  0  0  0  0  0  0  0
    1.9195   -0.5244    0.1514 C   0  0  0  0  0  0  0  0  0  0  0  0
    4.1444    0.2808   -0.6011 C   0  0  0  0  0  0  0  0  0  0  0  0
    5.5200    0.4088   -0.4231 C   0  0  0  0  0  0  0  0  0  0  0  0
    3.9404   -0.9395    1.4586 C   0  0  0  0  0  0  0  0  0  0  0  0
    6.1169   -0.1505    0.7217 C   0  0  0  0  0  0  0  0  0  0  0  0
    1.0575    0.4464    0.6618 C   0  0  0  0  0  0  0  0  0  0  0  0
    1.4033   -1.6259   -0.5311 C   0  0  0  0  0  0  0  0  0  0  0  0
   -0.8366   -0.7862   -0.1924 C   0  0  0  0  0  0  0  0  0  0  0  0
    5.3162   -0.8171    1.6462 C   0  0  0  0  0  0  0  0  0  0  0  0
   -0.3204    0.3155    0.4899 C   0  0  0  0  0  0  0  0  0  0  0  0
    0.0253   -1.7569   -0.7030 C   0  0  0  0  0  0  0  0  0  0  0  0
   -5.7753   -0.0045   -0.0740 C   0  0  0  0  0  0  0  0  0  0  0  0
   -3.2466   -0.0510    0.0730 C   0  0  0  0  0  0  0  0  0  0  0  0
   -8.1785   -0.1102   -0.2986 C   0  0  0  0  0  0  0  0  0  0  0  0
   -6.9179   -0.6587   -0.5345 C   0  0  0  0  0  0  0  0  0  0  0  0
   -5.8933    1.1982    0.6226 C   0  0  0  0  0  0  0  0  0  0  0  0
    7.5866    1.1529   -1.1140 C   0  0  0  0  0  0  0  0  0  0  0  0
    8.1676    0.6086    0.0003 C   0  0  0  0  0  0  0  0  0  0  0  0
   -8.2965    1.0927    0.3978 C   0  0  0  0  0  0  0  0  0  0  0  0
   -7.1540    1.7468    0.8583 C   0  0  0  0  0  0  0  0  0  0  0  0
   -9.4006   -0.8085   -0.7916 C   0  0  0  0  0  0  0  0  0  0  0  0
    3.3502   -1.4673    2.2037 H   0  0  0  0  0  0  0  0  0  0  0  0
    1.4449    1.3112    1.1958 H   0  0  0  0  0  0  0  0  0  0  0  0
    2.0613   -2.3913   -0.9357 H   0  0  0  0  0  0  0  0  0  0  0  0
    5.7648   -1.2544    2.5360 H   0  0  0  0  0  0  0  0  0  0  0  0
   -0.9197    1.1085    0.9139 H   0  0  0  0  0  0  0  0  0  0  0  0
   -0.3632   -2.6204   -1.2370 H   0  0  0  0  0  0  0  0  0  0  0  0
   -2.5150   -1.7459   -0.8717 H   0  0  0  0  0  0  0  0  0  0  0  0
    4.1251    1.3305   -2.4289 H   0  0  0  0  0  0  0  0  0  0  0  0
    2.5489    0.7742   -1.9214 H   0  0  0  0  0  0  0  0  0  0  0  0
   -6.8270   -1.5958   -1.0793 H   0  0  0  0  0  0  0  0  0  0  0  0
   -4.4926   -1.4384   -0.8265 H   0  0  0  0  0  0  0  0  0  0  0  0
   -5.0593    1.7649    1.0107 H   0  0  0  0  0  0  0  0  0  0  0  0
    8.1611    1.6812   -1.8642 H   0  0  0  0  0  0  0  0  0  0  0  0
   -9.2728    1.5315    0.5862 H   0  0  0  0  0  0  0  0  0  0  0  0
    9.2314    0.6785    0.1885 H   0  0  0  0  0  0  0  0  0  0  0  0
   -7.2472    2.6837    1.4001 H   0  0  0  0  0  0  0  0  0  0  0  0
  -10.2646   -0.5933   -0.1537 H   0  0  0  0  0  0  0  0  0  0  0  0
   -9.2625   -1.8951   -0.7872 H   0  0  0  0  0  0  0  0  0  0  0  0
   -9.6306   -0.4875   -1.8124 H   0  0  0  0  0  0  0  0  0  0  0  0
  1 20  2  0  0  0  0
  2 15  1  0  0  0  0
  2 20  1  0  0  0  0
  2 35  1  0  0  0  0
  3  9  1  0  0  0  0
  3 36  1  0  0  0  0
  3 37  1  0  0  0  0
  4 10  2  0  0  0  0
  4 24  1  0  0  0  0
  5 12  2  0  0  0  0
  5 25  1  0  0  0  0
  6 19  1  0  0  0  0
  6 20  1  0  0  0  0
  6 39  1  0  0  0  0
  7  8  1  0  0  0  0
  7  9  2  0  0  0  0
  7 11  1  0  0  0  0
  8 13  2  0  0  0  0
  8 14  1  0  0  0  0
  9 10  1  0  0  0  0
 10 12  1  0  0  0  0
 11 16  2  0  0  0  0
 11 29  1  0  0  0  0
 12 16  1  0  0  0  0
 13 17  1  0  0  0  0
 13 30  1  0  0  0  0
 14 18  2  0  0  0  0
 14 31  1  0  0  0  0
 15 17  2  0  0  0  0
 15 18  1  0  0  0  0
 16 32  1  0  0  0  0
 17 33  1  0  0  0  0
 18 34  1  0  0  0  0
 19 22  1  0  0  0  0
 19 23  2  0  0  0  0
 21 22  2  0  0  0  0
 21 26  1  0  0  0  0
 21 28  1  0  0  0  0
 22 38  1  0  0  0  0
 23 27  1  0  0  0  0
 23 40  1  0  0  0  0
 24 25  2  0  0  0  0
 24 41  1  0  0  0  0
 25 43  1  0  0  0  0
 26 27  2  0  0  0  0
 26 42  1  0  0  0  0
 27 44  1  0  0  0  0
 28 45  1  0  0  0  0
 28 46  1  0  0  0  0
 28 47  1  0  0  0  0
M  END
> <PUBCHEM_COMPOUND_CID>
44560751

> <PUBCHEM_CONFORMER_RMSD>
0.8

> <PUBCHEM_CONFORMER_DIVERSEORDER>
2
22
6
15
30
14
5
18
25
17
8
12
4
28
11
10
16
7
27
20
13
3
29
26
9
19
23
21
1
24

> <PUBCHEM_MMFF94_PARTIAL_CHARGES>
42
1 -0.57
10 0.31
11 -0.15
12 0.31
13 -0.15
14 -0.15
15 0.12
16 -0.15
17 -0.15
18 -0.15
19 0.12
2 -0.55
20 0.69
21 -0.14
22 -0.15
23 -0.15
24 0.16
25 0.16
26 -0.15
27 -0.15
28 0.14
29 0.15
3 -0.9
30 0.15
31 0.15
32 0.15
33 0.15
34 0.15
35 0.37
36 0.4
37 0.4
38 0.15
39 0.37
4 -0.62
40 0.15
41 0.15
42 0.15
43 0.15
44 0.15
5 -0.62
6 -0.55
9 0.1

> <PUBCHEM_EFFECTIVE_ROTOR_COUNT>
5

> <PUBCHEM_PHARMACOPHORE_FEATURES>
11
1 1 acceptor
1 2 donor
1 3 cation
1 3 donor
1 4 acceptor
1 5 acceptor
1 6 donor
6 19 21 22 23 26 27 rings
6 4 5 10 12 24 25 rings
6 7 9 10 11 12 16 rings
6 8 13 14 15 17 18 rings

> <PUBCHEM_HEAVY_ATOM_COUNT>
28

> <PUBCHEM_ATOM_DEF_STEREO_COUNT>
0

> <PUBCHEM_ATOM_UDEF_STEREO_COUNT>
0

> <PUBCHEM_BOND_DEF_STEREO_COUNT>
0

> <PUBCHEM_BOND_UDEF_STEREO_COUNT>
0

> <PUBCHEM_ISOTOPIC_ATOM_COUNT>
0

> <PUBCHEM_COMPONENT_COUNT>
1

> <PUBCHEM_CACTVS_TAUTO_COUNT>
40

> <PUBCHEM_CONFORMER_ID>
02A7F16F00000002

> <PUBCHEM_MMFF94_ENERGY>
111.0936

> <PUBCHEM_FEATURE_SELFOVERLAP>
55.911

> <PUBCHEM_SHAPE_FINGERPRINT>
10 15 18333733507533652459
10050765 1 17913480526290145185
10162869 55 17748824159401140543
10299344 5 18334293167478775923
106641 1 17313107466884629787
11315181 36 18186803591882860323
11719270 70 18273211963255847103
12089408 11 18410291402500459251
12236239 1 18333730248175850426
12741549 16 14923936861248702142
13617811 41 18060424621063194584
13885169 127 12107781892269667287
14118638 360 15338848520912299579
14251764 18 18335420166876166713
14251764 46 17275102838896357538
14294032 229 18342732993027396541
14344974 52 17703787076648324704
14617042 71 17313394487012884388
150020 25 16271929319917530943
15183329 4 18343023285603575081
15419008 47 16559027169128538369
15461852 350 17988641930833701647
15510794 2 16056876961559027590
1577012 14 18409163311912739463
15840311 113 18260268577789493428
15849732 13 16343701045401738709
16120349 18 17603865637100483796
16989713 51 17631443644374870927
17686467 74 18187644756785491641
1818759 1 10159701312926647045
19315958 150 16225769610197240258
20105231 36 16343985823725012007
20157964 124 17530965774543538522
20771845 171 18409456865097408598
21095086 128 13470402280343015245
21150785 3 16056881334115010479
221357 26 15123791769334736538
22224240 67 16225765224724453035
23559900 14 13829835950892908682
23576562 1 18127972121034814581
24771293 8 18411142399253313261
249057 3 14549012204363835084
3092352 35 18407757045036186386
335352 9 18201437008098403885
395649 100 18335137653130105583
397830 11 15286221599650829113
4073 2 18409173199677073947
4325135 7 18260266352357727565
4340502 62 16732984219805975570
45377200 153 14764049209005710117
5758199 1 18411699876964608347
59520757 100 17559951181163138054
6081469 158 16630532813204420604
636775 8 18201435940108015927
6441014 3 13005119243241970868
67123 10 17676204689510194339

> <PUBCHEM_SHAPE_MULTIPOLES>
545.45
30.05
1.37
1.2
29.8
0.04
0.01
-7.62
-2.28
1.14
-0.06
-2.01
-0.07
-2.22

> <PUBCHEM_SHAPE_SELFOVERLAP>
1211.352

> <PUBCHEM_SHAPE_VOLUME>
289.9

> <PUBCHEM_COORDINATE_TYPE>
2
5
10

$$$$
