23433114
  -OEChem-10062121533D

 48 51  0     0  0  0  0  0  0999 V2000
    7.0170   -0.4932    0.0499 O   0  0  0  0  0  0  0  0  0  0  0  0
   -5.5285   -0.8187   -0.2732 N   0  0  0  0  0  0  0  0  0  0  0  0
   -3.0160    1.8981   -0.0505 N   0  0  0  0  0  0  0  0  0  0  0  0
   -0.7538    1.2417   -0.0301 N   0  0  0  0  0  0  0  0  0  0  0  0
    1.1262   -0.7243   -0.0764 N   0  0  0  0  0  0  0  0  0  0  0  0
    2.8470    0.6787    0.0242 N   0  0  0  0  0  0  0  0  0  0  0  0
    5.5501    1.2684    0.1115 N   0  0  0  0  0  0  0  0  0  0  0  0
   -6.9151   -0.8725   -0.7353 C   0  0  0  0  0  0  0  0  0  0  0  0
   -5.5349   -1.4908    1.0259 C   0  0  0  0  0  0  0  0  0  0  0  0
   -7.3387   -2.2892   -0.3767 C   0  0  0  0  0  0  0  0  0  0  0  0
   -6.4340   -2.6942    0.7831 C   0  0  0  0  0  0  0  0  0  0  0  0
   -5.0226    0.5435   -0.1915 C   0  0  0  0  0  0  0  0  0  0  0  0
   -3.5010    0.5404   -0.1231 C   0  0  0  0  0  0  0  0  0  0  0  0
   -1.6721    2.2336   -0.0055 C   0  0  0  0  0  0  0  0  0  0  0  0
    0.5426    1.6223    0.0160 C   0  0  0  0  0  0  0  0  0  0  0  0
    1.4876    0.5375   -0.0123 C   0  0  0  0  0  0  0  0  0  0  0  0
    2.3051   -1.4338   -0.0821 C   0  0  0  0  0  0  0  0  0  0  0  0
   -1.3568    3.5811    0.0628 C   0  0  0  0  0  0  0  0  0  0  0  0
    3.3995   -0.5757   -0.0196 C   0  0  0  0  0  0  0  0  0  0  0  0
    0.9617    2.9412    0.0849 C   0  0  0  0  0  0  0  0  0  0  0  0
    4.7221   -1.0197   -0.0101 C   0  0  0  0  0  0  0  0  0  0  0  0
   -0.0124    3.9332    0.1085 C   0  0  0  0  0  0  0  0  0  0  0  0
    2.5246   -2.8205   -0.1391 C   0  0  0  0  0  0  0  0  0  0  0  0
    4.9221   -2.4030   -0.0674 C   0  0  0  0  0  0  0  0  0  0  0  0
    3.8443   -3.2892   -0.1308 C   0  0  0  0  0  0  0  0  0  0  0  0
    5.8362   -0.0950    0.0571 C   0  0  0  0  0  0  0  0  0  0  0  0
   -7.5472   -0.1497   -0.2033 H   0  0  0  0  0  0  0  0  0  0  0  0
   -7.0010   -0.6871   -1.8106 H   0  0  0  0  0  0  0  0  0  0  0  0
   -4.5365   -1.8060    1.3440 H   0  0  0  0  0  0  0  0  0  0  0  0
   -5.9698   -0.8604    1.8122 H   0  0  0  0  0  0  0  0  0  0  0  0
   -8.3970   -2.3343   -0.1006 H   0  0  0  0  0  0  0  0  0  0  0  0
   -7.1826   -2.9683   -1.2231 H   0  0  0  0  0  0  0  0  0  0  0  0
   -5.8419   -3.5730    0.5017 H   0  0  0  0  0  0  0  0  0  0  0  0
   -7.0116   -2.9506    1.6770 H   0  0  0  0  0  0  0  0  0  0  0  0
   -5.3128    1.0962   -1.0957 H   0  0  0  0  0  0  0  0  0  0  0  0
   -5.4571    1.0927    0.6544 H   0  0  0  0  0  0  0  0  0  0  0  0
   -3.0902    0.0452   -1.0119 H   0  0  0  0  0  0  0  0  0  0  0  0
   -3.1555   -0.0106    0.7592 H   0  0  0  0  0  0  0  0  0  0  0  0
   -3.6794    2.6246    0.1991 H   0  0  0  0  0  0  0  0  0  0  0  0
   -2.1204    4.3521    0.0800 H   0  0  0  0  0  0  0  0  0  0  0  0
    0.1941   -1.1181   -0.1144 H   0  0  0  0  0  0  0  0  0  0  0  0
    2.0108    3.2159    0.1206 H   0  0  0  0  0  0  0  0  0  0  0  0
    0.2756    4.9788    0.1621 H   0  0  0  0  0  0  0  0  0  0  0  0
    1.6926   -3.5162   -0.1886 H   0  0  0  0  0  0  0  0  0  0  0  0
    5.9284   -2.8165   -0.0632 H   0  0  0  0  0  0  0  0  0  0  0  0
    4.0311   -4.3591   -0.1743 H   0  0  0  0  0  0  0  0  0  0  0  0
    6.3030    1.9476    0.1529 H   0  0  0  0  0  0  0  0  0  0  0  0
    4.6088    1.6456    0.1134 H   0  0  0  0  0  0  0  0  0  0  0  0
  1 26  2  0  0  0  0
  2  8  1  0  0  0  0
  2  9  1  0  0  0  0
  2 12  1  0  0  0  0
  3 13  1  0  0  0  0
  3 14  1  0  0  0  0
  3 39  1  0  0  0  0
  4 14  1  0  0  0  0
  4 15  2  0  0  0  0
  5 16  1  0  0  0  0
  5 17  1  0  0  0  0
  5 41  1  0  0  0  0
  6 16  2  0  0  0  0
  6 19  1  0  0  0  0
  7 26  1  0  0  0  0
  7 47  1  0  0  0  0
  7 48  1  0  0  0  0
  8 10  1  0  0  0  0
  8 27  1  0  0  0  0
  8 28  1  0  0  0  0
  9 11  1  0  0  0  0
  9 29  1  0  0  0  0
  9 30  1  0  0  0  0
 10 11  1  0  0  0  0
 10 31  1  0  0  0  0
 10 32  1  0  0  0  0
 11 33  1  0  0  0  0
 11 34  1  0  0  0  0
 12 13  1  0  0  0  0
 12 35  1  0  0  0  0
 12 36  1  0  0  0  0
 13 37  1  0  0  0  0
 13 38  1  0  0  0  0
 14 18  2  0  0  0  0
 15 16  1  0  0  0  0
 15 20  1  0  0  0  0
 17 19  1  0  0  0  0
 17 23  2  0  0  0  0
 18 22  1  0  0  0  0
 18 40  1  0  0  0  0
 19 21  2  0  0  0  0
 20 22  2  0  0  0  0
 20 42  1  0  0  0  0
 21 24  1  0  0  0  0
 21 26  1  0  0  0  0
 22 43  1  0  0  0  0
 23 25  1  0  0  0  0
 23 44  1  0  0  0  0
 24 25  2  0  0  0  0
 24 45  1  0  0  0  0
 25 46  1  0  0  0  0
M  END
> <PUBCHEM_COMPOUND_CID>
23433114

> <PUBCHEM_CONFORMER_RMSD>
1

> <PUBCHEM_CONFORMER_DIVERSEORDER>
1
82
26
56
54
24
12
73
59
81
22
49
18
85
41
45
55
48
42
67
74
92
33
16
51
38
90
63
84
28
70
69
80
77
25
8
88
31
58
37
76
2
68
79
11
47
52
60
43
21
62
44
19
66
13
20
50
15
35
57
23
29
17
46
40
36
71
10
65
78
5
83
27
7
86
14
53
75
3
87
9
89
30
39
93
32
61
6
4
34
91
64
72

> <PUBCHEM_MMFF94_PARTIAL_CHARGES>
34
1 -0.57
12 0.27
13 0.37
14 0.41
15 0.36
16 0.13
17 -0.15
18 -0.15
19 0.23
2 -0.81
20 -0.15
21 0.09
22 -0.15
23 -0.15
24 -0.15
25 -0.15
26 0.54
3 -0.87
39 0.4
4 -0.62
40 0.15
41 0.27
42 0.15
43 0.15
44 0.15
45 0.15
46 0.15
47 0.37
48 0.37
5 0.03
6 -0.57
7 -0.8
8 0.27
9 0.27

> <PUBCHEM_EFFECTIVE_ROTOR_COUNT>
7

> <PUBCHEM_PHARMACOPHORE_FEATURES>
12
1 1 acceptor
1 2 cation
1 3 cation
1 3 donor
1 4 acceptor
1 5 donor
1 7 donor
3 5 6 16 cation
5 2 8 9 10 11 rings
5 5 6 16 17 19 rings
6 17 19 21 23 24 25 rings
6 4 14 15 18 20 22 rings

> <PUBCHEM_HEAVY_ATOM_COUNT>
26

> <PUBCHEM_ATOM_DEF_STEREO_COUNT>
0

> <PUBCHEM_ATOM_UDEF_STEREO_COUNT>
0

> <PUBCHEM_BOND_DEF_STEREO_COUNT>
0

> <PUBCHEM_BOND_UDEF_STEREO_COUNT>
0

> <PUBCHEM_ISOTOPIC_ATOM_COUNT>
0

> <PUBCHEM_COMPONENT_COUNT>
1

> <PUBCHEM_CACTVS_TAUTO_COUNT>
16

> <PUBCHEM_CONFORMER_ID>
01658F9A00000001

> <PUBCHEM_MMFF94_ENERGY>
66.901

> <PUBCHEM_FEATURE_SELFOVERLAP>
61.004

> <PUBCHEM_SHAPE_FINGERPRINT>
11409948 8 18268704099411176464
11497681 19 18342743966906220966
11963148 33 18409158905466814994
12107183 9 18270695182305315697
12516196 113 18411419518505100251
12623949 98 17774452581354150678
13402501 40 18335421292226696315
13631057 29 18410856521312424064
13911852 28 18411980248408816095
13955234 65 17983294013534843993
13989917 61 18121782992111346219
14168556 18 18411978092351155344
14429380 30 18409451362716514883
1454969 45 18410579517670923100
15064981 113 13984661395862056546
15274700 208 16915928764449403954
15351339 4 17967803921792123619
15352361 1 18410293588833978523
15510800 12 17969226806124167019
15927050 60 17621319469548471212
17492 89 18195526983308444174
20165401 70 18125439963912472087
20567600 70 18408886269653397739
21033650 10 16443333253626072997
21049683 271 18336831999699293116
21197605 99 18412826902422109110
21774942 28 13046205153227890871
22149856 69 18272098162218350728
23559900 14 18337101367943365769
23569917 315 18339083675998299494
25222932 49 18412823603143395391
2748736 6 8934998132082559159
3004659 81 18040430019070066817
314194 84 18342734152578641957
329604 57 18335143085202698084
3421961 26 18340485672943845209
3627633 1 18339080380983098845
439807 62 18261114097767168543
4461854 278 17917439773563935855
46194498 28 17676481808889174197
5104073 3 18055627310028436808
5309563 4 18412262822775789663
59682541 35 18271515477713072144
6431902 208 18410292506560632039
7970288 3 18411135823347204991

> <PUBCHEM_SHAPE_MULTIPOLES>
499.31
18.47
4.53
0.7
17.74
2.13
-0.04
-17.62
0.23
0.69
-0.21
0.63
-0.17
0.62

> <PUBCHEM_SHAPE_SELFOVERLAP>
1090.618

> <PUBCHEM_SHAPE_VOLUME>
272.6

> <PUBCHEM_COORDINATE_TYPE>
2
5
10

$$$$
