49830543
  -OEChem-10062121533D

 42 45  0     0  0  0  0  0  0999 V2000
   -2.6624   -4.0564   -0.6118 O   0  0  0  0  0  0  0  0  0  0  0  0
   -5.0202   -2.1212   -0.4906 O   0  0  0  0  0  0  0  0  0  0  0  0
    5.6045   -0.6308    0.5172 O   0  0  0  0  0  0  0  0  0  0  0  0
   -0.5876   -1.8359    0.4267 N   0  0  0  0  0  0  0  0  0  0  0  0
   -3.1850    0.3052    0.5626 N   0  0  0  0  0  0  0  0  0  0  0  0
    0.2258    4.5893   -0.0330 N   0  0  0  0  0  0  0  0  0  0  0  0
    0.9999    4.2461   -1.0759 N   0  0  0  0  0  0  0  0  0  0  0  0
   -1.8722   -1.8071    0.1933 C   0  0  0  0  0  0  0  0  0  0  0  0
   -2.9208   -0.9465    0.2471 C   0  0  0  0  0  0  0  0  0  0  0  0
   -2.7166   -2.8998   -0.2845 C   0  0  0  0  0  0  0  0  0  0  0  0
    0.3613   -2.5289   -0.4190 C   0  0  0  0  0  0  0  0  0  0  0  0
   -3.8571   -1.9638   -0.2259 C   0  0  0  0  0  0  0  0  0  0  0  0
   -2.3437    1.4366    0.4674 C   0  0  0  0  0  0  0  0  0  0  0  0
    1.7556   -2.0240   -0.1706 C   0  0  0  0  0  0  0  0  0  0  0  0
   -0.5332    2.6133   -0.6060 C   0  0  0  0  0  0  0  0  0  0  0  0
   -1.3592    1.4797   -0.5278 C   0  0  0  0  0  0  0  0  0  0  0  0
   -0.7149    3.6523    0.2999 C   0  0  0  0  0  0  0  0  0  0  0  0
   -2.5047    2.4944    1.3644 C   0  0  0  0  0  0  0  0  0  0  0  0
   -1.6902    3.6295    1.2992 C   0  0  0  0  0  0  0  0  0  0  0  0
    2.1554   -0.7930   -0.6911 C   0  0  0  0  0  0  0  0  0  0  0  0
    2.6495   -2.7867    0.5809 C   0  0  0  0  0  0  0  0  0  0  0  0
    0.5353    3.0434   -1.4218 C   0  0  0  0  0  0  0  0  0  0  0  0
    3.4488   -0.3250   -0.4602 C   0  0  0  0  0  0  0  0  0  0  0  0
    3.9431   -2.3188    0.8119 C   0  0  0  0  0  0  0  0  0  0  0  0
    4.3426   -1.0880    0.2912 C   0  0  0  0  0  0  0  0  0  0  0  0
    5.9461    0.6361   -0.0436 C   0  0  0  0  0  0  0  0  0  0  0  0
   -0.1743   -1.0844    0.9769 H   0  0  0  0  0  0  0  0  0  0  0  0
    0.1181   -2.3839   -1.4801 H   0  0  0  0  0  0  0  0  0  0  0  0
    0.3066   -3.6081   -0.2303 H   0  0  0  0  0  0  0  0  0  0  0  0
   -4.1413    0.5776    0.7837 H   0  0  0  0  0  0  0  0  0  0  0  0
   -1.2301    0.6768   -1.2467 H   0  0  0  0  0  0  0  0  0  0  0  0
   -3.2732    2.4471    2.1333 H   0  0  0  0  0  0  0  0  0  0  0  0
   -1.8135    4.4518    1.9951 H   0  0  0  0  0  0  0  0  0  0  0  0
    1.4677   -0.1927   -1.2805 H   0  0  0  0  0  0  0  0  0  0  0  0
    2.3510   -3.7465    0.9941 H   0  0  0  0  0  0  0  0  0  0  0  0
    0.9943    2.5281   -2.2537 H   0  0  0  0  0  0  0  0  0  0  0  0
    0.3917    5.4837    0.4113 H   0  0  0  0  0  0  0  0  0  0  0  0
    3.6927    0.6388   -0.8938 H   0  0  0  0  0  0  0  0  0  0  0  0
    4.6349   -2.9171    1.3985 H   0  0  0  0  0  0  0  0  0  0  0  0
    5.9066    0.6155   -1.1379 H   0  0  0  0  0  0  0  0  0  0  0  0
    5.3351    1.4411    0.3789 H   0  0  0  0  0  0  0  0  0  0  0  0
    6.9846    0.8434    0.2349 H   0  0  0  0  0  0  0  0  0  0  0  0
  1 10  2  0  0  0  0
  2 12  2  0  0  0  0
  3 25  1  0  0  0  0
  3 26  1  0  0  0  0
  4  8  1  0  0  0  0
  4 11  1  0  0  0  0
  4 27  1  0  0  0  0
  5  9  1  0  0  0  0
  5 13  1  0  0  0  0
  5 30  1  0  0  0  0
  6  7  1  0  0  0  0
  6 17  1  0  0  0  0
  6 37  1  0  0  0  0
  7 22  2  0  0  0  0
  8  9  2  0  0  0  0
  8 10  1  0  0  0  0
  9 12  1  0  0  0  0
 10 12  1  0  0  0  0
 11 14  1  0  0  0  0
 11 28  1  0  0  0  0
 11 29  1  0  0  0  0
 13 16  2  0  0  0  0
 13 18  1  0  0  0  0
 14 20  2  0  0  0  0
 14 21  1  0  0  0  0
 15 16  1  0  0  0  0
 15 17  2  0  0  0  0
 15 22  1  0  0  0  0
 16 31  1  0  0  0  0
 17 19  1  0  0  0  0
 18 19  2  0  0  0  0
 18 32  1  0  0  0  0
 19 33  1  0  0  0  0
 20 23  1  0  0  0  0
 20 34  1  0  0  0  0
 21 24  2  0  0  0  0
 21 35  1  0  0  0  0
 22 36  1  0  0  0  0
 23 25  2  0  0  0  0
 23 38  1  0  0  0  0
 24 25  1  0  0  0  0
 24 39  1  0  0  0  0
 26 40  1  0  0  0  0
 26 41  1  0  0  0  0
 26 42  1  0  0  0  0
M  END
> <PUBCHEM_COMPOUND_CID>
49830543

> <PUBCHEM_CONFORMER_RMSD>
1

> <PUBCHEM_CONFORMER_DIVERSEORDER>
1
45
61
66
71
128
169
112
11
150
21
156
104
32
77
100
54
121
53
7
33
105
48
65
97
161
126
38
30
23
118
116
155
162
164
171
99
132
133
127
84
57
86
22
14
137
96
28
160
17
124
123
158
4
40
50
72
145
75
19
135
125
114
98
47
63
49
151
93
56
44
62
16
120
67
115
80
148
113
5
64
88
42
170
107
109
41
20
131
90
83
59
138
91
144
165
119
78
13
51
122
154
29
142
92
152
85
136
69
149
146
143
12
34
82
2
130
81
37
74
139
9
70
89
10
102
60
36
95
46
15
147
159
6
166
153
55
79
25
163
140
31
73
3
173
134
52
117
24
101
18
141
58
76
27
172
26
103
68
94
168
43
39
129
157
8
106
110
108
111
87
167
35

> <PUBCHEM_MMFF94_PARTIAL_CHARGES>
36
1 -0.57
10 0.64
11 0.51
12 0.64
13 0.1
14 -0.14
16 -0.15
17 -0.15
18 -0.15
19 -0.15
2 -0.57
20 -0.15
21 -0.15
22 0.14
23 -0.15
24 -0.15
25 0.08
26 0.28
27 0.4
3 -0.36
30 0.4
31 0.15
32 0.15
33 0.15
34 0.15
35 0.15
36 0.15
37 0.27
38 0.15
39 0.15
4 -0.87
5 -0.6
6 0.3
7 -0.71
8 0.03
9 0.03

> <PUBCHEM_EFFECTIVE_ROTOR_COUNT>
6

> <PUBCHEM_PHARMACOPHORE_FEATURES>
13
1 1 acceptor
1 2 acceptor
1 3 acceptor
1 4 cation
1 4 donor
1 5 cation
1 5 donor
1 6 donor
1 7 acceptor
4 8 9 10 12 rings
5 6 7 15 17 22 rings
6 13 15 16 17 18 19 rings
6 14 20 21 23 24 25 rings

> <PUBCHEM_HEAVY_ATOM_COUNT>
26

> <PUBCHEM_ATOM_DEF_STEREO_COUNT>
0

> <PUBCHEM_ATOM_UDEF_STEREO_COUNT>
0

> <PUBCHEM_BOND_DEF_STEREO_COUNT>
0

> <PUBCHEM_BOND_UDEF_STEREO_COUNT>
0

> <PUBCHEM_ISOTOPIC_ATOM_COUNT>
0

> <PUBCHEM_COMPONENT_COUNT>
1

> <PUBCHEM_CACTVS_TAUTO_COUNT>
16

> <PUBCHEM_CONFORMER_ID>
02F85A8F00000001

> <PUBCHEM_MMFF94_ENERGY>
82.7478

> <PUBCHEM_FEATURE_SELFOVERLAP>
66.064

> <PUBCHEM_SHAPE_FINGERPRINT>
10670039 82 18336558149095868670
1100329 8 18338524165558509307
11370993 70 17400356746342262384
11595378 159 18189877787122608746
12156800 1 17027639020433478221
13004483 165 18337662036562349091
138480 1 15240319815031306823
14081887 123 18339353072697675088
15351339 4 17760092113582094788
15419008 145 18337089222171174216
15927050 60 17187009129185900174
15961568 22 18411421739462167558
167882 2 17976535345427892711
17627616 140 17544195338808949692
18336668 15 18113900515245251980
1979834 28 17330309089920554137
19930381 70 17906168812641531779
21344244 246 17691953183238512079
22113638 7 18337679624569327989
23559900 14 18123739018664341891
238 59 16604047493240626765
25019877 29 17488744472297675127
3298306 158 17403176396898935119
392239 28 18410294740033361840
437795 70 17907903688384255732
469060 322 18410300215641638306
474144 1 17970371354140568900

> <PUBCHEM_SHAPE_MULTIPOLES>
497.54
9
6.48
1.03
12.21
4.25
0.03
-4.56
1.47
-4.91
-0.78
-0.18
0.66
-1.73

> <PUBCHEM_SHAPE_SELFOVERLAP>
1103.776

> <PUBCHEM_SHAPE_VOLUME>
265.4

> <PUBCHEM_COORDINATE_TYPE>
2
5
10

$$$$
