24905338
  -OEChem-10052115163D

 39 41  0     0  0  0  0  0  0999 V2000
    5.1433    0.2795   -0.0001 S   0  0  0  0  0  0  0  0  0  0  0  0
    5.6002    0.8497   -1.2598 O   0  0  0  0  0  0  0  0  0  0  0  0
    5.6034    0.8470    1.2596 O   0  0  0  0  0  0  0  0  0  0  0  0
   -2.7932    1.0262    0.0001 N   0  0  0  0  0  0  0  0  0  0  0  0
   -1.5032    1.4104    0.0004 N   0  0  0  0  0  0  0  0  0  0  0  0
   -4.1216   -0.9982   -0.0003 N   0  0  0  0  0  0  0  0  0  0  0  0
   -2.7215   -2.9958   -0.0004 N   0  0  0  0  0  0  0  0  0  0  0  0
   -0.3365   -2.8993    0.0009 N   0  0  0  0  0  0  0  0  0  0  0  0
    5.4767   -1.3963   -0.0007 N   0  0  0  0  0  0  0  0  0  0  0  0
   -3.8340    2.0266    0.0003 C   0  0  0  0  0  0  0  0  0  0  0  0
   -1.6850   -0.8678   -0.0001 C   0  0  0  0  0  0  0  0  0  0  0  0
   -2.9589   -0.3270   -0.0001 C   0  0  0  0  0  0  0  0  0  0  0  0
   -0.8335    0.2527    0.0002 C   0  0  0  0  0  0  0  0  0  0  0  0
    0.6077    0.2589    0.0000 C   0  0  0  0  0  0  0  0  0  0  0  0
   -3.7817    2.8937   -1.2601 C   0  0  0  0  0  0  0  0  0  0  0  0
   -3.7816    2.8934    1.2608 C   0  0  0  0  0  0  0  0  0  0  0  0
   -1.5871   -2.2552   -0.0002 C   0  0  0  0  0  0  0  0  0  0  0  0
    1.3051    0.2623   -1.2079 C   0  0  0  0  0  0  0  0  0  0  0  0
    1.3052    0.2619    1.2081 C   0  0  0  0  0  0  0  0  0  0  0  0
    3.3974    0.2714    0.0000 C   0  0  0  0  0  0  0  0  0  0  0  0
    2.6999    0.2685   -1.2081 C   0  0  0  0  0  0  0  0  0  0  0  0
    2.7000    0.2681    1.2080 C   0  0  0  0  0  0  0  0  0  0  0  0
   -3.9014   -2.3306   -0.0005 C   0  0  0  0  0  0  0  0  0  0  0  0
   -4.7951    1.4984    0.0003 H   0  0  0  0  0  0  0  0  0  0  0  0
   -3.8276    2.2732   -2.1621 H   0  0  0  0  0  0  0  0  0  0  0  0
   -2.8593    3.4831   -1.3087 H   0  0  0  0  0  0  0  0  0  0  0  0
   -4.6270    3.5895   -1.2859 H   0  0  0  0  0  0  0  0  0  0  0  0
   -2.8593    3.4830    1.3092 H   0  0  0  0  0  0  0  0  0  0  0  0
   -3.8274    2.2729    2.1626 H   0  0  0  0  0  0  0  0  0  0  0  0
   -4.6269    3.5893    1.2867 H   0  0  0  0  0  0  0  0  0  0  0  0
    0.7762    0.2582   -2.1581 H   0  0  0  0  0  0  0  0  0  0  0  0
    0.7763    0.2575    2.1583 H   0  0  0  0  0  0  0  0  0  0  0  0
    3.2225    0.2642   -2.1604 H   0  0  0  0  0  0  0  0  0  0  0  0
    3.2227    0.2636    2.1603 H   0  0  0  0  0  0  0  0  0  0  0  0
   -4.7894   -2.9537   -0.0008 H   0  0  0  0  0  0  0  0  0  0  0  0
    0.5255   -2.3743    0.0017 H   0  0  0  0  0  0  0  0  0  0  0  0
   -0.3104   -3.9102    0.0013 H   0  0  0  0  0  0  0  0  0  0  0  0
    5.8587   -1.8061   -0.8617 H   0  0  0  0  0  0  0  0  0  0  0  0
    5.8589   -1.8066    0.8601 H   0  0  0  0  0  0  0  0  0  0  0  0
  1  2  2  0  0  0  0
  1  3  2  0  0  0  0
  1  9  1  0  0  0  0
  1 20  1  0  0  0  0
  4  5  1  0  0  0  0
  4 10  1  0  0  0  0
  4 12  1  0  0  0  0
  5 13  2  0  0  0  0
  6 12  2  0  0  0  0
  6 23  1  0  0  0  0
  7 17  1  0  0  0  0
  7 23  2  0  0  0  0
  8 17  1  0  0  0  0
  8 36  1  0  0  0  0
  8 37  1  0  0  0  0
  9 38  1  0  0  0  0
  9 39  1  0  0  0  0
 10 15  1  0  0  0  0
 10 16  1  0  0  0  0
 10 24  1  0  0  0  0
 11 12  1  0  0  0  0
 11 13  1  0  0  0  0
 11 17  2  0  0  0  0
 13 14  1  0  0  0  0
 14 18  2  0  0  0  0
 14 19  1  0  0  0  0
 15 25  1  0  0  0  0
 15 26  1  0  0  0  0
 15 27  1  0  0  0  0
 16 28  1  0  0  0  0
 16 29  1  0  0  0  0
 16 30  1  0  0  0  0
 18 21  1  0  0  0  0
 18 31  1  0  0  0  0
 19 22  2  0  0  0  0
 19 32  1  0  0  0  0
 20 21  2  0  0  0  0
 20 22  1  0  0  0  0
 21 33  1  0  0  0  0
 22 34  1  0  0  0  0
 23 35  1  0  0  0  0
M  END
> <PUBCHEM_COMPOUND_CID>
24905338

> <PUBCHEM_CONFORMER_RMSD>
0.6

> <PUBCHEM_CONFORMER_DIVERSEORDER>
1
11
6
8
9
10
12
7
5
2
3
4

> <PUBCHEM_MMFF94_PARTIAL_CHARGES>
29
1 1.45
10 0.26
12 0.11
13 0.23
14 0.05
17 0.41
18 -0.15
19 -0.15
2 -0.65
20 -0.01
21 -0.15
22 -0.15
23 0.47
3 -0.65
31 0.15
32 0.15
33 0.15
34 0.15
35 0.15
36 0.4
37 0.4
38 0.42
39 0.42
4 0.31
5 -0.71
6 -0.57
7 -0.62
8 -0.9
9 -0.98

> <PUBCHEM_EFFECTIVE_ROTOR_COUNT>
3

> <PUBCHEM_PHARMACOPHORE_FEATURES>
12
1 2 acceptor
1 3 acceptor
1 5 acceptor
1 8 cation
1 8 donor
1 9 donor
3 10 15 16 hydrophobe
3 4 6 12 cation
3 6 7 23 cation
5 4 5 11 12 13 rings
6 14 18 19 20 21 22 rings
6 6 7 11 12 17 23 rings

> <PUBCHEM_HEAVY_ATOM_COUNT>
23

> <PUBCHEM_ATOM_DEF_STEREO_COUNT>
0

> <PUBCHEM_ATOM_UDEF_STEREO_COUNT>
0

> <PUBCHEM_BOND_DEF_STEREO_COUNT>
0

> <PUBCHEM_BOND_UDEF_STEREO_COUNT>
0

> <PUBCHEM_ISOTOPIC_ATOM_COUNT>
0

> <PUBCHEM_COMPONENT_COUNT>
1

> <PUBCHEM_CACTVS_TAUTO_COUNT>
5

> <PUBCHEM_CONFORMER_ID>
017C067A00000001

> <PUBCHEM_MMFF94_ENERGY>
37.2969

> <PUBCHEM_FEATURE_SELFOVERLAP>
61.192

> <PUBCHEM_SHAPE_FINGERPRINT>
10165383 225 18268719316417430801
10319926 262 18270381855528813048
10411042 1 17978229692978943563
105312 117 18116422662081624965
10595046 47 18262241148609150124
10912923 1 17967532398333277288
11315181 36 18187362177511380548
11405975 8 18412825768439596664
11796584 16 18342461383907270326
12107183 9 18046902685161781234
12236239 1 17676203601965512142
12390115 104 18200043850021064641
12403259 415 17989488545753971368
12500047 106 18412258415632824812
12616971 3 17240761770909702032
12788726 201 18192164899703629255
13140716 1 18122631815060836187
13167823 11 18333731338638685650
13583140 156 17988913501362321056
13760787 5 16008746910222428988
14508225 48 18195233637305456261
14790565 3 17693668021539624113
15042514 8 18265337399033827771
16087824 20 18411696583869040847
16752209 62 18336815477275940651
17844677 252 18341617066092760592
200 152 16588296232862520806
20510252 161 18343302604517090361
20554085 129 17984114025553997177
20645477 56 18411987936047055817
20645477 70 16630535007768899732
21033648 29 17346306116488944448
21065198 57 18342736338817300248
21065201 7 18411693305627404082
21236236 1 18412544306199867165
21279426 13 18199754652862110246
22224240 67 18270130011716782241
2297311 6 18269847556342354094
23175994 123 17060346257317655032
23402539 116 18340481266064494903
23557571 272 18200887243942787044
23559900 14 18269549606055829296
23598291 2 17749397008942670364
2748010 2 18193568762005457063
283562 15 18411697712691468267
312423 11 17823431546161923508
34797466 226 18058181686151731508
350125 39 18410296925939301521
4214541 1 18410573989720965376
5104073 3 18411697665203878258
5265222 85 18270693090492575838
5283173 99 18343303656678816616
559249 180 18336261241848326618
573450 72 18333725828031835370
59755656 215 18341895173767657943
59755656 520 18199751358658941729
6327066 14 18042678404480471141
81228 2 18338240487526988769
9862522 239 17823409401722190661

> <PUBCHEM_SHAPE_MULTIPOLES>
435.55
11.38
3.02
1.12
14
0.81
0
-3.08
0
-5.62
0
0.59
-0.6
0

> <PUBCHEM_SHAPE_SELFOVERLAP>
937.159

> <PUBCHEM_SHAPE_VOLUME>
243.9

> <PUBCHEM_COORDINATE_TYPE>
2
5
10

$$$$
