24894993
  -OEChem-10062122013D

 64 68  0     0  0  0  0  0  0999 V2000
    2.7894   -0.9454   -1.1929 O   0  0  0  0  0  0  0  0  0  0  0  0
   -5.5821    0.3153   -0.0511 O   0  0  0  0  0  0  0  0  0  0  0  0
   -2.3440    4.2294   -1.1883 O   0  0  0  0  0  0  0  0  0  0  0  0
   -0.3117    2.1737    2.6301 O   0  0  0  0  0  0  0  0  0  0  0  0
   -0.6805    4.3966    1.0197 O   0  0  0  0  0  0  0  0  0  0  0  0
    0.7439   -2.0591   -1.2588 N   0  0  0  0  0  0  0  0  0  0  0  0
   -5.0332   -1.9020   -0.5452 N   0  0  0  0  0  0  0  0  0  0  0  0
   -1.3635   -2.0182   -0.5630 C   0  0  0  0  0  0  0  0  0  0  0  0
   -2.7819   -1.6413   -0.4640 C   0  0  0  0  0  0  0  0  0  0  0  0
   -0.6590   -2.9844    0.2084 C   0  0  0  0  0  0  0  0  0  0  0  0
    0.6608   -2.9903   -0.2482 C   0  0  0  0  0  0  0  0  0  0  0  0
   -3.8387   -2.6793   -0.6823 C   0  0  0  0  0  0  0  0  0  0  0  0
   -3.2941   -0.4259   -0.1855 C   0  0  0  0  0  0  0  0  0  0  0  0
   -0.4743   -1.4664   -1.4563 C   0  0  0  0  0  0  0  0  0  0  0  0
   -4.7734   -0.5773   -0.2448 C   0  0  0  0  0  0  0  0  0  0  0  0
   -2.6131    0.8301    0.1284 C   0  0  0  0  0  0  0  0  0  0  0  0
    1.9371   -1.7400   -2.0128 C   0  0  0  0  0  0  0  0  0  0  0  0
   -1.0186   -3.8573    1.2544 C   0  0  0  0  0  0  0  0  0  0  0  0
    1.6429   -3.8287    0.2913 C   0  0  0  0  0  0  0  0  0  0  0  0
   -0.0468   -4.7016    1.8037 C   0  0  0  0  0  0  0  0  0  0  0  0
    1.2629   -4.6859    1.3279 C   0  0  0  0  0  0  0  0  0  0  0  0
   -1.7759    0.9105    1.2410 C   0  0  0  0  0  0  0  0  0  0  0  0
   -2.8011    1.9475   -0.6851 C   0  0  0  0  0  0  0  0  0  0  0  0
   -2.1520    3.1453   -0.3858 C   0  0  0  0  0  0  0  0  0  0  0  0
   -1.1267    2.1083    1.5404 C   0  0  0  0  0  0  0  0  0  0  0  0
   -1.3148    3.2257    0.7269 C   0  0  0  0  0  0  0  0  0  0  0  0
    3.9815   -0.5799   -1.8749 C   0  0  0  0  0  0  0  0  0  0  0  0
    4.8330    0.2522   -0.9617 C   0  0  0  0  0  0  0  0  0  0  0  0
    4.6889    1.6395   -0.9455 C   0  0  0  0  0  0  0  0  0  0  0  0
    5.7690   -0.3615   -0.1293 C   0  0  0  0  0  0  0  0  0  0  0  0
   -3.2153    4.0626   -2.3051 C   0  0  0  0  0  0  0  0  0  0  0  0
   -0.1740    0.9866    3.4085 C   0  0  0  0  0  0  0  0  0  0  0  0
    0.6076    4.5966    0.4419 C   0  0  0  0  0  0  0  0  0  0  0  0
    5.4808    2.4131   -0.0969 C   0  0  0  0  0  0  0  0  0  0  0  0
    6.5607    0.4121    0.7194 C   0  0  0  0  0  0  0  0  0  0  0  0
    6.4166    1.7994    0.7355 C   0  0  0  0  0  0  0  0  0  0  0  0
   -3.8085   -3.1100   -1.6868 H   0  0  0  0  0  0  0  0  0  0  0  0
   -3.8420   -3.4655    0.0759 H   0  0  0  0  0  0  0  0  0  0  0  0
   -0.6070   -0.7036   -2.2127 H   0  0  0  0  0  0  0  0  0  0  0  0
   -5.9698   -2.2814   -0.6424 H   0  0  0  0  0  0  0  0  0  0  0  0
    2.4263   -2.6773   -2.2993 H   0  0  0  0  0  0  0  0  0  0  0  0
    1.6462   -1.1872   -2.9128 H   0  0  0  0  0  0  0  0  0  0  0  0
   -2.0318   -3.8806    1.6446 H   0  0  0  0  0  0  0  0  0  0  0  0
    2.6650   -3.8211   -0.0721 H   0  0  0  0  0  0  0  0  0  0  0  0
   -0.3179   -5.3757    2.6118 H   0  0  0  0  0  0  0  0  0  0  0  0
    2.0019   -5.3495    1.7698 H   0  0  0  0  0  0  0  0  0  0  0  0
   -1.6706    0.0150    1.8450 H   0  0  0  0  0  0  0  0  0  0  0  0
   -3.4585    1.8278   -1.5403 H   0  0  0  0  0  0  0  0  0  0  0  0
    3.7361   -0.0140   -2.7823 H   0  0  0  0  0  0  0  0  0  0  0  0
    4.5269   -1.4801   -2.1844 H   0  0  0  0  0  0  0  0  0  0  0  0
    3.9613    2.1291   -1.5874 H   0  0  0  0  0  0  0  0  0  0  0  0
    5.8888   -1.4416   -0.1313 H   0  0  0  0  0  0  0  0  0  0  0  0
   -3.2524    5.0228   -2.8301 H   0  0  0  0  0  0  0  0  0  0  0  0
   -4.2389    3.8348   -1.9887 H   0  0  0  0  0  0  0  0  0  0  0  0
   -2.8238    3.3275   -3.0166 H   0  0  0  0  0  0  0  0  0  0  0  0
    0.5110    1.2187    4.2306 H   0  0  0  0  0  0  0  0  0  0  0  0
    0.2860    0.1764    2.8322 H   0  0  0  0  0  0  0  0  0  0  0  0
   -1.1251    0.6888    3.8630 H   0  0  0  0  0  0  0  0  0  0  0  0
    0.9832    5.5693    0.7707 H   0  0  0  0  0  0  0  0  0  0  0  0
    0.5438    4.5975   -0.6509 H   0  0  0  0  0  0  0  0  0  0  0  0
    1.3049    3.8216    0.7759 H   0  0  0  0  0  0  0  0  0  0  0  0
    5.3679    3.4932   -0.0836 H   0  0  0  0  0  0  0  0  0  0  0  0
    7.2890   -0.0657    1.3682 H   0  0  0  0  0  0  0  0  0  0  0  0
    7.0328    2.4016    1.3967 H   0  0  0  0  0  0  0  0  0  0  0  0
  1 17  1  0  0  0  0
  1 27  1  0  0  0  0
  2 15  2  0  0  0  0
  3 24  1  0  0  0  0
  3 31  1  0  0  0  0
  4 25  1  0  0  0  0
  4 32  1  0  0  0  0
  5 26  1  0  0  0  0
  5 33  1  0  0  0  0
  6 11  1  0  0  0  0
  6 14  1  0  0  0  0
  6 17  1  0  0  0  0
  7 12  1  0  0  0  0
  7 15  1  0  0  0  0
  7 40  1  0  0  0  0
  8  9  1  0  0  0  0
  8 10  1  0  0  0  0
  8 14  2  0  0  0  0
  9 12  1  0  0  0  0
  9 13  2  0  0  0  0
 10 11  1  0  0  0  0
 10 18  2  0  0  0  0
 11 19  2  0  0  0  0
 12 37  1  0  0  0  0
 12 38  1  0  0  0  0
 13 15  1  0  0  0  0
 13 16  1  0  0  0  0
 14 39  1  0  0  0  0
 16 22  2  0  0  0  0
 16 23  1  0  0  0  0
 17 41  1  0  0  0  0
 17 42  1  0  0  0  0
 18 20  1  0  0  0  0
 18 43  1  0  0  0  0
 19 21  1  0  0  0  0
 19 44  1  0  0  0  0
 20 21  2  0  0  0  0
 20 45  1  0  0  0  0
 21 46  1  0  0  0  0
 22 25  1  0  0  0  0
 22 47  1  0  0  0  0
 23 24  2  0  0  0  0
 23 48  1  0  0  0  0
 24 26  1  0  0  0  0
 25 26  2  0  0  0  0
 27 28  1  0  0  0  0
 27 49  1  0  0  0  0
 27 50  1  0  0  0  0
 28 29  2  0  0  0  0
 28 30  1  0  0  0  0
 29 34  1  0  0  0  0
 29 51  1  0  0  0  0
 30 35  2  0  0  0  0
 30 52  1  0  0  0  0
 31 53  1  0  0  0  0
 31 54  1  0  0  0  0
 31 55  1  0  0  0  0
 32 56  1  0  0  0  0
 32 57  1  0  0  0  0
 32 58  1  0  0  0  0
 33 59  1  0  0  0  0
 33 60  1  0  0  0  0
 33 61  1  0  0  0  0
 34 36  2  0  0  0  0
 34 62  1  0  0  0  0
 35 36  1  0  0  0  0
 35 63  1  0  0  0  0
 36 64  1  0  0  0  0
M  END
> <PUBCHEM_COMPOUND_CID>
24894993

> <PUBCHEM_CONFORMER_RMSD>
1

> <PUBCHEM_CONFORMER_DIVERSEORDER>
4
37
28
51
38
53
2
24
47
69
73
48
13
42
41
14
39
6
17
56
64
30
11
26
52
55
15
19
70
54
68
46
57
65
12
71
36
40
25
32
9
7
63
67
44
31
43
8
27
22
45
49
23
66
21
60
59
20
34
72
10
29
1
50
62
3
5
35
61
16
18
58
33

> <PUBCHEM_MMFF94_PARTIAL_CHARGES>
48
1 -0.56
11 -0.15
12 0.44
13 -0.01
14 -0.3
15 0.62
16 0.03
17 0.54
18 -0.15
19 -0.15
2 -0.57
20 -0.15
21 -0.15
22 -0.15
23 -0.15
24 0.08
25 0.08
26 0.08
27 0.42
28 -0.14
29 -0.15
3 -0.36
30 -0.15
31 0.28
32 0.28
33 0.28
34 -0.15
35 -0.15
36 -0.15
39 0.15
4 -0.36
40 0.37
43 0.15
44 0.15
45 0.15
46 0.15
47 0.15
48 0.15
5 -0.36
51 0.15
52 0.15
6 0.05
62 0.15
63 0.15
64 0.15
7 -0.73
8 -0.05
9 -0.09

> <PUBCHEM_EFFECTIVE_ROTOR_COUNT>
9.4

> <PUBCHEM_PHARMACOPHORE_FEATURES>
12
1 1 acceptor
1 2 acceptor
1 3 acceptor
1 4 acceptor
1 5 acceptor
1 6 cation
1 7 donor
5 6 8 10 11 14 rings
5 7 9 12 13 15 rings
6 10 11 18 19 20 21 rings
6 16 22 23 24 25 26 rings
6 28 29 30 34 35 36 rings

> <PUBCHEM_HEAVY_ATOM_COUNT>
36

> <PUBCHEM_ATOM_DEF_STEREO_COUNT>
0

> <PUBCHEM_ATOM_UDEF_STEREO_COUNT>
0

> <PUBCHEM_BOND_DEF_STEREO_COUNT>
0

> <PUBCHEM_BOND_UDEF_STEREO_COUNT>
0

> <PUBCHEM_ISOTOPIC_ATOM_COUNT>
0

> <PUBCHEM_COMPONENT_COUNT>
1

> <PUBCHEM_CACTVS_TAUTO_COUNT>
2

> <PUBCHEM_CONFORMER_ID>
017BDE1100000004

> <PUBCHEM_MMFF94_ENERGY>
122.0432

> <PUBCHEM_FEATURE_SELFOVERLAP>
61

> <PUBCHEM_SHAPE_FINGERPRINT>
10032420 55 18339906186838423923
10930396 42 18120350298073173944
11578080 2 17970885818740922695
13165054 342 18195219279097995336
13402501 40 18059857332870706696
13583140 156 16670245854528510235
14725015 67 18338789134432316076
14739800 52 18338230453977697598
15776043 110 17895746315317498362
16067690 210 18191012612045111304
17627616 140 18264206907706270794
21133410 221 17698699722415458864
463206 1 18122631814613112144
469060 322 18117587126515181019
4742675 86 17702967897446333666
9981440 41 18187370904357886587

> <PUBCHEM_SHAPE_MULTIPOLES>
701.55
11.3
7.31
2.12
17.26
0.28
1
4.54
-2.57
-3.06
1.61
0.1
0.57
0.91

> <PUBCHEM_SHAPE_SELFOVERLAP>
1543.629

> <PUBCHEM_SHAPE_VOLUME>
381.6

> <PUBCHEM_COORDINATE_TYPE>
2
5
10

$$$$
