21362754
  -OEChem-10062121583D

 29 31  0     0  0  0  0  0  0999 V2000
   -1.1160   -4.1453   -0.0016 Cl  0  0  0  0  0  0  0  0  0  0  0  0
   -4.0904    1.9981    0.0003 O   0  0  0  0  0  0  0  0  0  0  0  0
   -4.1780   -0.2872   -0.0003 O   0  0  0  0  0  0  0  0  0  0  0  0
    0.8462    1.3568    0.0002 N   0  0  0  0  0  0  0  0  0  0  0  0
   -2.1387    0.8716    0.0001 N   0  0  0  0  0  0  0  0  0  0  0  0
    4.5216    1.6676   -0.0017 N   0  0  0  0  0  0  0  0  0  0  0  0
    1.1710   -0.8501    0.0006 C   0  0  0  0  0  0  0  0  0  0  0  0
    0.1939    0.1461    0.0003 C   0  0  0  0  0  0  0  0  0  0  0  0
    2.4450   -0.1986    0.0009 C   0  0  0  0  0  0  0  0  0  0  0  0
    2.2078    1.1755    0.0001 C   0  0  0  0  0  0  0  0  0  0  0  0
   -1.1766   -0.1381    0.0000 C   0  0  0  0  0  0  0  0  0  0  0  0
    0.7588   -2.1994    0.0003 C   0  0  0  0  0  0  0  0  0  0  0  0
   -1.5598   -1.4820    0.0001 C   0  0  0  0  0  0  0  0  0  0  0  0
    3.7752   -0.6470    0.0013 C   0  0  0  0  0  0  0  0  0  0  0  0
   -0.6081   -2.4989    0.0002 C   0  0  0  0  0  0  0  0  0  0  0  0
    3.2409    2.1037   -0.0009 C   0  0  0  0  0  0  0  0  0  0  0  0
    4.7560    0.3359    0.0000 C   0  0  0  0  0  0  0  0  0  0  0  0
   -3.5265    0.7502    0.0003 C   0  0  0  0  0  0  0  0  0  0  0  0
   -5.5222    2.0412   -0.0003 C   0  0  0  0  0  0  0  0  0  0  0  0
    0.3883    2.2577   -0.0001 H   0  0  0  0  0  0  0  0  0  0  0  0
    1.5012   -2.9934    0.0001 H   0  0  0  0  0  0  0  0  0  0  0  0
   -2.5968   -1.7926   -0.0002 H   0  0  0  0  0  0  0  0  0  0  0  0
    4.0318   -1.7001    0.0020 H   0  0  0  0  0  0  0  0  0  0  0  0
    3.0816    3.1741   -0.0021 H   0  0  0  0  0  0  0  0  0  0  0  0
   -1.7851    1.8248    0.0002 H   0  0  0  0  0  0  0  0  0  0  0  0
    5.8060    0.0592   -0.0003 H   0  0  0  0  0  0  0  0  0  0  0  0
   -5.8302    3.0902   -0.0001 H   0  0  0  0  0  0  0  0  0  0  0  0
   -5.9154    1.5594    0.8998 H   0  0  0  0  0  0  0  0  0  0  0  0
   -5.9147    1.5599   -0.9011 H   0  0  0  0  0  0  0  0  0  0  0  0
  1 15  1  0  0  0  0
  2 18  1  0  0  0  0
  2 19  1  0  0  0  0
  3 18  2  0  0  0  0
  4  8  1  0  0  0  0
  4 10  1  0  0  0  0
  4 20  1  0  0  0  0
  5 11  1  0  0  0  0
  5 18  1  0  0  0  0
  5 25  1  0  0  0  0
  6 16  2  0  0  0  0
  6 17  1  0  0  0  0
  7  8  2  0  0  0  0
  7  9  1  0  0  0  0
  7 12  1  0  0  0  0
  8 11  1  0  0  0  0
  9 10  2  0  0  0  0
  9 14  1  0  0  0  0
 10 16  1  0  0  0  0
 11 13  2  0  0  0  0
 12 15  2  0  0  0  0
 12 21  1  0  0  0  0
 13 15  1  0  0  0  0
 13 22  1  0  0  0  0
 14 17  2  0  0  0  0
 14 23  1  0  0  0  0
 16 24  1  0  0  0  0
 17 26  1  0  0  0  0
 19 27  1  0  0  0  0
 19 28  1  0  0  0  0
 19 29  1  0  0  0  0
M  END
> <PUBCHEM_COMPOUND_CID>
21362754

> <PUBCHEM_CONFORMER_RMSD>
0.6

> <PUBCHEM_CONFORMER_DIVERSEORDER>
1
2
7
3
5
4
6

> <PUBCHEM_MMFF94_PARTIAL_CHARGES>
24
1 -0.18
10 -0.15
11 0.12
12 -0.15
13 -0.15
14 -0.15
15 0.18
16 0.16
17 0.16
18 0.78
19 0.28
2 -0.43
20 0.27
21 0.15
22 0.15
23 0.15
24 0.15
25 0.37
26 0.15
3 -0.57
4 0.03
5 -0.55
6 -0.62
8 -0.15

> <PUBCHEM_EFFECTIVE_ROTOR_COUNT>
3

> <PUBCHEM_PHARMACOPHORE_FEATURES>
8
1 3 acceptor
1 4 cation
1 4 donor
1 5 donor
1 6 acceptor
5 4 7 8 9 10 rings
6 6 9 10 14 16 17 rings
6 7 8 11 12 13 15 rings

> <PUBCHEM_HEAVY_ATOM_COUNT>
19

> <PUBCHEM_ATOM_DEF_STEREO_COUNT>
0

> <PUBCHEM_ATOM_UDEF_STEREO_COUNT>
0

> <PUBCHEM_BOND_DEF_STEREO_COUNT>
0

> <PUBCHEM_BOND_UDEF_STEREO_COUNT>
0

> <PUBCHEM_ISOTOPIC_ATOM_COUNT>
0

> <PUBCHEM_COMPONENT_COUNT>
1

> <PUBCHEM_CACTVS_TAUTO_COUNT>
4

> <PUBCHEM_CONFORMER_ID>
0145F84200000001

> <PUBCHEM_MMFF94_ENERGY>
44.6103

> <PUBCHEM_FEATURE_SELFOVERLAP>
40.782

> <PUBCHEM_SHAPE_FINGERPRINT>
10411042 1 17257933689703873731
10493431 412 18409729577485792293
10608611 8 18125157384400314952
10693767 8 17771339773446646359
10967382 1 18410856534418605478
1100329 8 18264201418543511482
12173636 292 18339076111330835031
12293681 160 17846498102017431025
12390115 104 18269856309860334241
12500047 106 18341047523084601104
12532896 13 18410576192875969959
12644460 14 18115025178064350314
12730499 353 18336837368940273025
12769317 202 18195513814822812885
12788726 201 17902221544412917698
13140716 1 18337943602149701866
13380535 76 18341614827892501318
13544592 145 18342751689162330790
13583140 156 16950832700326132561
138480 1 17617940231950056675
14123255 52 18410572877239890273
14178342 30 18049143751883757696
14790565 3 18410580560879088149
15042514 8 18048322433836214067
15099037 51 18411140204176508014
15196674 1 18410855464449528837
16945 1 18410575136683130626
17539 30 17983568895309435295
18222031 100 8285908030941169289
19591789 44 18337671889164377198
19784866 9 18340485539472577817
20157964 124 18193552265210620813
204376 136 18410577266923196771
20510252 161 18126008397235422258
20602899 9 15482395338670008342
21033648 29 18341325673625321617
212916 134 18270942597146390002
21307412 95 17915204359519600230
21501502 16 18191584375218559054
21524375 3 18333168366719804475
22182313 1 18267891473759949023
22950370 63 9223227472856735733
23402539 116 18272644649567680133
23402655 69 18201434757794179093
23558518 356 17900539283316607360
23559900 14 18271809051844717988
25 1 18411695461252561022
2748010 2 18337974310496481151
293599 30 18410013225900668508
3091708 16 9193814407279916835
335352 9 18410575046831527310
34934 24 18409162234508567696
350125 39 18338521966577133521
394222 165 18188486874210209275
474 4 18339925901134068417
474229 33 18410013282241808003
5104073 3 18407758144515568761
6138700 20 18123756348989354158
633830 44 18272087141664630429
69090 78 18410008866313515298
7164475 11 17905047302312643606
7364860 26 18051131398113223359
77188 2 17185314790637253351
7808743 9 18264770046422306432
7832392 63 18337388352914464316
81228 2 17829598814456839403
8272917 22 18197219140240193893
9709674 26 18270969067325760238
9999458 23 18113340773927753942

> <PUBCHEM_SHAPE_MULTIPOLES>
366.2
9.17
3.44
0.6
3.77
3.49
0
-8.34
0
2.15
0
-0.03
0.04
0

> <PUBCHEM_SHAPE_SELFOVERLAP>
803.125

> <PUBCHEM_SHAPE_VOLUME>
200.4

> <PUBCHEM_COORDINATE_TYPE>
2
5
10

$$$$
