44247753
  -OEChem-10052120443D

 48 52  0     1  0  0  0  0  0999 V2000
   -4.4332   -3.8135    1.2283 O   0  0  0  0  0  0  0  0  0  0  0  0
    3.1346    1.3902   -0.9006 O   0  0  0  0  0  0  0  0  0  0  0  0
   -3.2372   -0.5371   -0.4116 N   0  0  0  0  0  0  0  0  0  0  0  0
   -0.9417    4.4889    0.0816 N   0  0  0  0  0  0  0  0  0  0  0  0
    1.4695    1.1336    0.7261 N   0  0  0  0  0  0  0  0  0  0  0  0
    3.1720   -0.4146    0.5862 N   0  0  0  0  0  0  0  0  0  0  0  0
    4.7332   -1.0733   -1.0954 N   0  0  0  0  0  0  0  0  0  0  0  0
    6.1436   -2.5242    0.8467 N   0  0  0  0  0  0  0  0  0  0  0  0
   -4.8537   -2.2446   -0.5166 C   0  0  2  0  0  0  0  0  0  0  0  0
   -3.4925   -2.8693   -0.7300 C   0  0  1  0  0  0  0  0  0  0  0  0
   -4.6413   -0.7544   -0.7544 C   0  0  0  0  0  0  0  0  0  0  0  0
   -2.5177   -1.7958   -0.2228 C   0  0  0  0  0  0  0  0  0  0  0  0
   -5.1773   -2.6248    0.9223 C   0  0  0  0  0  0  0  0  0  0  0  0
   -3.5580   -4.1101    0.1313 C   0  0  0  0  0  0  0  0  0  0  0  0
   -2.6575    0.7080   -0.2866 C   0  0  0  0  0  0  0  0  0  0  0  0
   -1.3103    0.8242    0.0433 C   0  0  0  0  0  0  0  0  0  0  0  0
   -3.4151    1.8547   -0.4897 C   0  0  0  0  0  0  0  0  0  0  0  0
   -0.7162    2.0913    0.1713 C   0  0  0  0  0  0  0  0  0  0  0  0
   -2.8243    3.1143   -0.3623 C   0  0  0  0  0  0  0  0  0  0  0  0
   -1.4794    3.2598   -0.0333 C   0  0  0  0  0  0  0  0  0  0  0  0
    0.6377    2.2371    0.5023 C   0  0  0  0  0  0  0  0  0  0  0  0
    1.1947    3.5022    0.6214 C   0  0  0  0  0  0  0  0  0  0  0  0
    0.3688    4.5861    0.4027 C   0  0  0  0  0  0  0  0  0  0  0  0
    2.6476    0.7665    0.0371 C   0  0  0  0  0  0  0  0  0  0  0  0
    4.3351   -1.1170    0.1915 C   0  0  0  0  0  0  0  0  0  0  0  0
    5.0278   -1.8297    1.1455 C   0  0  0  0  0  0  0  0  0  0  0  0
    5.8489   -1.7678   -1.3941 C   0  0  0  0  0  0  0  0  0  0  0  0
    6.5416   -2.4806   -0.4403 C   0  0  0  0  0  0  0  0  0  0  0  0
   -5.6100   -2.6632   -1.1898 H   0  0  0  0  0  0  0  0  0  0  0  0
   -3.2876   -3.0962   -1.7819 H   0  0  0  0  0  0  0  0  0  0  0  0
   -4.8037   -0.5110   -1.8107 H   0  0  0  0  0  0  0  0  0  0  0  0
   -5.3286   -0.1663   -0.1365 H   0  0  0  0  0  0  0  0  0  0  0  0
   -2.2639   -1.9351    0.8348 H   0  0  0  0  0  0  0  0  0  0  0  0
   -1.5981   -1.8431   -0.8172 H   0  0  0  0  0  0  0  0  0  0  0  0
   -4.8859   -1.8534    1.6433 H   0  0  0  0  0  0  0  0  0  0  0  0
   -6.2443   -2.8261    1.0583 H   0  0  0  0  0  0  0  0  0  0  0  0
   -4.0012   -4.9450   -0.4222 H   0  0  0  0  0  0  0  0  0  0  0  0
   -2.5829   -4.4264    0.5129 H   0  0  0  0  0  0  0  0  0  0  0  0
   -0.7143   -0.0689    0.2000 H   0  0  0  0  0  0  0  0  0  0  0  0
   -4.4671    1.8197   -0.7561 H   0  0  0  0  0  0  0  0  0  0  0  0
   -3.4386    3.9976   -0.5279 H   0  0  0  0  0  0  0  0  0  0  0  0
    2.2374    3.6514    0.8806 H   0  0  0  0  0  0  0  0  0  0  0  0
    1.0250    0.3490    1.1959 H   0  0  0  0  0  0  0  0  0  0  0  0
    0.7483    5.5995    0.4829 H   0  0  0  0  0  0  0  0  0  0  0  0
    2.8044   -0.6669    1.5008 H   0  0  0  0  0  0  0  0  0  0  0  0
    4.7187   -1.8725    2.1836 H   0  0  0  0  0  0  0  0  0  0  0  0
    6.1694   -1.7331   -2.4279 H   0  0  0  0  0  0  0  0  0  0  0  0
    7.4381   -3.0384   -0.6812 H   0  0  0  0  0  0  0  0  0  0  0  0
  1 13  1  0  0  0  0
  1 14  1  0  0  0  0
  2 24  2  0  0  0  0
  3 11  1  0  0  0  0
  3 12  1  0  0  0  0
  3 15  1  0  0  0  0
  4 20  2  0  0  0  0
  4 23  1  0  0  0  0
  5 21  1  0  0  0  0
  5 24  1  0  0  0  0
  5 43  1  0  0  0  0
  6 24  1  0  0  0  0
  6 25  1  0  0  0  0
  6 45  1  0  0  0  0
  7 25  2  0  0  0  0
  7 27  1  0  0  0  0
  8 26  2  0  0  0  0
  8 28  1  0  0  0  0
  9 10  1  0  0  0  0
  9 11  1  0  0  0  0
  9 13  1  0  0  0  0
  9 29  1  0  0  0  0
 10 12  1  0  0  0  0
 10 14  1  0  0  0  0
 10 30  1  0  0  0  0
 11 31  1  0  0  0  0
 11 32  1  0  0  0  0
 12 33  1  0  0  0  0
 12 34  1  0  0  0  0
 13 35  1  0  0  0  0
 13 36  1  0  0  0  0
 14 37  1  0  0  0  0
 14 38  1  0  0  0  0
 15 16  2  0  0  0  0
 15 17  1  0  0  0  0
 16 18  1  0  0  0  0
 16 39  1  0  0  0  0
 17 19  2  0  0  0  0
 17 40  1  0  0  0  0
 18 20  1  0  0  0  0
 18 21  2  0  0  0  0
 19 20  1  0  0  0  0
 19 41  1  0  0  0  0
 21 22  1  0  0  0  0
 22 23  2  0  0  0  0
 22 42  1  0  0  0  0
 23 44  1  0  0  0  0
 25 26  1  0  0  0  0
 26 46  1  0  0  0  0
 27 28  2  0  0  0  0
 27 47  1  0  0  0  0
 28 48  1  0  0  0  0
M  END
> <PUBCHEM_COMPOUND_CID>
44247753

> <PUBCHEM_CONFORMER_RMSD>
0.8

> <PUBCHEM_CONFORMER_DIVERSEORDER>
4
34
18
24
26
33
17
3
39
40
5
20
37
45
7
19
44
38
6
28
11
13
9
14
47
48
51
12
21
16
50
2
15
27
32
30
43
10
35
31
23
1
36
8
42
22
29
41
49
25
46

> <PUBCHEM_MMFF94_PARTIAL_CHARGES>
35
1 -0.56
11 0.37
12 0.37
13 0.28
14 0.28
15 0.1
16 -0.15
17 -0.15
19 -0.15
2 -0.57
20 0.31
21 0.12
22 -0.15
23 0.16
24 0.69
25 0.43
26 0.16
27 0.16
28 0.16
3 -0.84
39 0.15
4 -0.62
40 0.15
41 0.15
42 0.15
43 0.37
44 0.15
45 0.37
46 0.15
47 0.15
48 0.15
5 -0.55
6 -0.55
7 -0.62
8 -0.62

> <PUBCHEM_EFFECTIVE_ROTOR_COUNT>
6.2

> <PUBCHEM_PHARMACOPHORE_FEATURES>
12
1 1 acceptor
1 2 acceptor
1 3 cation
1 4 acceptor
1 5 donor
1 6 donor
1 8 acceptor
5 1 9 10 13 14 rings
5 3 9 10 11 12 rings
6 15 16 17 18 19 20 rings
6 4 18 20 21 22 23 rings
6 7 8 25 26 27 28 rings

> <PUBCHEM_HEAVY_ATOM_COUNT>
28

> <PUBCHEM_ATOM_DEF_STEREO_COUNT>
0

> <PUBCHEM_ATOM_UDEF_STEREO_COUNT>
2

> <PUBCHEM_BOND_DEF_STEREO_COUNT>
0

> <PUBCHEM_BOND_UDEF_STEREO_COUNT>
0

> <PUBCHEM_ISOTOPIC_ATOM_COUNT>
0

> <PUBCHEM_COMPONENT_COUNT>
1

> <PUBCHEM_CACTVS_TAUTO_COUNT>
11

> <PUBCHEM_CONFORMER_ID>
02A32AC900000004

> <PUBCHEM_MMFF94_ENERGY>
118.8057

> <PUBCHEM_FEATURE_SELFOVERLAP>
61.448

> <PUBCHEM_SHAPE_FINGERPRINT>
10622 236 17896590684017598058
11056379 131 18124880054125197100
11103572 95 17323818029228574923
11285246 1 17967250918370380107
11315621 246 18193846942726181156
11409948 41 17479157014783760903
117089 54 18338243750885651246
11809386 21 18262514789101594530
11963148 33 18194389225228869506
12107183 9 18270698566501739427
12422481 6 17418381293722445422
12788726 201 18261950730846437090
12969540 37 18048872193464891637
12990986 174 18411696561101792300
1361 87 17823420572995918355
13690498 29 18261117356755751020
13785724 45 18267594679198960595
13911852 28 18267582606061891375
13955234 65 17766561626745911593
14251757 5 18337952264370730798
14844126 61 18265051344993446513
14863182 85 17398952064482864453
14866123 147 18340771443103798577
15042514 8 18411699851094590553
15250474 111 17973437707888209898
15320294 125 17682669624207348322
15728490 83 18263369105046569106
15927050 60 17478887191715115629
15968369 26 17685197766205681885
16090146 7 17766288578406001368
16120349 21 18342468006640793843
16719943 64 18051125891695936141
17138139 8 18040149596508414410
17686467 74 18412255126874734704
17859628 70 17834395996694969257
17909252 39 18194686096972454560
19611394 137 18200578226210882194
19958102 18 17832700180513854764
20775530 9 18335696178211599255
21133410 32 16083084990013316450
21307412 95 18341322306813534149
22440779 20 15909157467636795708
22849339 104 18124608483063418756
23379529 103 18412262869376734702
23466295 7 18411142415847554993
23559900 14 18339630257049886901
23569914 152 18053064494812364279
32027 91 18340480188307187207
3383291 50 18268424647305961321
3421961 26 18124311863947703913
3737641 26 18193280912669505649
395649 100 18337674093390344758
437795 163 18335423509030545238
4394409 98 17900819353723787109
44062 13 18409729521593032871
4435113 14 17343519816812411198
44880168 125 17346328093879342374
463206 1 18408324384556414963
508706 21 18199191689580656270
5309563 4 18411698833124447167
5486654 36 18412550911901955217
56633871 153 18199189662852288799
613672 6 18267840917577854346
6371380 46 18199459957944836233
7970288 3 18410853261395745234
88748 71 18336548325698514583
9980921 52 17555722563239896879

> <PUBCHEM_SHAPE_MULTIPOLES>
534.6
14.01
6.64
1.01
18.43
3.33
-0.01
-20.77
-1.1
-4.7
1.04
0.53
-0.53
1.08

> <PUBCHEM_SHAPE_SELFOVERLAP>
1184.51

> <PUBCHEM_SHAPE_VOLUME>
286.7

> <PUBCHEM_COORDINATE_TYPE>
2
5
10

$$$$
