49830488
  -OEChem-10062121553D

 41 43  0     1  0  0  0  0  0999 V2000
    1.7223   -0.7990   -2.0517 O   0  0  0  0  0  0  0  0  0  0  0  0
    2.0583   -1.1576    0.2144 N   0  0  0  0  0  0  0  0  0  0  0  0
   -6.9562    0.6804    0.5507 N   0  0  0  0  0  0  0  0  0  0  0  0
    3.4773   -1.4200    0.1342 C   0  0  1  0  0  0  0  0  0  0  0  0
    4.2841   -0.1438    0.2399 C   0  0  0  0  0  0  0  0  0  0  0  0
    3.8801   -2.4564    1.1812 C   0  0  0  0  0  0  0  0  0  0  0  0
   -0.1462   -0.5960   -0.6497 C   0  0  0  0  0  0  0  0  0  0  0  0
    1.2620   -0.8601   -0.8978 C   0  0  0  0  0  0  0  0  0  0  0  0
    3.8383    0.8983    1.0528 C   0  0  0  0  0  0  0  0  0  0  0  0
    5.4738   -0.0101   -0.4757 C   0  0  0  0  0  0  0  0  0  0  0  0
   -2.8479   -0.0893   -0.1739 C   0  0  0  0  0  0  0  0  0  0  0  0
   -0.8666    0.2210   -1.5211 C   0  0  0  0  0  0  0  0  0  0  0  0
   -0.7767   -1.1596    0.4597 C   0  0  0  0  0  0  0  0  0  0  0  0
   -2.2174    0.4744   -1.2832 C   0  0  0  0  0  0  0  0  0  0  0  0
   -2.1275   -0.9062    0.6976 C   0  0  0  0  0  0  0  0  0  0  0  0
   -4.2489    0.1737    0.0731 C   0  0  0  0  0  0  0  0  0  0  0  0
    4.5825    2.0743    1.1502 C   0  0  0  0  0  0  0  0  0  0  0  0
    6.2181    1.1655   -0.3781 C   0  0  0  0  0  0  0  0  0  0  0  0
    5.7723    2.2078    0.4348 C   0  0  0  0  0  0  0  0  0  0  0  0
   -4.8160    1.3769   -0.3323 C   0  0  0  0  0  0  0  0  0  0  0  0
   -5.0339   -0.7764    0.7170 C   0  0  0  0  0  0  0  0  0  0  0  0
   -6.1618    1.5797   -0.0722 C   0  0  0  0  0  0  0  0  0  0  0  0
   -6.3700   -0.4773    0.9301 C   0  0  0  0  0  0  0  0  0  0  0  0
    3.6617   -1.8567   -0.8561 H   0  0  0  0  0  0  0  0  0  0  0  0
    1.6592   -1.0990    1.1457 H   0  0  0  0  0  0  0  0  0  0  0  0
    4.9430   -2.7083    1.0996 H   0  0  0  0  0  0  0  0  0  0  0  0
    3.3012   -3.3785    1.0585 H   0  0  0  0  0  0  0  0  0  0  0  0
    3.7018   -2.0875    2.1981 H   0  0  0  0  0  0  0  0  0  0  0  0
    2.9241    0.8185    1.6340 H   0  0  0  0  0  0  0  0  0  0  0  0
    5.8330   -0.8153   -1.1110 H   0  0  0  0  0  0  0  0  0  0  0  0
   -0.3939    0.6682   -2.3918 H   0  0  0  0  0  0  0  0  0  0  0  0
   -0.2596   -1.8207    1.1490 H   0  0  0  0  0  0  0  0  0  0  0  0
   -2.7448    1.0935   -2.0037 H   0  0  0  0  0  0  0  0  0  0  0  0
   -2.5705   -1.3477    1.5860 H   0  0  0  0  0  0  0  0  0  0  0  0
    4.2375    2.8846    1.7859 H   0  0  0  0  0  0  0  0  0  0  0  0
    7.1450    1.2694   -0.9347 H   0  0  0  0  0  0  0  0  0  0  0  0
    6.3522    3.1228    0.5113 H   0  0  0  0  0  0  0  0  0  0  0  0
   -4.2558    2.1714   -0.8130 H   0  0  0  0  0  0  0  0  0  0  0  0
   -4.6635   -1.7454    1.0332 H   0  0  0  0  0  0  0  0  0  0  0  0
   -6.6506    2.5042   -0.3616 H   0  0  0  0  0  0  0  0  0  0  0  0
   -7.0270   -1.1874    1.4215 H   0  0  0  0  0  0  0  0  0  0  0  0
  1  8  2  0  0  0  0
  2  4  1  0  0  0  0
  2  8  1  0  0  0  0
  2 25  1  0  0  0  0
  3 22  2  0  0  0  0
  3 23  1  0  0  0  0
  4  5  1  0  0  0  0
  4  6  1  0  0  0  0
  4 24  1  0  0  0  0
  5  9  2  0  0  0  0
  5 10  1  0  0  0  0
  6 26  1  0  0  0  0
  6 27  1  0  0  0  0
  6 28  1  0  0  0  0
  7  8  1  0  0  0  0
  7 12  2  0  0  0  0
  7 13  1  0  0  0  0
  9 17  1  0  0  0  0
  9 29  1  0  0  0  0
 10 18  2  0  0  0  0
 10 30  1  0  0  0  0
 11 14  2  0  0  0  0
 11 15  1  0  0  0  0
 11 16  1  0  0  0  0
 12 14  1  0  0  0  0
 12 31  1  0  0  0  0
 13 15  2  0  0  0  0
 13 32  1  0  0  0  0
 14 33  1  0  0  0  0
 15 34  1  0  0  0  0
 16 20  2  0  0  0  0
 16 21  1  0  0  0  0
 17 19  2  0  0  0  0
 17 35  1  0  0  0  0
 18 19  1  0  0  0  0
 18 36  1  0  0  0  0
 19 37  1  0  0  0  0
 20 22  1  0  0  0  0
 20 38  1  0  0  0  0
 21 23  2  0  0  0  0
 21 39  1  0  0  0  0
 22 40  1  0  0  0  0
 23 41  1  0  0  0  0
M  END
> <PUBCHEM_COMPOUND_CID>
49830488

> <PUBCHEM_CONFORMER_RMSD>
0.8

> <PUBCHEM_CONFORMER_DIVERSEORDER>
1
3
8
9
2
6
5
7
4

> <PUBCHEM_MMFF94_PARTIAL_CHARGES>
34
1 -0.57
10 -0.15
12 -0.15
13 -0.15
14 -0.15
15 -0.15
17 -0.15
18 -0.15
19 -0.15
2 -0.73
20 -0.15
21 -0.15
22 0.16
23 0.16
25 0.37
29 0.15
3 -0.62
30 0.15
31 0.15
32 0.15
33 0.15
34 0.15
35 0.15
36 0.15
37 0.15
38 0.15
39 0.15
4 0.44
40 0.15
41 0.15
5 -0.14
7 0.09
8 0.54
9 -0.15

> <PUBCHEM_EFFECTIVE_ROTOR_COUNT>
5

> <PUBCHEM_PHARMACOPHORE_FEATURES>
6
1 1 acceptor
1 2 donor
1 3 acceptor
6 3 16 20 21 22 23 rings
6 5 9 10 17 18 19 rings
6 7 11 12 13 14 15 rings

> <PUBCHEM_HEAVY_ATOM_COUNT>
23

> <PUBCHEM_ATOM_DEF_STEREO_COUNT>
0

> <PUBCHEM_ATOM_UDEF_STEREO_COUNT>
1

> <PUBCHEM_BOND_DEF_STEREO_COUNT>
0

> <PUBCHEM_BOND_UDEF_STEREO_COUNT>
0

> <PUBCHEM_ISOTOPIC_ATOM_COUNT>
0

> <PUBCHEM_COMPONENT_COUNT>
1

> <PUBCHEM_CACTVS_TAUTO_COUNT>
2

> <PUBCHEM_CONFORMER_ID>
02F85A5800000001

> <PUBCHEM_MMFF94_ENERGY>
72.473

> <PUBCHEM_FEATURE_SELFOVERLAP>
30.446

> <PUBCHEM_SHAPE_FINGERPRINT>
10 15 18114181960030623065
10165383 225 18114186354921506910
10447042 23 12396295967990415962
106641 1 17386010610522321417
10670039 82 16128388046962849464
11796584 16 9151173147099295525
11991303 11 16630238199490028149
12403259 415 17968370139576826918
12596602 18 18333732390784036211
12616971 3 18130209489853311142
12670543 26 12031791357533203103
12730499 353 18335140891171021466
12788726 201 17703793574343046216
13533116 47 18261109613141271618
13668630 136 8070034371798419752
13685833 64 10881400932777616605
13955234 65 18335975369046956682
14251732 16 18410857694096965163
14251740 57 13768473225344350200
14251751 18 10809349944383884169
14251764 18 16878233038703133711
14251764 75 17985822877230413424
14341114 176 18408042896784369012
14528608 73 17561075934312957772
14840074 17 17561082527230695057
14863182 85 14129334054039889978
14933364 13 18411984658765196641
15119646 104 12179837278077226485
15183329 4 12031796854817022558
15475509 35 12901550160661294428
15510800 12 8141814936420366048
16760501 71 18335984271680490181
17492 89 12686184356332937840
17857418 61 13406795536396179889
18335252 114 17418372476349803748
20567600 234 18187366570703852741
21033648 29 18269828874004808656
21130935 74 18113903711366045811
21315764 119 14764359244697864668
21637258 2 12324241685166551381
21641784 216 16056609724636046849
22061861 79 9655576314038732017
22079108 93 18335699463861599978
22122407 14 18130516296188483576
2215653 11 11671784883784606456
22224240 67 18260830410724317803
23559900 14 18041573437895848382
23569914 2 17615071803582250765
2838139 119 17988916773547775500
2916195 48 18409165507036361313
29717793 49 10375869679887611122
3004659 81 10447928369500661806
312425 54 17894632513789656921
34797466 226 17989213624955331303
397830 11 18340778147305407867
4058900 60 16845308090011138807
4073 2 18041003980855931842
4340502 62 17967811652727597706
5104073 3 17677883548506414208
531348 171 11025792116369616689
5718773 13 9222694184628650640
59682541 52 12895080586945897332
6438161 24 11671789226350309052
9841814 1 14923953344805929222

> <PUBCHEM_SHAPE_MULTIPOLES>
457.5
18.19
1.96
1.29
8.93
0.11
0.34
8.18
-4.77
-2.46
-0.6
-0.37
-0.07
0.81

> <PUBCHEM_SHAPE_SELFOVERLAP>
995.958

> <PUBCHEM_SHAPE_VOLUME>
247.7

> <PUBCHEM_COORDINATE_TYPE>
2
5
10

$$$$
