44588915
  -OEChem-10062122023D

 65 68  0     0  0  0  0  0  0999 V2000
   -4.4907    1.4116    0.8294 O   0  0  0  0  0  0  0  0  0  0  0  0
    2.4769    2.3676   -0.4626 O   0  0  0  0  0  0  0  0  0  0  0  0
   -4.5907   -0.8347    0.1343 N   0  0  0  0  0  0  0  0  0  0  0  0
    0.8879   -1.5668    0.5146 N   0  0  0  0  0  0  0  0  0  0  0  0
    0.2053    0.4735   -0.0436 N   0  0  0  0  0  0  0  0  0  0  0  0
    2.5687    0.0906    0.1377 N   0  0  0  0  0  0  0  0  0  0  0  0
    9.9562    1.8493    0.0689 N   0  0  0  0  0  0  0  0  0  0  0  0
   -6.5779    0.6323    0.1026 C   0  0  0  0  0  0  0  0  0  0  0  0
   -6.7414    1.0350   -1.3640 C   0  0  0  0  0  0  0  0  0  0  0  0
   -7.1701    1.6837    1.0423 C   0  0  0  0  0  0  0  0  0  0  0  0
   -8.1986    1.3381   -1.7033 C   0  0  0  0  0  0  0  0  0  0  0  0
   -8.6275    1.9826    0.7001 C   0  0  0  0  0  0  0  0  0  0  0  0
   -8.7900    2.3848   -0.7631 C   0  0  0  0  0  0  0  0  0  0  0  0
   -5.1230    0.4418    0.4032 C   0  0  0  0  0  0  0  0  0  0  0  0
   -3.1713   -1.1009    0.2543 C   0  0  0  0  0  0  0  0  0  0  0  0
   -5.4258   -1.9339   -0.3740 C   0  0  0  0  0  0  0  0  0  0  0  0
   -0.4815   -1.6339    0.4857 C   0  0  0  0  0  0  0  0  0  0  0  0
   -2.2555   -0.0688    0.0148 C   0  0  0  0  0  0  0  0  0  0  0  0
   -0.8837   -0.3483    0.1349 C   0  0  0  0  0  0  0  0  0  0  0  0
   -2.7369   -2.3813    0.6050 C   0  0  0  0  0  0  0  0  0  0  0  0
    1.7809   -2.6606    0.8272 C   0  0  0  0  0  0  0  0  0  0  0  0
   -1.3754   -2.6772    0.7290 C   0  0  0  0  0  0  0  0  0  0  0  0
    1.2499   -0.2885    0.1918 C   0  0  0  0  0  0  0  0  0  0  0  0
    2.4232   -3.2446   -0.4330 C   0  0  0  0  0  0  0  0  0  0  0  0
    3.3310   -4.4269   -0.0947 C   0  0  0  0  0  0  0  0  0  0  0  0
    3.9411   -5.0373   -1.3465 C   0  0  0  0  0  0  0  0  0  0  0  0
    3.1125    1.3586   -0.1761 C   0  0  0  0  0  0  0  0  0  0  0  0
    4.5942    1.4652   -0.1240 C   0  0  0  0  0  0  0  0  0  0  0  0
    5.1961    2.6942    0.1462 C   0  0  0  0  0  0  0  0  0  0  0  0
    5.3825    0.3357   -0.3440 C   0  0  0  0  0  0  0  0  0  0  0  0
    6.5865    2.7936    0.1965 C   0  0  0  0  0  0  0  0  0  0  0  0
    6.7729    0.4352   -0.2937 C   0  0  0  0  0  0  0  0  0  0  0  0
    7.3750    1.6640   -0.0233 C   0  0  0  0  0  0  0  0  0  0  0  0
    8.7993    1.7663    0.0276 C   0  0  0  0  0  0  0  0  0  0  0  0
   -7.1375   -0.2870    0.3047 H   0  0  0  0  0  0  0  0  0  0  0  0
   -6.1369    1.9293   -1.5690 H   0  0  0  0  0  0  0  0  0  0  0  0
   -6.3643    0.2646   -2.0443 H   0  0  0  0  0  0  0  0  0  0  0  0
   -6.6056    2.6235    0.9838 H   0  0  0  0  0  0  0  0  0  0  0  0
   -7.0996    1.3434    2.0828 H   0  0  0  0  0  0  0  0  0  0  0  0
   -8.2703    1.6916   -2.7381 H   0  0  0  0  0  0  0  0  0  0  0  0
   -8.7870    0.4146   -1.6392 H   0  0  0  0  0  0  0  0  0  0  0  0
   -9.2401    1.0960    0.9054 H   0  0  0  0  0  0  0  0  0  0  0  0
   -9.0012    2.7848    1.3465 H   0  0  0  0  0  0  0  0  0  0  0  0
   -9.8525    2.5265   -0.9908 H   0  0  0  0  0  0  0  0  0  0  0  0
   -8.2952    3.3489   -0.9333 H   0  0  0  0  0  0  0  0  0  0  0  0
   -6.2409   -1.5947   -1.0112 H   0  0  0  0  0  0  0  0  0  0  0  0
   -4.8337   -2.6230   -0.9852 H   0  0  0  0  0  0  0  0  0  0  0  0
   -5.8482   -2.4671    0.4834 H   0  0  0  0  0  0  0  0  0  0  0  0
   -2.5471    0.9213   -0.3133 H   0  0  0  0  0  0  0  0  0  0  0  0
   -3.4439   -3.1806    0.8148 H   0  0  0  0  0  0  0  0  0  0  0  0
    2.5382   -2.2922    1.5284 H   0  0  0  0  0  0  0  0  0  0  0  0
    1.2165   -3.4317    1.3616 H   0  0  0  0  0  0  0  0  0  0  0  0
   -1.0463   -3.6727    1.0035 H   0  0  0  0  0  0  0  0  0  0  0  0
    1.6367   -3.5734   -1.1245 H   0  0  0  0  0  0  0  0  0  0  0  0
    3.0024   -2.4800   -0.9633 H   0  0  0  0  0  0  0  0  0  0  0  0
    4.1341   -4.0982    0.5751 H   0  0  0  0  0  0  0  0  0  0  0  0
    2.7588   -5.1963    0.4365 H   0  0  0  0  0  0  0  0  0  0  0  0
    3.2249   -0.6366    0.4001 H   0  0  0  0  0  0  0  0  0  0  0  0
    4.5873   -5.8799   -1.0811 H   0  0  0  0  0  0  0  0  0  0  0  0
    4.5463   -4.3018   -1.8862 H   0  0  0  0  0  0  0  0  0  0  0  0
    3.1631   -5.4054   -2.0229 H   0  0  0  0  0  0  0  0  0  0  0  0
    4.6001    3.5851    0.3258 H   0  0  0  0  0  0  0  0  0  0  0  0
    4.9590   -0.6325   -0.5928 H   0  0  0  0  0  0  0  0  0  0  0  0
    7.0412    3.7582    0.4093 H   0  0  0  0  0  0  0  0  0  0  0  0
    7.3746   -0.4523   -0.4750 H   0  0  0  0  0  0  0  0  0  0  0  0
  1 14  2  0  0  0  0
  2 27  2  0  0  0  0
  3 14  1  0  0  0  0
  3 15  1  0  0  0  0
  3 16  1  0  0  0  0
  4 17  1  0  0  0  0
  4 21  1  0  0  0  0
  4 23  1  0  0  0  0
  5 19  1  0  0  0  0
  5 23  2  0  0  0  0
  6 23  1  0  0  0  0
  6 27  1  0  0  0  0
  6 58  1  0  0  0  0
  7 34  3  0  0  0  0
  8  9  1  0  0  0  0
  8 10  1  0  0  0  0
  8 14  1  0  0  0  0
  8 35  1  0  0  0  0
  9 11  1  0  0  0  0
  9 36  1  0  0  0  0
  9 37  1  0  0  0  0
 10 12  1  0  0  0  0
 10 38  1  0  0  0  0
 10 39  1  0  0  0  0
 11 13  1  0  0  0  0
 11 40  1  0  0  0  0
 11 41  1  0  0  0  0
 12 13  1  0  0  0  0
 12 42  1  0  0  0  0
 12 43  1  0  0  0  0
 13 44  1  0  0  0  0
 13 45  1  0  0  0  0
 15 18  2  0  0  0  0
 15 20  1  0  0  0  0
 16 46  1  0  0  0  0
 16 47  1  0  0  0  0
 16 48  1  0  0  0  0
 17 19  2  0  0  0  0
 17 22  1  0  0  0  0
 18 19  1  0  0  0  0
 18 49  1  0  0  0  0
 20 22  2  0  0  0  0
 20 50  1  0  0  0  0
 21 24  1  0  0  0  0
 21 51  1  0  0  0  0
 21 52  1  0  0  0  0
 22 53  1  0  0  0  0
 24 25  1  0  0  0  0
 24 54  1  0  0  0  0
 24 55  1  0  0  0  0
 25 26  1  0  0  0  0
 25 56  1  0  0  0  0
 25 57  1  0  0  0  0
 26 59  1  0  0  0  0
 26 60  1  0  0  0  0
 26 61  1  0  0  0  0
 27 28  1  0  0  0  0
 28 29  2  0  0  0  0
 28 30  1  0  0  0  0
 29 31  1  0  0  0  0
 29 62  1  0  0  0  0
 30 32  2  0  0  0  0
 30 63  1  0  0  0  0
 31 33  2  0  0  0  0
 31 64  1  0  0  0  0
 32 33  1  0  0  0  0
 32 65  1  0  0  0  0
 33 34  1  0  0  0  0
M  END
> <PUBCHEM_COMPOUND_CID>
44588915

> <PUBCHEM_CONFORMER_RMSD>
1

> <PUBCHEM_CONFORMER_DIVERSEORDER>
1
71
98
103
64
88
69
105
58
93
59
77
46
102
38
74
7
53
104
85
97
81
47
42
109
23
21
63
111
91
112
94
83
62
33
27
36
84
11
26
31
110
54
95
30
2
35
92
96
113
24
65
55
115
73
16
99
114
28
9
67
48
8
34
90
66
14
75
57
15
78
51
79
39
40
52
45
22
32
10
82
61
18
37
6
87
56
80
5
70
49
86
50
72
107
76
20
19
108
41
101
13
17
43
25
44
89
100
12
29
60
4
68
106
3

> <PUBCHEM_MMFF94_PARTIAL_CHARGES>
34
1 -0.57
14 0.57
15 0.12
16 0.3
17 -0.15
18 -0.15
19 0.23
2 -0.57
20 -0.15
21 0.26
22 -0.15
23 0.25
27 0.54
28 0.09
29 -0.15
3 -0.48
30 -0.15
31 -0.15
32 -0.15
33 0.07
34 0.48
4 0.05
49 0.15
5 -0.57
50 0.15
53 0.15
58 0.37
6 -0.49
62 0.15
63 0.15
64 0.15
65 0.15
7 -0.56
8 0.06

> <PUBCHEM_EFFECTIVE_ROTOR_COUNT>
10.2

> <PUBCHEM_PHARMACOPHORE_FEATURES>
9
1 1 acceptor
1 2 acceptor
1 26 hydrophobe
1 6 donor
1 7 acceptor
5 4 5 17 19 23 rings
6 15 17 18 19 20 22 rings
6 28 29 30 31 32 33 rings
6 8 9 10 11 12 13 rings

> <PUBCHEM_HEAVY_ATOM_COUNT>
34

> <PUBCHEM_ATOM_DEF_STEREO_COUNT>
0

> <PUBCHEM_ATOM_UDEF_STEREO_COUNT>
0

> <PUBCHEM_BOND_DEF_STEREO_COUNT>
0

> <PUBCHEM_BOND_UDEF_STEREO_COUNT>
0

> <PUBCHEM_ISOTOPIC_ATOM_COUNT>
0

> <PUBCHEM_COMPONENT_COUNT>
1

> <PUBCHEM_CACTVS_TAUTO_COUNT>
3

> <PUBCHEM_CONFORMER_ID>
02A85F7300000001

> <PUBCHEM_MMFF94_ENERGY>
84.8422

> <PUBCHEM_FEATURE_SELFOVERLAP>
45.779

> <PUBCHEM_SHAPE_FINGERPRINT>
10 15 17676204659482489601
10050765 1 18195248810618219681
10076449 9 8142089771123870724
10411042 1 17834397813978747666
10816530 90 18335138640402631290
10835480 77 18410293605681889103
11135926 11 18410569604448411373
11297010 23 18343018887345970542
11297750 10 17753325366800611222
12013929 2 18059580231379290808
12522641 33 18342177765841787758
12539765 74 18341623663357453340
12838862 33 18337096934640739768
13248334 5 18192711133534617539
14068700 675 8358263644006451414
14394314 77 18411986824379247713
14937079 2 18266181630479467346
15276724 80 18339640019700604717
15289351 153 18341892966270330576
15347591 1 18410292493882173099
15350500 55 17531236224724673373
15439362 3 18410576158521727035
15444296 9 17894907421650888332
1577012 14 18261103093401547507
16087824 20 18334294258190518540
19302320 297 17967255325012970828
19315958 150 18409452449706821885
20105231 36 12035717705636834360
20554085 129 18131339844068332770
20609170 92 18042396942546950501
21033648 144 18261106354136397423
21033648 29 18127681837692194120
21781055 127 16414646935075055419
22311459 1 18410576188565535552
24771293 8 18186518826101481615
255183 451 17842000979697192974
3411729 13 18334857212696928298
4017518 198 18130237073157004334
4073 2 18334018302610488027
4169191 19 18410855452144992713
4516262 110 18411696573702195669
5385378 56 18334296448902589362
54039377 194 10015863189513319393
6371380 46 18270118054374543792
99344 41 18412263974006580894

> <PUBCHEM_SHAPE_MULTIPOLES>
663.06
28.56
4.79
0.98
6.96
6.09
-0.22
-31.75
-3.98
-7.04
-0.76
1.49
0.12
1.41

> <PUBCHEM_SHAPE_SELFOVERLAP>
1417.258

> <PUBCHEM_SHAPE_VOLUME>
363.6

> <PUBCHEM_COORDINATE_TYPE>
2
5
10

$$$$
