49830681
  -OEChem-10052115183D

 35 37  0     0  0  0  0  0  0999 V2000
   -5.4777    3.3425    0.0028 Cl  0  0  0  0  0  0  0  0  0  0  0  0
    6.7044   -0.7303    0.0020 F   0  0  0  0  0  0  0  0  0  0  0  0
    5.1470   -1.7926    1.0853 F   0  0  0  0  0  0  0  0  0  0  0  0
    5.1490   -1.7933   -1.0835 F   0  0  0  0  0  0  0  0  0  0  0  0
    0.7286   -1.2269   -0.0006 O   0  0  0  0  0  0  0  0  0  0  0  0
   -1.0993    0.2372   -0.0004 N   0  0  0  0  0  0  0  0  0  0  0  0
   -4.3194   -2.4306    0.0000 N   0  0  0  0  0  0  0  0  0  0  0  0
    1.0424    1.0905   -0.0008 N   0  0  0  0  0  0  0  0  0  0  0  0
    3.1968    0.0841   -0.0008 N   0  0  0  0  0  0  0  0  0  0  0  0
   -3.5174   -0.1581   -0.0002 C   0  0  0  0  0  0  0  0  0  0  0  0
   -2.1979   -0.6303   -0.0002 C   0  0  0  0  0  0  0  0  0  0  0  0
   -4.5619   -1.1062    0.0000 C   0  0  0  0  0  0  0  0  0  0  0  0
   -3.8069    1.2169   -0.0004 C   0  0  0  0  0  0  0  0  0  0  0  0
   -1.9448   -1.9944   -0.0001 C   0  0  0  0  0  0  0  0  0  0  0  0
   -5.8725   -0.6366    0.0001 C   0  0  0  0  0  0  0  0  0  0  0  0
   -5.1270    1.6587   -0.0004 C   0  0  0  0  0  0  0  0  0  0  0  0
   -6.1608    0.7305   -0.0001 C   0  0  0  0  0  0  0  0  0  0  0  0
   -3.0318   -2.8450   -0.0001 C   0  0  0  0  0  0  0  0  0  0  0  0
    0.2766   -0.0863   -0.0006 C   0  0  0  0  0  0  0  0  0  0  0  0
    2.4521    1.2124   -0.0009 C   0  0  0  0  0  0  0  0  0  0  0  0
    4.5385    0.2502   -0.0005 C   0  0  0  0  0  0  0  0  0  0  0  0
    2.9828    2.4922   -0.0005 C   0  0  0  0  0  0  0  0  0  0  0  0
    5.1669    1.4851   -0.0004 C   0  0  0  0  0  0  0  0  0  0  0  0
    4.3671    2.6225   -0.0004 C   0  0  0  0  0  0  0  0  0  0  0  0
    5.3653   -0.9921    0.0008 C   0  0  0  0  0  0  0  0  0  0  0  0
   -3.0291    1.9741   -0.0001 H   0  0  0  0  0  0  0  0  0  0  0  0
   -1.2927    1.2312   -0.0005 H   0  0  0  0  0  0  0  0  0  0  0  0
   -0.9784   -2.4698   -0.0001 H   0  0  0  0  0  0  0  0  0  0  0  0
   -6.7002   -1.3435    0.0004 H   0  0  0  0  0  0  0  0  0  0  0  0
   -7.1992    1.0518    0.0005 H   0  0  0  0  0  0  0  0  0  0  0  0
   -2.8970   -3.9218   -0.0001 H   0  0  0  0  0  0  0  0  0  0  0  0
    0.5280    1.9677   -0.0007 H   0  0  0  0  0  0  0  0  0  0  0  0
    2.3541    3.3766   -0.0004 H   0  0  0  0  0  0  0  0  0  0  0  0
    6.2466    1.5860   -0.0001 H   0  0  0  0  0  0  0  0  0  0  0  0
    4.8217    3.6086   -0.0001 H   0  0  0  0  0  0  0  0  0  0  0  0
  1 16  1  0  0  0  0
  2 25  1  0  0  0  0
  3 25  1  0  0  0  0
  4 25  1  0  0  0  0
  5 19  2  0  0  0  0
  6 11  1  0  0  0  0
  6 19  1  0  0  0  0
  6 27  1  0  0  0  0
  7 12  2  0  0  0  0
  7 18  1  0  0  0  0
  8 19  1  0  0  0  0
  8 20  1  0  0  0  0
  8 32  1  0  0  0  0
  9 20  1  0  0  0  0
  9 21  2  0  0  0  0
 10 11  2  0  0  0  0
 10 12  1  0  0  0  0
 10 13  1  0  0  0  0
 11 14  1  0  0  0  0
 12 15  1  0  0  0  0
 13 16  2  0  0  0  0
 13 26  1  0  0  0  0
 14 18  2  0  0  0  0
 14 28  1  0  0  0  0
 15 17  2  0  0  0  0
 15 29  1  0  0  0  0
 16 17  1  0  0  0  0
 17 30  1  0  0  0  0
 18 31  1  0  0  0  0
 20 22  2  0  0  0  0
 21 23  1  0  0  0  0
 21 25  1  0  0  0  0
 22 24  1  0  0  0  0
 22 33  1  0  0  0  0
 23 24  2  0  0  0  0
 23 34  1  0  0  0  0
 24 35  1  0  0  0  0
M  END
> <PUBCHEM_COMPOUND_CID>
49830681

> <PUBCHEM_CONFORMER_RMSD>
0.8

> <PUBCHEM_CONFORMER_DIVERSEORDER>
1
24
15
5
20
26
12
10
17
9
8
4
7
6
16
25
11
19
3
23
2
18
14
22
13
21

> <PUBCHEM_MMFF94_PARTIAL_CHARGES>
34
1 -0.18
11 0.12
12 0.31
13 -0.15
14 -0.15
15 -0.15
16 0.18
17 -0.15
18 0.16
19 0.69
2 -0.34
20 0.43
21 0.17
22 -0.15
23 -0.15
24 -0.15
25 1.16
26 0.15
27 0.37
28 0.15
29 0.15
3 -0.34
30 0.15
31 0.15
32 0.37
33 0.15
34 0.15
35 0.15
4 -0.34
5 -0.57
6 -0.55
7 -0.62
8 -0.55
9 -0.62

> <PUBCHEM_EFFECTIVE_ROTOR_COUNT>
5

> <PUBCHEM_PHARMACOPHORE_FEATURES>
8
1 5 acceptor
1 6 donor
1 7 acceptor
1 8 donor
1 9 acceptor
6 10 12 13 15 16 17 rings
6 7 10 11 12 14 18 rings
6 9 20 21 22 23 24 rings

> <PUBCHEM_HEAVY_ATOM_COUNT>
25

> <PUBCHEM_ATOM_DEF_STEREO_COUNT>
0

> <PUBCHEM_ATOM_UDEF_STEREO_COUNT>
0

> <PUBCHEM_BOND_DEF_STEREO_COUNT>
0

> <PUBCHEM_BOND_UDEF_STEREO_COUNT>
0

> <PUBCHEM_ISOTOPIC_ATOM_COUNT>
0

> <PUBCHEM_COMPONENT_COUNT>
1

> <PUBCHEM_CACTVS_TAUTO_COUNT>
11

> <PUBCHEM_CONFORMER_ID>
02F85B1900000001

> <PUBCHEM_MMFF94_ENERGY>
70.146

> <PUBCHEM_FEATURE_SELFOVERLAP>
40.681

> <PUBCHEM_SHAPE_FINGERPRINT>
10595046 47 18265332996032375212
10835480 77 18343014540771027280
11405975 8 18409447015945477568
11796584 16 18342740715383953298
12107183 9 18192143806971370720
12166972 35 18408608088748389097
13073987 5 18337109072196504704
13167372 99 18411700967422214208
13167823 11 18337669827532673754
13785724 45 18052540968052547766
14341114 176 18336550507568398125
14420673 8 18336267851338920794
14904525 67 15430034361556315941
14933364 13 18409451401054650900
15042514 8 18191872443371677931
15183329 4 18410856546754887705
15196674 1 18410574032401372640
15250474 111 18268134526133504414
15419008 42 17986392179007176397
17844677 252 18410018770439664552
1813 80 16877656898567621428
19611394 137 17969799634770920337
20281389 69 18408604760322457273
21065198 57 18338797947710631616
21236236 1 18340768234731469295
21267235 1 18336271219051840107
21279426 13 18340770351306645917
21315763 129 18412545431265066533
21315764 268 18338230570121234213
23522609 53 17823441343378445836
23536379 177 18410292518791230968
23559900 14 18343297072029429362
23569943 247 17024010580617085034
2838139 119 18412258416250334869
3004659 81 18408605868755822290
335352 9 18410573972293014397
4073 2 18042126625641241858
4197921 191 18335143132748512181
4214541 1 18410574011179880165
5104073 3 18411138077592560776
5283173 99 18412263939161591505
531348 171 18202279208884563751
559249 180 18411134719118395883
59755656 215 18339925909270309518
59755656 520 18334852806408193943
6299153 45 18266179439808146321
6327066 14 18190172392326546069
633830 44 17749387130560041696
9965369 4 18410291393889458121
9995097 60 18413952780194323126
9996256 80 18411981399333548151

> <PUBCHEM_SHAPE_MULTIPOLES>
468.74
17.83
3.2
0.65
8.11
0.82
0
2.3
0.01
-1.9
0
0.27
-0.09
0

> <PUBCHEM_SHAPE_SELFOVERLAP>
1021.633

> <PUBCHEM_SHAPE_VOLUME>
256.8

> <PUBCHEM_COORDINATE_TYPE>
2
5
10

$$$$
