5329895
  -OEChem-10052115143D

 49 52  0     0  0  0  0  0  0999 V2000
    8.0231   -1.8212    0.2250 O   0  0  0  0  0  0  0  0  0  0  0  0
   -2.3833   -0.3173   -1.0759 O   0  0  0  0  0  0  0  0  0  0  0  0
    5.8097   -2.2668    0.8879 N   0  0  0  0  0  0  0  0  0  0  0  0
   -1.4662    0.6988    0.8256 N   0  0  0  0  0  0  0  0  0  0  0  0
   -3.7519    0.4000    0.6795 N   0  0  0  0  0  0  0  0  0  0  0  0
    4.8744   -0.3346    0.0968 C   0  0  0  0  0  0  0  0  0  0  0  0
    4.5250   -1.5982    0.8041 C   0  0  0  0  0  0  0  0  0  0  0  0
    4.0576    0.7170   -0.2728 C   0  0  0  0  0  0  0  0  0  0  0  0
    6.2397   -0.3003   -0.1906 C   0  0  0  0  0  0  0  0  0  0  0  0
    2.6399    0.7115    0.0095 C   0  0  0  0  0  0  0  0  0  0  0  0
    6.8435   -1.5369    0.3145 C   0  0  0  0  0  0  0  0  0  0  0  0
    4.6399    1.8022   -0.9363 C   0  0  0  0  0  0  0  0  0  0  0  0
    6.8398    0.7580   -0.8441 C   0  0  0  0  0  0  0  0  0  0  0  0
    6.0186    1.8223   -1.2192 C   0  0  0  0  0  0  0  0  0  0  0  0
    1.7454    0.1722   -0.9159 C   0  0  0  0  0  0  0  0  0  0  0  0
    2.1637    1.2465    1.2073 C   0  0  0  0  0  0  0  0  0  0  0  0
   -0.0977    0.7028    0.5535 C   0  0  0  0  0  0  0  0  0  0  0  0
    0.3772    0.1679   -0.6440 C   0  0  0  0  0  0  0  0  0  0  0  0
    0.7955    1.2421    1.4791 C   0  0  0  0  0  0  0  0  0  0  0  0
   -7.4180   -0.0155    0.5780 C   0  0  0  0  0  0  0  0  0  0  0  0
   -7.5788   -0.6350   -0.6613 C   0  0  0  0  0  0  0  0  0  0  0  0
   -5.0459    0.0506    0.2262 C   0  0  0  0  0  0  0  0  0  0  0  0
   -6.1426    0.3298    1.0249 C   0  0  0  0  0  0  0  0  0  0  0  0
   -6.4642   -0.9094   -1.4537 C   0  0  0  0  0  0  0  0  0  0  0  0
   -5.1887   -0.5641   -1.0067 C   0  0  0  0  0  0  0  0  0  0  0  0
   -2.5250    0.2042    0.0255 C   0  0  0  0  0  0  0  0  0  0  0  0
   -8.5966    0.2880    1.4437 C   0  0  0  0  0  0  0  0  0  0  0  0
   -8.9341   -1.0144   -1.1607 C   0  0  0  0  0  0  0  0  0  0  0  0
    4.1553   -1.4257    1.8180 H   0  0  0  0  0  0  0  0  0  0  0  0
    3.8414   -2.2281    0.2293 H   0  0  0  0  0  0  0  0  0  0  0  0
    5.9411   -3.1754    1.3210 H   0  0  0  0  0  0  0  0  0  0  0  0
    4.0340    2.6517   -1.2458 H   0  0  0  0  0  0  0  0  0  0  0  0
    7.9016    0.7705   -1.0606 H   0  0  0  0  0  0  0  0  0  0  0  0
    6.4464    2.6774   -1.7359 H   0  0  0  0  0  0  0  0  0  0  0  0
    2.1001   -0.2490   -1.8539 H   0  0  0  0  0  0  0  0  0  0  0  0
    2.8464    1.6706    1.9399 H   0  0  0  0  0  0  0  0  0  0  0  0
   -0.2482   -0.2673   -1.4102 H   0  0  0  0  0  0  0  0  0  0  0  0
    0.4394    1.6622    2.4163 H   0  0  0  0  0  0  0  0  0  0  0  0
   -1.7353    1.1059    1.7179 H   0  0  0  0  0  0  0  0  0  0  0  0
   -6.0105    0.8128    1.9899 H   0  0  0  0  0  0  0  0  0  0  0  0
   -6.5730   -1.3918   -2.4216 H   0  0  0  0  0  0  0  0  0  0  0  0
   -4.3802   -0.8105   -1.6782 H   0  0  0  0  0  0  0  0  0  0  0  0
   -3.7150    0.8476    1.5919 H   0  0  0  0  0  0  0  0  0  0  0  0
   -8.2988    0.7731    2.3799 H   0  0  0  0  0  0  0  0  0  0  0  0
   -9.2854    0.9685    0.9327 H   0  0  0  0  0  0  0  0  0  0  0  0
   -9.1255   -0.6324    1.7116 H   0  0  0  0  0  0  0  0  0  0  0  0
   -9.4088   -1.7304   -0.4820 H   0  0  0  0  0  0  0  0  0  0  0  0
   -8.8851   -1.4885   -2.1472 H   0  0  0  0  0  0  0  0  0  0  0  0
   -9.5706   -0.1291   -1.2597 H   0  0  0  0  0  0  0  0  0  0  0  0
  1 11  2  0  0  0  0
  2 26  2  0  0  0  0
  3  7  1  0  0  0  0
  3 11  1  0  0  0  0
  3 31  1  0  0  0  0
  4 17  1  0  0  0  0
  4 26  1  0  0  0  0
  4 39  1  0  0  0  0
  5 22  1  0  0  0  0
  5 26  1  0  0  0  0
  5 43  1  0  0  0  0
  6  7  1  0  0  0  0
  6  8  2  0  0  0  0
  6  9  1  0  0  0  0
  7 29  1  0  0  0  0
  7 30  1  0  0  0  0
  8 10  1  0  0  0  0
  8 12  1  0  0  0  0
  9 11  1  0  0  0  0
  9 13  2  0  0  0  0
 10 15  2  0  0  0  0
 10 16  1  0  0  0  0
 12 14  2  0  0  0  0
 12 32  1  0  0  0  0
 13 14  1  0  0  0  0
 13 33  1  0  0  0  0
 14 34  1  0  0  0  0
 15 18  1  0  0  0  0
 15 35  1  0  0  0  0
 16 19  2  0  0  0  0
 16 36  1  0  0  0  0
 17 18  2  0  0  0  0
 17 19  1  0  0  0  0
 18 37  1  0  0  0  0
 19 38  1  0  0  0  0
 20 21  2  0  0  0  0
 20 23  1  0  0  0  0
 20 27  1  0  0  0  0
 21 24  1  0  0  0  0
 21 28  1  0  0  0  0
 22 23  2  0  0  0  0
 22 25  1  0  0  0  0
 23 40  1  0  0  0  0
 24 25  2  0  0  0  0
 24 41  1  0  0  0  0
 25 42  1  0  0  0  0
 27 44  1  0  0  0  0
 27 45  1  0  0  0  0
 27 46  1  0  0  0  0
 28 47  1  0  0  0  0
 28 48  1  0  0  0  0
 28 49  1  0  0  0  0
M  END
> <PUBCHEM_COMPOUND_CID>
5329895

> <PUBCHEM_CONFORMER_RMSD>
0.8

> <PUBCHEM_CONFORMER_DIVERSEORDER>
1
13
9
5
14
12
15
4
7
16
11
6
10
2
3
8

> <PUBCHEM_MMFF94_PARTIAL_CHARGES>
39
1 -0.57
11 0.54
12 -0.15
13 -0.15
14 -0.15
15 -0.15
16 -0.15
17 0.12
18 -0.15
19 -0.15
2 -0.57
20 -0.14
21 -0.14
22 0.12
23 -0.15
24 -0.15
25 -0.15
26 0.69
27 0.14
28 0.14
3 -0.73
31 0.37
32 0.15
33 0.15
34 0.15
35 0.15
36 0.15
37 0.15
38 0.15
39 0.37
4 -0.55
40 0.15
41 0.15
42 0.15
43 0.37
5 -0.55
6 -0.14
7 0.44
9 0.09

> <PUBCHEM_EFFECTIVE_ROTOR_COUNT>
5.4

> <PUBCHEM_PHARMACOPHORE_FEATURES>
9
1 1 acceptor
1 2 acceptor
1 3 donor
1 4 donor
1 5 donor
5 3 6 7 9 11 rings
6 10 15 16 17 18 19 rings
6 20 21 22 23 24 25 rings
6 6 8 9 12 13 14 rings

> <PUBCHEM_HEAVY_ATOM_COUNT>
28

> <PUBCHEM_ATOM_DEF_STEREO_COUNT>
0

> <PUBCHEM_ATOM_UDEF_STEREO_COUNT>
0

> <PUBCHEM_BOND_DEF_STEREO_COUNT>
0

> <PUBCHEM_BOND_UDEF_STEREO_COUNT>
0

> <PUBCHEM_ISOTOPIC_ATOM_COUNT>
0

> <PUBCHEM_COMPONENT_COUNT>
1

> <PUBCHEM_CACTVS_TAUTO_COUNT>
6

> <PUBCHEM_CONFORMER_ID>
005153E700000001

> <PUBCHEM_MMFF94_ENERGY>
95.251

> <PUBCHEM_FEATURE_SELFOVERLAP>
45.809

> <PUBCHEM_SHAPE_FINGERPRINT>
10 15 15554439717357134554
10066227 49 18186800240590545002
10299344 5 18342459248843761229
10319688 140 17096354051920727282
106641 1 17060330830560025210
11135609 127 18042971068068540428
11135926 11 17417807315104852383
11315181 36 15051740807280038675
11524674 6 15195286452369426189
11719270 70 16917072156776588062
12082328 90 18113620084831855889
12089408 11 18130791170375075997
12166972 35 18412263964974119377
12236239 1 18342741793626297616
13533116 47 18408603648220839696
14068700 675 17775007899203843745
14251764 18 18273497883950112863
14294032 229 17416148112935315361
150020 25 16877662348918237635
15119646 104 18343586209191268846
15183329 4 18260825999391783395
15198563 99 17240757329418024157
15328684 2 17916310441845692739
15352257 5 18334295392293596971
15419008 47 16588018035389424629
15419008 91 16371279047757880557
15461852 350 13623536770975868017
15510794 2 17095244739155838795
15690457 1 18201715150149143070
15849732 13 16805324413880486175
17093844 174 14261352454232003531
19301679 30 17702388347655361598
20105231 36 16515689936000405683
20157964 124 18040719190897333876
2026 5 18116145563877698538
20771845 140 17418085482815183854
21267235 1 16773523252155650233
21315759 40 18342460357056333805
21792934 111 14261353557632657931
221357 26 17530962480198497972
22224240 67 12967128311396905589
22956985 138 17342675361970723030
23081809 10 18342182163070867945
23516275 137 18267326268833179667
23522609 53 18056508173013682937
23559900 14 18188492500649339809
249057 3 17822014237593871286
3004659 81 17561086942145715776
3383291 50 16271924948242633175
34797466 226 17240767306668957196
3633792 109 17967249771582670937
4073 2 18126277786231859504
4098825 35 18187080603444798525
439807 62 18410854356321566722
44389302 135 17845931815603154526
5219985 9 18202284706052721753
5283156 175 18412546496127013377
57527295 17 16517932785545240466
59682541 35 15697991946969022218
59682541 52 17603866685446978650
59755656 215 15936406727956653866
59755656 520 18412258472206489023
68570916 9 11383531430963829361

> <PUBCHEM_SHAPE_MULTIPOLES>
549.55
29.02
1.59
1.35
32.26
0.37
-0.01
9.31
-2.18
-3.51
0.15
0.93
-0.13
-3.03

> <PUBCHEM_SHAPE_SELFOVERLAP>
1216.684

> <PUBCHEM_SHAPE_VOLUME>
295.3

> <PUBCHEM_COORDINATE_TYPE>
2
5
10

$$$$
