10125830
  -OEChem-10062121563D

 41 44  0     0  0  0  0  0  0999 V2000
   -3.7647    2.0333   -0.2975 O   0  0  0  0  0  0  0  0  0  0  0  0
    5.7784    1.6298    0.7014 O   0  0  0  0  0  0  0  0  0  0  0  0
    7.0869   -0.6788   -0.1244 O   0  0  0  0  0  0  0  0  0  0  0  0
   -1.4189    1.7531   -0.3183 N   0  0  0  0  0  0  0  0  0  0  0  0
   -5.7687   -0.5416   -0.9792 N   0  0  0  0  0  0  0  0  0  0  0  0
   -1.2759   -0.5022    0.1075 C   0  0  0  0  0  0  0  0  0  0  0  0
   -0.5529    0.6687   -0.1384 C   0  0  0  0  0  0  0  0  0  0  0  0
   -2.6820   -0.1143    0.0772 C   0  0  0  0  0  0  0  0  0  0  0  0
    1.4926   -0.5200    0.0236 C   0  0  0  0  0  0  0  0  0  0  0  0
    0.8272    0.6895   -0.1856 C   0  0  0  0  0  0  0  0  0  0  0  0
   -0.6244   -1.7032    0.3155 C   0  0  0  0  0  0  0  0  0  0  0  0
   -2.7558    1.3592   -0.2016 C   0  0  0  0  0  0  0  0  0  0  0  0
    0.7740   -1.7048    0.2717 C   0  0  0  0  0  0  0  0  0  0  0  0
    2.9393   -0.5579   -0.0141 C   0  0  0  0  0  0  0  0  0  0  0  0
   -3.7597   -0.8812    0.2525 C   0  0  0  0  0  0  0  0  0  0  0  0
   -5.1483   -0.4851    0.2201 C   0  0  0  0  0  0  0  0  0  0  0  0
    3.6753    0.5643    0.3649 C   0  0  0  0  0  0  0  0  0  0  0  0
    3.5953   -1.7165   -0.4286 C   0  0  0  0  0  0  0  0  0  0  0  0
    5.0693    0.5277    0.3292 C   0  0  0  0  0  0  0  0  0  0  0  0
    4.9891   -1.7529   -0.4643 C   0  0  0  0  0  0  0  0  0  0  0  0
   -5.9973   -0.0522    1.1750 C   0  0  0  0  0  0  0  0  0  0  0  0
    5.7261   -0.6310   -0.0853 C   0  0  0  0  0  0  0  0  0  0  0  0
   -7.0655   -0.1336   -0.8055 C   0  0  0  0  0  0  0  0  0  0  0  0
   -7.2353    0.1776    0.5254 C   0  0  0  0  0  0  0  0  0  0  0  0
    6.0959    2.5720   -0.3212 C   0  0  0  0  0  0  0  0  0  0  0  0
    1.3355    1.6212   -0.4087 H   0  0  0  0  0  0  0  0  0  0  0  0
   -1.1674   -2.6205    0.5145 H   0  0  0  0  0  0  0  0  0  0  0  0
   -1.1024    2.6968   -0.5079 H   0  0  0  0  0  0  0  0  0  0  0  0
    1.2709   -2.6513    0.4704 H   0  0  0  0  0  0  0  0  0  0  0  0
   -3.6064   -1.9409    0.4508 H   0  0  0  0  0  0  0  0  0  0  0  0
    3.2014    1.4746    0.7234 H   0  0  0  0  0  0  0  0  0  0  0  0
    3.0645   -2.6032   -0.7639 H   0  0  0  0  0  0  0  0  0  0  0  0
    5.4886   -2.6593   -0.7960 H   0  0  0  0  0  0  0  0  0  0  0  0
   -5.3623   -0.8317   -1.8592 H   0  0  0  0  0  0  0  0  0  0  0  0
   -5.7805    0.0918    2.2243 H   0  0  0  0  0  0  0  0  0  0  0  0
   -7.7494   -0.1006   -1.6420 H   0  0  0  0  0  0  0  0  0  0  0  0
   -8.1513    0.5312    0.9776 H   0  0  0  0  0  0  0  0  0  0  0  0
    7.3641   -1.5576   -0.4357 H   0  0  0  0  0  0  0  0  0  0  0  0
    5.1815    2.9853   -0.7587 H   0  0  0  0  0  0  0  0  0  0  0  0
    6.7073    2.1050   -1.0997 H   0  0  0  0  0  0  0  0  0  0  0  0
    6.6674    3.3878    0.1300 H   0  0  0  0  0  0  0  0  0  0  0  0
  1 12  2  0  0  0  0
  2 19  1  0  0  0  0
  2 25  1  0  0  0  0
  3 22  1  0  0  0  0
  3 38  1  0  0  0  0
  4  7  1  0  0  0  0
  4 12  1  0  0  0  0
  4 28  1  0  0  0  0
  5 16  1  0  0  0  0
  5 23  1  0  0  0  0
  5 34  1  0  0  0  0
  6  7  2  0  0  0  0
  6  8  1  0  0  0  0
  6 11  1  0  0  0  0
  7 10  1  0  0  0  0
  8 12  1  0  0  0  0
  8 15  2  0  0  0  0
  9 10  2  0  0  0  0
  9 13  1  0  0  0  0
  9 14  1  0  0  0  0
 10 26  1  0  0  0  0
 11 13  2  0  0  0  0
 11 27  1  0  0  0  0
 13 29  1  0  0  0  0
 14 17  2  0  0  0  0
 14 18  1  0  0  0  0
 15 16  1  0  0  0  0
 15 30  1  0  0  0  0
 16 21  2  0  0  0  0
 17 19  1  0  0  0  0
 17 31  1  0  0  0  0
 18 20  2  0  0  0  0
 18 32  1  0  0  0  0
 19 22  2  0  0  0  0
 20 22  1  0  0  0  0
 20 33  1  0  0  0  0
 21 24  1  0  0  0  0
 21 35  1  0  0  0  0
 23 24  2  0  0  0  0
 23 36  1  0  0  0  0
 24 37  1  0  0  0  0
 25 39  1  0  0  0  0
 25 40  1  0  0  0  0
 25 41  1  0  0  0  0
M  END
> <PUBCHEM_COMPOUND_CID>
10125830

> <PUBCHEM_CONFORMER_RMSD>
0.6

> <PUBCHEM_CONFORMER_DIVERSEORDER>
1
6
11
7
10
4
9
8
5
2
3

> <PUBCHEM_MMFF94_PARTIAL_CHARGES>
36
1 -0.57
10 -0.15
11 -0.15
12 0.62
13 -0.15
15 -0.11
16 -0.2
17 -0.15
18 -0.15
19 0.08
2 -0.36
20 -0.15
21 -0.15
22 0.08
23 -0.3
24 -0.15
25 0.28
26 0.15
27 0.15
28 0.37
29 0.15
3 -0.53
30 0.15
31 0.15
32 0.15
33 0.15
34 0.27
35 0.15
36 0.15
37 0.15
38 0.45
4 -0.55
5 0.03
6 0.03
7 0.12
8 -0.01

> <PUBCHEM_EFFECTIVE_ROTOR_COUNT>
3.2

> <PUBCHEM_PHARMACOPHORE_FEATURES>
10
1 1 acceptor
1 2 acceptor
1 3 donor
1 4 donor
1 5 cation
1 5 donor
5 4 6 7 8 12 rings
5 5 16 21 23 24 rings
6 14 17 18 19 20 22 rings
6 6 7 9 10 11 13 rings

> <PUBCHEM_HEAVY_ATOM_COUNT>
25

> <PUBCHEM_ATOM_DEF_STEREO_COUNT>
0

> <PUBCHEM_ATOM_UDEF_STEREO_COUNT>
0

> <PUBCHEM_BOND_DEF_STEREO_COUNT>
1

> <PUBCHEM_BOND_UDEF_STEREO_COUNT>
0

> <PUBCHEM_ISOTOPIC_ATOM_COUNT>
0

> <PUBCHEM_COMPONENT_COUNT>
1

> <PUBCHEM_CACTVS_TAUTO_COUNT>
6

> <PUBCHEM_CONFORMER_ID>
009A820600000001

> <PUBCHEM_MMFF94_ENERGY>
95.0714

> <PUBCHEM_FEATURE_SELFOVERLAP>
50.836

> <PUBCHEM_SHAPE_FINGERPRINT>
10 15 18040995185316524328
10050765 1 18121216472749152411
10299344 5 17703790323427342175
10906281 52 18339378438637498487
10968037 39 18408040711221119239
11315181 36 17240493498018725161
11524674 6 15626501709847860351
11719270 70 14129052617111652192
12166972 35 18410015425130022664
12236239 1 17917993876115951547
12403259 415 18334851697526020172
125118 31 18113901554559246333
12516196 113 18412825794167111201
12730499 353 18342177752666949450
12916748 109 18334858299048756218
13533116 47 18060421292257688570
13914758 101 14490465349094255631
1420 363 18333454227000484171
14251764 18 18411700963812678898
14849402 71 18059016202202344177
14856354 85 16343703266395358949
14933364 13 18413110549907992329
15196674 1 18410292467483666792
15419008 47 17530958090483693077
15716309 27 18131069320988927917
16087824 20 18190740827275263061
16120349 18 18341328976903285105
17844677 252 18340775849318478168
20157964 124 18412545418802332974
21130935 74 18343305859976336651
21236236 1 18339644435037663393
21267235 1 18336272270738442407
21315764 268 18259979358564657236
21521721 280 18341617035458050139
21792934 111 18338786849947915744
21859007 373 17096067143857593293
221357 26 18343582924079000392
23081809 10 17632296765916826835
23516275 137 17059518265292289559
23522609 53 17774182178587136993
23536379 177 17203611462928905563
23559900 14 18265328581143897505
23569914 152 17042018193574325735
255183 451 17630060256857207486
2747138 104 18115041761555468409
3009799 131 17822006510894874029
335352 9 18408041823680913735
34797466 226 18060708290593763356
350125 39 18409449215101231837
3545911 37 18411420605479953278
397830 11 17387145362488682385
4073 2 18261959655725213394
4325135 7 18272368667795839494
4340502 62 16298100995241209610
4463277 17 18411419501572969041
5104073 3 18262798441309901896
54039377 194 17987788761946878447
59755656 215 18260830362883792763
9996256 80 18273213080115473295

> <PUBCHEM_SHAPE_MULTIPOLES>
486.92
19.69
1.94
0.8
5.49
0.62
-0.02
2.25
0.04
-2.59
0.15
0.61
-0.01
0.44

> <PUBCHEM_SHAPE_SELFOVERLAP>
1096.034

> <PUBCHEM_SHAPE_VOLUME>
259.7

> <PUBCHEM_COORDINATE_TYPE>
2
5
10

$$$$
