49830508
  -OEChem-10062121543D

 54 56  0     0  0  0  0  0  0999 V2000
   -3.8420   -3.5258    0.0889 Cl  0  0  0  0  0  0  0  0  0  0  0  0
   -4.1583    1.4276   -1.0703 S   0  0  0  0  0  0  0  0  0  0  0  0
   -4.6468    2.7574   -1.4045 O   0  0  0  0  0  0  0  0  0  0  0  0
   -3.5020    0.6270   -2.0932 O   0  0  0  0  0  0  0  0  0  0  0  0
    2.3137    2.2021   -1.2263 O   0  0  0  0  0  0  0  0  0  0  0  0
    5.9634   -0.1995    0.7356 O   0  0  0  0  0  0  0  0  0  0  0  0
    4.8968    2.1682   -0.2281 O   0  0  0  0  0  0  0  0  0  0  0  0
   -2.5042   -0.8154    0.1653 N   0  0  0  0  0  0  0  0  0  0  0  0
   -5.4428    0.5207   -0.4039 N   0  0  0  0  0  0  0  0  0  0  0  0
    1.8650   -2.4928   -0.2936 N   0  0  0  0  0  0  0  0  0  0  0  0
   -0.3114   -1.6466   -0.0652 N   0  0  0  0  0  0  0  0  0  0  0  0
    0.0816   -4.0169   -0.2519 N   0  0  0  0  0  0  0  0  0  0  0  0
   -3.0563    1.5625    0.2841 C   0  0  0  0  0  0  0  0  0  0  0  0
   -2.3519    0.4567    0.7599 C   0  0  0  0  0  0  0  0  0  0  0  0
   -2.8896    2.8084    0.8886 C   0  0  0  0  0  0  0  0  0  0  0  0
   -1.4807    0.5966    1.8401 C   0  0  0  0  0  0  0  0  0  0  0  0
    2.6327   -1.3132   -0.2773 C   0  0  0  0  0  0  0  0  0  0  0  0
   -1.6318   -1.9102    0.0228 C   0  0  0  0  0  0  0  0  0  0  0  0
   -2.0183    2.9486    1.9689 C   0  0  0  0  0  0  0  0  0  0  0  0
   -1.3138    1.8427    2.4447 C   0  0  0  0  0  0  0  0  0  0  0  0
    3.9335   -1.3343    0.2257 C   0  0  0  0  0  0  0  0  0  0  0  0
    2.0925   -0.1229   -0.7641 C   0  0  0  0  0  0  0  0  0  0  0  0
    2.8530    1.0463   -0.7479 C   0  0  0  0  0  0  0  0  0  0  0  0
    4.6940   -0.1651    0.2419 C   0  0  0  0  0  0  0  0  0  0  0  0
    4.1537    1.0252   -0.2449 C   0  0  0  0  0  0  0  0  0  0  0  0
    0.4765   -2.7305   -0.1990 C   0  0  0  0  0  0  0  0  0  0  0  0
   -2.1642   -3.1826   -0.0184 C   0  0  0  0  0  0  0  0  0  0  0  0
   -6.1867    1.0408    0.7523 C   0  0  0  0  0  0  0  0  0  0  0  0
   -1.2508   -4.2075   -0.1582 C   0  0  0  0  0  0  0  0  0  0  0  0
    5.6939    2.4383   -1.3791 C   0  0  0  0  0  0  0  0  0  0  0  0
    0.9779    2.1370   -1.7224 C   0  0  0  0  0  0  0  0  0  0  0  0
    6.1235    0.0569    2.1295 C   0  0  0  0  0  0  0  0  0  0  0  0
   -3.4251    3.6881    0.5444 H   0  0  0  0  0  0  0  0  0  0  0  0
   -3.3684   -0.9363   -0.3526 H   0  0  0  0  0  0  0  0  0  0  0  0
   -0.9301   -0.2507    2.2399 H   0  0  0  0  0  0  0  0  0  0  0  0
   -1.8891    3.9184    2.4406 H   0  0  0  0  0  0  0  0  0  0  0  0
   -0.6377    1.9513    3.2876 H   0  0  0  0  0  0  0  0  0  0  0  0
   -5.4575   -0.4982   -0.5324 H   0  0  0  0  0  0  0  0  0  0  0  0
    4.3599   -2.2595    0.6067 H   0  0  0  0  0  0  0  0  0  0  0  0
    1.1039   -0.1490   -1.2013 H   0  0  0  0  0  0  0  0  0  0  0  0
    2.4090   -3.3495   -0.2554 H   0  0  0  0  0  0  0  0  0  0  0  0
   -7.2117    0.6616    0.7130 H   0  0  0  0  0  0  0  0  0  0  0  0
   -5.7227    0.6942    1.6791 H   0  0  0  0  0  0  0  0  0  0  0  0
   -6.2282    2.1327    0.7453 H   0  0  0  0  0  0  0  0  0  0  0  0
   -1.5619   -5.2468   -0.2020 H   0  0  0  0  0  0  0  0  0  0  0  0
    6.2237    3.3806   -1.2151 H   0  0  0  0  0  0  0  0  0  0  0  0
    5.0643    2.5414   -2.2685 H   0  0  0  0  0  0  0  0  0  0  0  0
    6.4319    1.6444   -1.5316 H   0  0  0  0  0  0  0  0  0  0  0  0
    0.2669    1.8560   -0.9381 H   0  0  0  0  0  0  0  0  0  0  0  0
    0.7061    3.1473   -2.0460 H   0  0  0  0  0  0  0  0  0  0  0  0
    0.9054    1.4928   -2.6053 H   0  0  0  0  0  0  0  0  0  0  0  0
    7.1892    0.0016    2.3677 H   0  0  0  0  0  0  0  0  0  0  0  0
    5.5928   -0.6958    2.7211 H   0  0  0  0  0  0  0  0  0  0  0  0
    5.7600    1.0581    2.3816 H   0  0  0  0  0  0  0  0  0  0  0  0
  1 27  1  0  0  0  0
  2  3  2  0  0  0  0
  2  4  2  0  0  0  0
  2  9  1  0  0  0  0
  2 13  1  0  0  0  0
  5 23  1  0  0  0  0
  5 31  1  0  0  0  0
  6 24  1  0  0  0  0
  6 32  1  0  0  0  0
  7 25  1  0  0  0  0
  7 30  1  0  0  0  0
  8 14  1  0  0  0  0
  8 18  1  0  0  0  0
  8 34  1  0  0  0  0
  9 28  1  0  0  0  0
  9 38  1  0  0  0  0
 10 17  1  0  0  0  0
 10 26  1  0  0  0  0
 10 41  1  0  0  0  0
 11 18  2  0  0  0  0
 11 26  1  0  0  0  0
 12 26  2  0  0  0  0
 12 29  1  0  0  0  0
 13 14  1  0  0  0  0
 13 15  2  0  0  0  0
 14 16  2  0  0  0  0
 15 19  1  0  0  0  0
 15 33  1  0  0  0  0
 16 20  1  0  0  0  0
 16 35  1  0  0  0  0
 17 21  2  0  0  0  0
 17 22  1  0  0  0  0
 18 27  1  0  0  0  0
 19 20  2  0  0  0  0
 19 36  1  0  0  0  0
 20 37  1  0  0  0  0
 21 24  1  0  0  0  0
 21 39  1  0  0  0  0
 22 23  2  0  0  0  0
 22 40  1  0  0  0  0
 23 25  1  0  0  0  0
 24 25  2  0  0  0  0
 27 29  2  0  0  0  0
 28 42  1  0  0  0  0
 28 43  1  0  0  0  0
 28 44  1  0  0  0  0
 29 45  1  0  0  0  0
 30 46  1  0  0  0  0
 30 47  1  0  0  0  0
 30 48  1  0  0  0  0
 31 49  1  0  0  0  0
 31 50  1  0  0  0  0
 31 51  1  0  0  0  0
 32 52  1  0  0  0  0
 32 53  1  0  0  0  0
 32 54  1  0  0  0  0
M  END
> <PUBCHEM_COMPOUND_CID>
49830508

> <PUBCHEM_CONFORMER_RMSD>
1

> <PUBCHEM_CONFORMER_DIVERSEORDER>
3
44
58
39
16
27
45
19
47
12
18
56
4
40
54
59
55
15
22
5
31
48
14
49
17
25
33
8
11
46
34
36
20
35
21
32
23
42
24
9
51
57
7
1
43
29
28
6
37
13
52
50
2
38
10
30
26
41
53

> <PUBCHEM_MMFF94_PARTIAL_CHARGES>
42
1 -0.18
10 -0.6
11 -0.62
12 -0.62
13 -0.01
14 0.1
15 -0.15
16 -0.15
17 0.1
18 0.41
19 -0.15
2 1.45
20 -0.15
21 -0.15
22 -0.15
23 0.08
24 0.08
25 0.08
26 0.72
27 0.18
28 0.36
29 0.16
3 -0.65
30 0.28
31 0.28
32 0.28
33 0.15
34 0.4
35 0.15
36 0.15
37 0.15
38 0.42
39 0.15
4 -0.65
40 0.15
41 0.4
45 0.15
5 -0.36
6 -0.36
7 -0.36
8 -0.6
9 -0.91

> <PUBCHEM_EFFECTIVE_ROTOR_COUNT>
9

> <PUBCHEM_PHARMACOPHORE_FEATURES>
12
1 10 donor
1 3 acceptor
1 4 acceptor
1 5 acceptor
1 6 acceptor
1 7 acceptor
1 8 donor
1 9 donor
4 10 11 12 26 cation
6 11 12 18 26 27 29 rings
6 13 14 15 16 19 20 rings
6 17 21 22 23 24 25 rings

> <PUBCHEM_HEAVY_ATOM_COUNT>
32

> <PUBCHEM_ATOM_DEF_STEREO_COUNT>
0

> <PUBCHEM_ATOM_UDEF_STEREO_COUNT>
0

> <PUBCHEM_BOND_DEF_STEREO_COUNT>
0

> <PUBCHEM_BOND_UDEF_STEREO_COUNT>
0

> <PUBCHEM_ISOTOPIC_ATOM_COUNT>
0

> <PUBCHEM_COMPONENT_COUNT>
1

> <PUBCHEM_CACTVS_TAUTO_COUNT>
9

> <PUBCHEM_CONFORMER_ID>
02F85A6C00000003

> <PUBCHEM_MMFF94_ENERGY>
127.0583

> <PUBCHEM_FEATURE_SELFOVERLAP>
60.925

> <PUBCHEM_SHAPE_FINGERPRINT>
10670039 82 18126584512202245260
11135609 187 18411702059040538673
11370993 70 18411699842113902068
11582403 64 17314501531569717235
12107183 9 18262507106017246378
12156800 1 17031289510970205301
12788726 201 18194407916578603250
12978246 48 18410018740612140728
13560911 43 17972597972603019744
14117953 113 18336543803361839556
14767858 380 18272356574006671759
15003188 8 18335132038900143022
17138139 8 17915996080414756533
19319366 153 18198612247633449423
19930381 70 18118688712754826149
20511986 3 18187914119564122320
20642791 105 18337382846434445387
20715895 44 18337107861485108573
20764821 26 18128533958475401873
22749437 52 18341621360627098048
4066623 53 17621574526339593831
4366758 6 18195222474036659040
469060 322 18046085996982864147
5171179 24 17628343081423426931
6371009 1 18268418049861609376
6523845 18 17908748026307030687
9981440 41 18339643343572872867

> <PUBCHEM_SHAPE_MULTIPOLES>
610.01
12.77
4.89
1.73
9.26
4.33
-0.48
-7
-0.34
-3.6
0.24
0.04
-1.64
-1.2

> <PUBCHEM_SHAPE_SELFOVERLAP>
1279.096

> <PUBCHEM_SHAPE_VOLUME>
347.5

> <PUBCHEM_COORDINATE_TYPE>
2
5
10

$$$$
