49792852
  -OEChem-10052115143D

 65 69  0     0  0  0  0  0  0999 V2000
    4.2338    1.9112    2.0105 F   0  0  0  0  0  0  0  0  0  0  0  0
    4.9924    3.7269    1.0601 F   0  0  0  0  0  0  0  0  0  0  0  0
    6.2695    1.9560    1.1513 F   0  0  0  0  0  0  0  0  0  0  0  0
    4.4723    1.9759   -0.2629 O   0  0  0  0  0  0  0  0  0  0  0  0
    0.5143   -1.0620    2.5570 O   0  0  0  0  0  0  0  0  0  0  0  0
   -6.9348    0.5409    0.3213 O   0  0  0  0  0  0  0  0  0  0  0  0
    1.7508   -2.8559   -0.5284 N   0  0  0  0  0  0  0  0  0  0  0  0
    0.5524   -5.4327   -0.8176 N   0  0  0  0  0  0  0  0  0  0  0  0
   -2.5565   -0.2524    0.6620 N   0  0  0  0  0  0  0  0  0  0  0  0
   -3.7295   -0.8189    1.0107 N   0  0  0  0  0  0  0  0  0  0  0  0
   -0.4243    1.4340   -0.5281 N   0  0  0  0  0  0  0  0  0  0  0  0
    1.7897    1.9491   -1.1045 N   0  0  0  0  0  0  0  0  0  0  0  0
    0.1449    3.5818   -1.4765 N   0  0  0  0  0  0  0  0  0  0  0  0
   -6.4033   -1.4115    1.4003 N   0  0  0  0  0  0  0  0  0  0  0  0
    2.1133   -3.9414    0.3880 C   0  0  0  0  0  0  0  0  0  0  0  0
    1.2115   -3.2752   -1.8281 C   0  0  0  0  0  0  0  0  0  0  0  0
    0.9684   -4.9506    0.5050 C   0  0  0  0  0  0  0  0  0  0  0  0
    0.0951   -4.3049   -1.6390 C   0  0  0  0  0  0  0  0  0  0  0  0
   -4.0604    1.1660   -0.0612 C   0  0  0  0  0  0  0  0  0  0  0  0
   -4.6147    2.3675   -0.7400 C   0  0  0  0  0  0  0  0  0  0  0  0
   -2.7044    0.9403    0.0237 C   0  0  0  0  0  0  0  0  0  0  0  0
   -3.5898    3.5337   -0.7561 C   0  0  0  0  0  0  0  0  0  0  0  0
    2.4315   -1.6351   -0.4620 C   0  0  0  0  0  0  0  0  0  0  0  0
   -1.7036    1.8509   -0.4835 C   0  0  0  0  0  0  0  0  0  0  0  0
   -2.1471    3.1031   -0.9156 C   0  0  0  0  0  0  0  0  0  0  0  0
   -4.6437    0.0507    0.5624 C   0  0  0  0  0  0  0  0  0  0  0  0
   -0.5043   -6.4354   -0.6893 C   0  0  0  0  0  0  0  0  0  0  0  0
    1.7793   -0.4526   -0.8115 C   0  0  0  0  0  0  0  0  0  0  0  0
   -1.3308   -0.9326    1.0110 C   0  0  0  0  0  0  0  0  0  0  0  0
    3.7632   -1.6011   -0.0480 C   0  0  0  0  0  0  0  0  0  0  0  0
    2.4586    0.7639   -0.7466 C   0  0  0  0  0  0  0  0  0  0  0  0
   -1.1565    3.9367   -1.3969 C   0  0  0  0  0  0  0  0  0  0  0  0
    0.4348    2.3404   -1.0329 C   0  0  0  0  0  0  0  0  0  0  0  0
    3.7902    0.7978   -0.3325 C   0  0  0  0  0  0  0  0  0  0  0  0
    4.4425   -0.3846    0.0168 C   0  0  0  0  0  0  0  0  0  0  0  0
   -6.0395   -0.2285    0.7440 C   0  0  0  0  0  0  0  0  0  0  0  0
   -0.6611   -0.3271    2.2398 C   0  0  0  0  0  0  0  0  0  0  0  0
    4.9957    2.3759    0.9976 C   0  0  0  0  0  0  0  0  0  0  0  0
    2.3229   -3.5489    1.3909 H   0  0  0  0  0  0  0  0  0  0  0  0
    3.0158   -4.4505    0.0261 H   0  0  0  0  0  0  0  0  0  0  0  0
    0.8018   -2.4313   -2.3943 H   0  0  0  0  0  0  0  0  0  0  0  0
    2.0217   -3.7044   -2.4318 H   0  0  0  0  0  0  0  0  0  0  0  0
    1.3133   -5.7907    1.1199 H   0  0  0  0  0  0  0  0  0  0  0  0
    0.1233   -4.4860    1.0313 H   0  0  0  0  0  0  0  0  0  0  0  0
   -0.7775   -3.8195   -1.1809 H   0  0  0  0  0  0  0  0  0  0  0  0
   -0.2124   -4.6628   -2.6291 H   0  0  0  0  0  0  0  0  0  0  0  0
   -5.5400    2.7088   -0.2647 H   0  0  0  0  0  0  0  0  0  0  0  0
   -4.8592    2.0940   -1.7743 H   0  0  0  0  0  0  0  0  0  0  0  0
   -3.8661    4.2349   -1.5525 H   0  0  0  0  0  0  0  0  0  0  0  0
   -3.6617    4.0775    0.1951 H   0  0  0  0  0  0  0  0  0  0  0  0
   -0.7892   -6.8214   -1.6743 H   0  0  0  0  0  0  0  0  0  0  0  0
   -1.4012   -6.0342   -0.2034 H   0  0  0  0  0  0  0  0  0  0  0  0
   -0.1510   -7.2934   -0.1065 H   0  0  0  0  0  0  0  0  0  0  0  0
   -1.5754   -1.9833    1.2164 H   0  0  0  0  0  0  0  0  0  0  0  0
   -0.6882   -0.9676    0.1384 H   0  0  0  0  0  0  0  0  0  0  0  0
    0.7767   -0.5045   -1.2165 H   0  0  0  0  0  0  0  0  0  0  0  0
    4.3071   -2.5034    0.2159 H   0  0  0  0  0  0  0  0  0  0  0  0
   -1.3785    4.9431   -1.7361 H   0  0  0  0  0  0  0  0  0  0  0  0
    2.4046    2.7170   -1.3570 H   0  0  0  0  0  0  0  0  0  0  0  0
    5.4827   -0.3751    0.3304 H   0  0  0  0  0  0  0  0  0  0  0  0
   -0.3796    0.7171    2.0758 H   0  0  0  0  0  0  0  0  0  0  0  0
   -1.3343   -0.3650    3.1031 H   0  0  0  0  0  0  0  0  0  0  0  0
   -7.3791   -1.6494    1.5436 H   0  0  0  0  0  0  0  0  0  0  0  0
   -5.7115   -2.0659    1.7517 H   0  0  0  0  0  0  0  0  0  0  0  0
    0.9089   -0.6447    3.3416 H   0  0  0  0  0  0  0  0  0  0  0  0
  1 38  1  0  0  0  0
  2 38  1  0  0  0  0
  3 38  1  0  0  0  0
  4 34  1  0  0  0  0
  4 38  1  0  0  0  0
  5 37  1  0  0  0  0
  5 65  1  0  0  0  0
  6 36  2  0  0  0  0
  7 15  1  0  0  0  0
  7 16  1  0  0  0  0
  7 23  1  0  0  0  0
  8 17  1  0  0  0  0
  8 18  1  0  0  0  0
  8 27  1  0  0  0  0
  9 10  1  0  0  0  0
  9 21  1  0  0  0  0
  9 29  1  0  0  0  0
 10 26  2  0  0  0  0
 11 24  2  0  0  0  0
 11 33  1  0  0  0  0
 12 31  1  0  0  0  0
 12 33  1  0  0  0  0
 12 59  1  0  0  0  0
 13 32  1  0  0  0  0
 13 33  2  0  0  0  0
 14 36  1  0  0  0  0
 14 63  1  0  0  0  0
 14 64  1  0  0  0  0
 15 17  1  0  0  0  0
 15 39  1  0  0  0  0
 15 40  1  0  0  0  0
 16 18  1  0  0  0  0
 16 41  1  0  0  0  0
 16 42  1  0  0  0  0
 17 43  1  0  0  0  0
 17 44  1  0  0  0  0
 18 45  1  0  0  0  0
 18 46  1  0  0  0  0
 19 20  1  0  0  0  0
 19 21  2  0  0  0  0
 19 26  1  0  0  0  0
 20 22  1  0  0  0  0
 20 47  1  0  0  0  0
 20 48  1  0  0  0  0
 21 24  1  0  0  0  0
 22 25  1  0  0  0  0
 22 49  1  0  0  0  0
 22 50  1  0  0  0  0
 23 28  2  0  0  0  0
 23 30  1  0  0  0  0
 24 25  1  0  0  0  0
 25 32  2  0  0  0  0
 26 36  1  0  0  0  0
 27 51  1  0  0  0  0
 27 52  1  0  0  0  0
 27 53  1  0  0  0  0
 28 31  1  0  0  0  0
 28 56  1  0  0  0  0
 29 37  1  0  0  0  0
 29 54  1  0  0  0  0
 29 55  1  0  0  0  0
 30 35  2  0  0  0  0
 30 57  1  0  0  0  0
 31 34  2  0  0  0  0
 32 58  1  0  0  0  0
 34 35  1  0  0  0  0
 35 60  1  0  0  0  0
 37 61  1  0  0  0  0
 37 62  1  0  0  0  0
M  END
> <PUBCHEM_COMPOUND_CID>
49792852

> <PUBCHEM_CONFORMER_RMSD>
1

> <PUBCHEM_CONFORMER_DIVERSEORDER>
2
102
5
40
68
84
86
116
126
55
115
111
78
174
133
166
153
99
114
34
17
62
171
155
101
70
160
71
130
64
172
176
45
124
72
54
131
41
147
150
81
89
159
13
61
125
82
46
32
137
50
43
69
152
162
104
10
65
144
87
109
168
94
7
24
110
145
134
140
175
169
6
75
36
19
98
12
20
142
117
58
8
141
151
108
47
179
93
127
146
139
122
107
79
121
51
112
164
103
113
119
177
96
28
59
143
15
118
157
165
63
120
53
163
3
148
136
31
23
90
27
77
158
66
52
167
178
11
30
135
85
73
44
21
14
39
92
25
22
38
49
129
74
35
26
33
80
16
97
57
67
132
76
91
105
149
37
123
100
56
9
170
4
161
173
18
95
154
42
156
29
83
60
128
88
138
48
106
1

> <PUBCHEM_MMFF94_PARTIAL_CHARGES>
46
1 -0.34
10 -0.71
11 -0.62
12 -0.6
13 -0.62
14 -0.8
15 0.37
16 0.37
17 0.27
18 0.27
19 -0.18
2 -0.34
20 0.18
21 -0.2
22 0.14
23 0.1
24 0.36
25 -0.14
26 0.2
27 0.27
28 -0.15
29 0.26
3 -0.34
30 -0.15
31 0.1
32 0.16
33 0.72
34 0.08
35 -0.15
36 0.72
37 0.28
38 1.3
4 -0.36
5 -0.68
56 0.15
57 0.15
58 0.15
59 0.4
6 -0.57
60 0.15
63 0.37
64 0.37
65 0.4
7 -0.84
8 -0.81
9 0.31

> <PUBCHEM_EFFECTIVE_ROTOR_COUNT>
9.6

> <PUBCHEM_PHARMACOPHORE_FEATURES>
16
1 10 acceptor
1 11 acceptor
1 12 donor
1 14 donor
1 4 acceptor
1 5 acceptor
1 5 donor
1 6 acceptor
1 7 cation
1 8 cation
4 11 12 13 33 cation
5 9 10 19 21 26 rings
6 11 13 24 25 32 33 rings
6 19 20 21 22 24 25 rings
6 23 28 30 31 34 35 rings
6 7 8 15 16 17 18 rings

> <PUBCHEM_HEAVY_ATOM_COUNT>
38

> <PUBCHEM_ATOM_DEF_STEREO_COUNT>
0

> <PUBCHEM_ATOM_UDEF_STEREO_COUNT>
0

> <PUBCHEM_BOND_DEF_STEREO_COUNT>
0

> <PUBCHEM_BOND_UDEF_STEREO_COUNT>
0

> <PUBCHEM_ISOTOPIC_ATOM_COUNT>
0

> <PUBCHEM_COMPONENT_COUNT>
1

> <PUBCHEM_CACTVS_TAUTO_COUNT>
12

> <PUBCHEM_CONFORMER_ID>
02F7C75400000002

> <PUBCHEM_MMFF94_ENERGY>
118.6075

> <PUBCHEM_FEATURE_SELFOVERLAP>
81.311

> <PUBCHEM_SHAPE_FINGERPRINT>
10074138 170 17979607333845143850
12202916 173 18186517739543600315
12440610 7 17753593655832539644
1361 2 18410299141989698775
14068700 686 18409172086757804485
14725015 67 18115869603110812354
14863182 85 18263380173255593820
15324884 4 18048349839985418410
15419008 42 17897708891648349061
17909252 39 18121229683609755383
18365409 1 17984139537776111343
18681886 176 18114761416419739140
1979834 28 18338530697871281705
19930381 70 18263092020074527999
20028762 73 18337398261636222215
20775438 99 17757800392173669829
21033648 29 18271513282869609632
21304303 172 17690834984460549990
21703447 108 18192149296383140775
22440779 20 16458332644352665769
23559900 14 17977660914089328148
23572383 38 18187926123865722333
4403749 210 18264188332147321556
4461854 278 18266476449650229499
5104073 3 18338234851897796897
5309563 4 18336559218031126151
6004065 56 18192429886823246933
7399639 24 18409728435013779797
86090 222 18270141036169648942
9658208 31 18270405018335263460
9709674 26 17904483995871467341
9777508 108 18197768015828567616

> <PUBCHEM_SHAPE_MULTIPOLES>
702.74
11.66
7.57
1.65
9.95
9.91
0.56
-6.14
4.15
-5.88
-2.61
-0.37
0.07
3.56

> <PUBCHEM_SHAPE_SELFOVERLAP>
1529.832

> <PUBCHEM_SHAPE_VOLUME>
383.1

> <PUBCHEM_COORDINATE_TYPE>
2
5
10

$$$$
