24905150
  -OEChem-10052115153D

 55 57  0     0  0  0  0  0  0999 V2000
   -5.5584    0.0921   -0.2495 O   0  0  0  0  0  0  0  0  0  0  0  0
   -1.6234   -0.3934   -2.8232 O   0  0  0  0  0  0  0  0  0  0  0  0
   -4.1522    0.4870    1.5103 O   0  0  0  0  0  0  0  0  0  0  0  0
    4.1720    1.1136    0.0585 N   0  0  0  0  0  0  0  0  0  0  0  0
    2.8839    1.4304   -0.1702 N   0  0  0  0  0  0  0  0  0  0  0  0
    5.5322   -0.8054    0.6330 N   0  0  0  0  0  0  0  0  0  0  0  0
   -3.3550    0.0414   -0.6452 N   0  0  0  0  0  0  0  0  0  0  0  0
    4.1845   -2.8226    0.8873 N   0  0  0  0  0  0  0  0  0  0  0  0
    1.8161   -2.8374    0.5910 N   0  0  0  0  0  0  0  0  0  0  0  0
    5.1839    2.1394   -0.0298 C   0  0  0  0  0  0  0  0  0  0  0  0
    3.1118   -0.7890    0.3250 C   0  0  0  0  0  0  0  0  0  0  0  0
    4.3646   -0.2021    0.3593 C   0  0  0  0  0  0  0  0  0  0  0  0
    2.2434    0.2677   -0.0065 C   0  0  0  0  0  0  0  0  0  0  0  0
    0.8182    0.2083   -0.1732 C   0  0  0  0  0  0  0  0  0  0  0  0
    4.9599    3.2421    1.0081 C   0  0  0  0  0  0  0  0  0  0  0  0
    5.2679    2.7276   -1.4405 C   0  0  0  0  0  0  0  0  0  0  0  0
   -6.6788    0.2592    0.6201 C   0  0  0  0  0  0  0  0  0  0  0  0
    3.0434   -2.1503    0.6024 C   0  0  0  0  0  0  0  0  0  0  0  0
    0.2733   -0.0667   -1.4275 C   0  0  0  0  0  0  0  0  0  0  0  0
   -0.0211    0.4263    0.9194 C   0  0  0  0  0  0  0  0  0  0  0  0
   -1.9503    0.0943   -0.4966 C   0  0  0  0  0  0  0  0  0  0  0  0
   -1.1110   -0.1238   -1.5891 C   0  0  0  0  0  0  0  0  0  0  0  0
   -6.6303    1.6677    1.2105 C   0  0  0  0  0  0  0  0  0  0  0  0
   -7.9424    0.0704   -0.2163 C   0  0  0  0  0  0  0  0  0  0  0  0
   -6.6011   -0.7965    1.7221 C   0  0  0  0  0  0  0  0  0  0  0  0
   -1.4054    0.3692    0.7575 C   0  0  0  0  0  0  0  0  0  0  0  0
    5.3415   -2.1184    0.8850 C   0  0  0  0  0  0  0  0  0  0  0  0
   -4.3206    0.2329    0.3239 C   0  0  0  0  0  0  0  0  0  0  0  0
   -1.8469   -1.7641   -3.1459 C   0  0  0  0  0  0  0  0  0  0  0  0
    6.1487    1.6668    0.1909 H   0  0  0  0  0  0  0  0  0  0  0  0
    4.0265    3.7862    0.8263 H   0  0  0  0  0  0  0  0  0  0  0  0
    5.7811    3.9663    0.9858 H   0  0  0  0  0  0  0  0  0  0  0  0
    4.9082    2.8214    2.0186 H   0  0  0  0  0  0  0  0  0  0  0  0
    4.3464    3.2520   -1.7165 H   0  0  0  0  0  0  0  0  0  0  0  0
    5.4366    1.9388   -2.1821 H   0  0  0  0  0  0  0  0  0  0  0  0
    6.0954    3.4413   -1.5130 H   0  0  0  0  0  0  0  0  0  0  0  0
    0.9206   -0.2374   -2.2853 H   0  0  0  0  0  0  0  0  0  0  0  0
    0.3891    0.6414    1.9035 H   0  0  0  0  0  0  0  0  0  0  0  0
   -5.9075    1.7985    2.0197 H   0  0  0  0  0  0  0  0  0  0  0  0
   -6.3909    2.4091    0.4393 H   0  0  0  0  0  0  0  0  0  0  0  0
   -7.6029    1.9346    1.6411 H   0  0  0  0  0  0  0  0  0  0  0  0
   -7.9559   -0.9223   -0.6809 H   0  0  0  0  0  0  0  0  0  0  0  0
   -7.9772    0.7965   -1.0367 H   0  0  0  0  0  0  0  0  0  0  0  0
   -8.8506    0.1835    0.3848 H   0  0  0  0  0  0  0  0  0  0  0  0
   -6.3569   -1.7806    1.3053 H   0  0  0  0  0  0  0  0  0  0  0  0
   -5.8663   -0.5872    2.5033 H   0  0  0  0  0  0  0  0  0  0  0  0
   -7.5646   -0.8810    2.2388 H   0  0  0  0  0  0  0  0  0  0  0  0
   -1.9868    0.5489    1.6506 H   0  0  0  0  0  0  0  0  0  0  0  0
   -3.6918   -0.1591   -1.5836 H   0  0  0  0  0  0  0  0  0  0  0  0
    6.2356   -2.6871    1.1170 H   0  0  0  0  0  0  0  0  0  0  0  0
    0.9500   -2.3637    0.3810 H   0  0  0  0  0  0  0  0  0  0  0  0
    1.8113   -3.8273    0.7975 H   0  0  0  0  0  0  0  0  0  0  0  0
   -2.2922   -1.8129   -4.1434 H   0  0  0  0  0  0  0  0  0  0  0  0
   -2.5367   -2.2258   -2.4324 H   0  0  0  0  0  0  0  0  0  0  0  0
   -0.8994   -2.3122   -3.1587 H   0  0  0  0  0  0  0  0  0  0  0  0
  1 17  1  0  0  0  0
  1 28  1  0  0  0  0
  2 22  1  0  0  0  0
  2 29  1  0  0  0  0
  3 28  2  0  0  0  0
  4  5  1  0  0  0  0
  4 10  1  0  0  0  0
  4 12  1  0  0  0  0
  5 13  2  0  0  0  0
  6 12  2  0  0  0  0
  6 27  1  0  0  0  0
  7 21  1  0  0  0  0
  7 28  1  0  0  0  0
  7 49  1  0  0  0  0
  8 18  1  0  0  0  0
  8 27  2  0  0  0  0
  9 18  1  0  0  0  0
  9 51  1  0  0  0  0
  9 52  1  0  0  0  0
 10 15  1  0  0  0  0
 10 16  1  0  0  0  0
 10 30  1  0  0  0  0
 11 12  1  0  0  0  0
 11 13  1  0  0  0  0
 11 18  2  0  0  0  0
 13 14  1  0  0  0  0
 14 19  2  0  0  0  0
 14 20  1  0  0  0  0
 15 31  1  0  0  0  0
 15 32  1  0  0  0  0
 15 33  1  0  0  0  0
 16 34  1  0  0  0  0
 16 35  1  0  0  0  0
 16 36  1  0  0  0  0
 17 23  1  0  0  0  0
 17 24  1  0  0  0  0
 17 25  1  0  0  0  0
 19 22  1  0  0  0  0
 19 37  1  0  0  0  0
 20 26  2  0  0  0  0
 20 38  1  0  0  0  0
 21 22  2  0  0  0  0
 21 26  1  0  0  0  0
 23 39  1  0  0  0  0
 23 40  1  0  0  0  0
 23 41  1  0  0  0  0
 24 42  1  0  0  0  0
 24 43  1  0  0  0  0
 24 44  1  0  0  0  0
 25 45  1  0  0  0  0
 25 46  1  0  0  0  0
 25 47  1  0  0  0  0
 26 48  1  0  0  0  0
 27 50  1  0  0  0  0
 29 53  1  0  0  0  0
 29 54  1  0  0  0  0
 29 55  1  0  0  0  0
M  END
> <PUBCHEM_COMPOUND_CID>
24905150

> <PUBCHEM_CONFORMER_RMSD>
0.8

> <PUBCHEM_CONFORMER_DIVERSEORDER>
1
41
17
19
22
24
21
46
42
9
40
34
29
45
20
30
35
50
27
14
10
8
38
48
44
11
3
39
18
47
23
49
37
4
15
43
31
7
13
28
33
25
32
6
26
36
16
2
12
5

> <PUBCHEM_MMFF94_PARTIAL_CHARGES>
30
1 -0.43
10 0.26
12 0.11
13 0.23
14 0.05
17 0.28
18 0.41
19 -0.15
2 -0.36
20 -0.15
21 0.12
22 0.08
26 -0.15
27 0.47
28 0.78
29 0.28
3 -0.57
37 0.15
38 0.15
4 0.31
48 0.15
49 0.37
5 -0.71
50 0.15
51 0.4
52 0.4
6 -0.57
7 -0.55
8 -0.62
9 -0.9

> <PUBCHEM_EFFECTIVE_ROTOR_COUNT>
7

> <PUBCHEM_PHARMACOPHORE_FEATURES>
13
1 2 acceptor
1 3 acceptor
1 5 acceptor
1 7 donor
1 9 cation
1 9 donor
3 10 15 16 hydrophobe
3 4 6 12 cation
3 6 8 27 cation
4 17 23 24 25 hydrophobe
5 4 5 11 12 13 rings
6 14 19 20 21 22 26 rings
6 6 8 11 12 18 27 rings

> <PUBCHEM_HEAVY_ATOM_COUNT>
29

> <PUBCHEM_ATOM_DEF_STEREO_COUNT>
0

> <PUBCHEM_ATOM_UDEF_STEREO_COUNT>
0

> <PUBCHEM_BOND_DEF_STEREO_COUNT>
0

> <PUBCHEM_BOND_UDEF_STEREO_COUNT>
0

> <PUBCHEM_ISOTOPIC_ATOM_COUNT>
0

> <PUBCHEM_COMPONENT_COUNT>
1

> <PUBCHEM_CACTVS_TAUTO_COUNT>
14

> <PUBCHEM_CONFORMER_ID>
017C05BE00000001

> <PUBCHEM_MMFF94_ENERGY>
91.8191

> <PUBCHEM_FEATURE_SELFOVERLAP>
66.249

> <PUBCHEM_SHAPE_FINGERPRINT>
10 15 18131359635461962483
10165383 225 18115031913702334964
10411042 1 18047187446353586282
10554248 39 17987793004530125541
10670039 82 16271383927606390897
10906281 52 17489044686411344033
11719270 70 17274823498687432375
11963148 33 14707211032838408025
12236239 1 18130785668163169717
12342043 65 17386846106622029594
12516196 113 17458347459661522621
12596602 18 18411704292380581315
12616971 3 18272077297710305574
12730499 353 18259706718308962744
12788726 201 17560810913255894544
13533116 47 18408042892573798064
13617811 41 16558755615315342553
13673619 4 17677898933548968134
13726171 33 17058370529670525008
13782708 43 17240476962315813731
13785724 45 17768257808004716214
13862211 1 14418131855390493209
13955234 65 18335412462068861138
14347424 109 18408882906340499377
14461889 52 17968663846662439193
15131766 46 18194678404844796228
15183329 4 17704076205209596129
15238133 3 17131826569185984738
15392192 104 17750250251657022937
15419008 91 17023171765615841621
15475509 35 16443610308922544496
173720 79 17489867107633317511
17844677 252 18261114019656300237
19319366 153 18343860026541925778
1979834 28 17821730580758366436
20505436 4 18201719617637428238
21049683 271 18041283154916672390
21130935 74 18260272945428264363
21267235 1 18338235943531269442
21344244 78 18200300027930422976
21781055 127 16128392445352316250
21792964 463 18190767317114578068
22122407 14 18272101486803171689
22956985 138 13625182636118314480
23081809 10 18202279208857923081
23522609 53 18129965437169783225
23557571 272 16371002949768929094
23569943 247 17024583379262858043
25147074 1 17988065798797318255
27425 322 18126293175865196212
3178227 256 18260824879101807538
3633792 109 18114174191573922963
3663271 9 18411425016564165809
397830 11 17749961075957015977
4073 2 17968666024580441523
4340502 62 18334298686121647115
5104073 3 17845354691470971074
5912855 24 18127964406999595174
59755656 215 16443345334804236539
621550 34 17749102288381783502
7399639 24 17530953688125688086

> <PUBCHEM_SHAPE_MULTIPOLES>
549.31
18.54
2.64
1.88
25.59
0.14
1.62
5.42
-6.7
-6.26
-0.41
1.45
-0.68
-2.25

> <PUBCHEM_SHAPE_SELFOVERLAP>
1179.286

> <PUBCHEM_SHAPE_VOLUME>
304.4

> <PUBCHEM_COORDINATE_TYPE>
2
5
10

$$$$
