49830975
  -OEChem-10052120443D

 29 31  0     1  0  0  0  0  0999 V2000
   -3.9080   -0.4558   -0.1070 N   0  0  0  0  0  0  0  0  0  0  0  0
   -4.3251    0.7698    0.2659 N   0  0  0  0  0  0  0  0  0  0  0  0
    0.2237   -0.1523   -0.4718 C   0  0  1  0  0  0  0  0  0  0  0  0
   -0.3019   -1.5814   -0.1452 C   0  0  0  0  0  0  0  0  0  0  0  0
   -0.5907    0.9450    0.2735 C   0  0  0  0  0  0  0  0  0  0  0  0
   -1.7786   -1.7686   -0.5550 C   0  0  0  0  0  0  0  0  0  0  0  0
   -2.0458    0.6591    0.1953 C   0  0  0  0  0  0  0  0  0  0  0  0
   -2.5530   -0.5690   -0.1598 C   0  0  0  0  0  0  0  0  0  0  0  0
    1.7104   -0.0112   -0.2039 C   0  0  0  0  0  0  0  0  0  0  0  0
   -3.1840    1.4447    0.4501 C   0  0  0  0  0  0  0  0  0  0  0  0
    2.4976    0.7812   -1.0393 C   0  0  0  0  0  0  0  0  0  0  0  0
    2.2899   -0.6744    0.8776 C   0  0  0  0  0  0  0  0  0  0  0  0
    3.8646    0.9106   -0.7930 C   0  0  0  0  0  0  0  0  0  0  0  0
    3.6567   -0.5451    1.1240 C   0  0  0  0  0  0  0  0  0  0  0  0
    4.4441    0.2474    0.2886 C   0  0  0  0  0  0  0  0  0  0  0  0
    0.0679   -0.0128   -1.5525 H   0  0  0  0  0  0  0  0  0  0  0  0
   -0.2400   -1.7721    0.9337 H   0  0  0  0  0  0  0  0  0  0  0  0
    0.3080   -2.3451   -0.6433 H   0  0  0  0  0  0  0  0  0  0  0  0
   -0.3727    1.9295   -0.1576 H   0  0  0  0  0  0  0  0  0  0  0  0
   -0.2965    0.9837    1.3303 H   0  0  0  0  0  0  0  0  0  0  0  0
   -2.1835   -2.6726   -0.0877 H   0  0  0  0  0  0  0  0  0  0  0  0
   -1.8418   -1.8967   -1.6420 H   0  0  0  0  0  0  0  0  0  0  0  0
   -3.2350    2.4776    0.7634 H   0  0  0  0  0  0  0  0  0  0  0  0
   -4.6058   -1.1605   -0.3118 H   0  0  0  0  0  0  0  0  0  0  0  0
    2.0581    1.3050   -1.8839 H   0  0  0  0  0  0  0  0  0  0  0  0
    1.7106   -1.2812    1.5649 H   0  0  0  0  0  0  0  0  0  0  0  0
    4.4775    1.5284   -1.4429 H   0  0  0  0  0  0  0  0  0  0  0  0
    4.1076   -1.0569    1.9692 H   0  0  0  0  0  0  0  0  0  0  0  0
    5.5080    0.3492    0.4812 H   0  0  0  0  0  0  0  0  0  0  0  0
  1  2  1  0  0  0  0
  1  8  1  0  0  0  0
  1 24  1  0  0  0  0
  2 10  2  0  0  0  0
  3  4  1  0  0  0  0
  3  5  1  0  0  0  0
  3  9  1  0  0  0  0
  3 16  1  0  0  0  0
  4  6  1  0  0  0  0
  4 17  1  0  0  0  0
  4 18  1  0  0  0  0
  5  7  1  0  0  0  0
  5 19  1  0  0  0  0
  5 20  1  0  0  0  0
  6  8  1  0  0  0  0
  6 21  1  0  0  0  0
  6 22  1  0  0  0  0
  7  8  2  0  0  0  0
  7 10  1  0  0  0  0
  9 11  2  0  0  0  0
  9 12  1  0  0  0  0
 10 23  1  0  0  0  0
 11 13  1  0  0  0  0
 11 25  1  0  0  0  0
 12 14  2  0  0  0  0
 12 26  1  0  0  0  0
 13 15  2  0  0  0  0
 13 27  1  0  0  0  0
 14 15  1  0  0  0  0
 14 28  1  0  0  0  0
 15 29  1  0  0  0  0
M  END
> <PUBCHEM_COMPOUND_CID>
49830975

> <PUBCHEM_CONFORMER_RMSD>
0.6

> <PUBCHEM_CONFORMER_DIVERSEORDER>
1
3
2

> <PUBCHEM_MMFF94_PARTIAL_CHARGES>
21
1 0.3
10 0.14
11 -0.15
12 -0.15
13 -0.15
14 -0.15
15 -0.15
2 -0.71
23 0.15
24 0.27
25 0.15
26 0.15
27 0.15
28 0.15
29 0.15
3 0.14
5 0.18
6 0.18
7 -0.18
8 -0.33
9 -0.14

> <PUBCHEM_EFFECTIVE_ROTOR_COUNT>
1.8

> <PUBCHEM_PHARMACOPHORE_FEATURES>
5
1 1 donor
1 2 acceptor
5 1 2 7 8 10 rings
6 3 4 5 6 7 8 rings
6 9 11 12 13 14 15 rings

> <PUBCHEM_HEAVY_ATOM_COUNT>
15

> <PUBCHEM_ATOM_DEF_STEREO_COUNT>
0

> <PUBCHEM_ATOM_UDEF_STEREO_COUNT>
1

> <PUBCHEM_BOND_DEF_STEREO_COUNT>
0

> <PUBCHEM_BOND_UDEF_STEREO_COUNT>
0

> <PUBCHEM_ISOTOPIC_ATOM_COUNT>
0

> <PUBCHEM_COMPONENT_COUNT>
1

> <PUBCHEM_CACTVS_TAUTO_COUNT>
2

> <PUBCHEM_CONFORMER_ID>
02F85C3F00000001

> <PUBCHEM_MMFF94_ENERGY>
31.6074

> <PUBCHEM_FEATURE_SELFOVERLAP>
25.455

> <PUBCHEM_SHAPE_FINGERPRINT>
11132069 177 18343864407128661357
12236239 1 18260266361005632176
12251169 10 18260546718969086054
12403814 3 18040432183733727229
12500047 106 17917706924729079566
13538477 17 18335699494110896422
13581323 91 18412257333374899746
13675066 3 18334011683542950058
14144814 61 18335420170886245364
14897335 6 18342176643895344295
14943859 89 18202002131236698542
15342168 16 16517109512669847020
15375358 24 17131830975817084080
15375462 189 18113893866778282752
15536298 74 18200315407543865694
15669948 3 18342173422638243374
15775835 57 18335141994370642984
16945 1 18202283623783623119
17846911 113 18202562860876611769
1813 80 17459752511273918662
18186145 218 17675922110262723366
19026448 4 15697998548248996087
19050596 39 18259981591678300864
19422 9 18186801408868706194
200 152 17530958098819645981
20233049 118 18272932722020313400
20279233 1 16773799207867017294
20510252 161 18060143098330011281
20645476 183 18261400004306337383
20645477 56 18131354124000913897
20645477 70 16588567748016190514
23048698 100 17894630357357423080
23402539 116 18131343107399406405
23463225 33 18334292033222463162
23557571 272 17274538844617394215
23559900 14 17917718985424085998
26918003 58 16588024610583245160
3268164 11 17846487141556147341
42 15 17603585209926793080
474 4 17532941730025103388
5104073 3 18334293210338869784
573450 72 18410284809319614435
69090 78 17275098444664967567
7364860 26 17914899738294165606
77492 1 18187642535501143230

> <PUBCHEM_SHAPE_MULTIPOLES>
298.73
8.35
1.45
0.94
0.9
0.29
-0.02
-1.83
-0.82
-0.8
0.08
0.7
0
-0.94

> <PUBCHEM_SHAPE_SELFOVERLAP>
651.484

> <PUBCHEM_SHAPE_VOLUME>
162.3

> <PUBCHEM_COORDINATE_TYPE>
2
5
10

$$$$
