24905184
  -OEChem-10052115143D

 38 40  0     0  0  0  0  0  0999 V2000
    3.9856    0.1382   -3.2753 Br  0  0  0  0  0  0  0  0  0  0  0  0
    4.0770    0.3650    1.9570 O   0  0  0  0  0  0  0  0  0  0  0  0
   -2.2487    1.0044   -0.0321 N   0  0  0  0  0  0  0  0  0  0  0  0
   -0.9637    1.3911   -0.1368 N   0  0  0  0  0  0  0  0  0  0  0  0
   -3.5635   -1.0210    0.1457 N   0  0  0  0  0  0  0  0  0  0  0  0
   -2.1564   -3.0136    0.1357 N   0  0  0  0  0  0  0  0  0  0  0  0
    0.2225   -2.9120   -0.0306 N   0  0  0  0  0  0  0  0  0  0  0  0
   -3.2922    2.0016   -0.0036 C   0  0  0  0  0  0  0  0  0  0  0  0
   -2.4070   -0.3479    0.0373 C   0  0  0  0  0  0  0  0  0  0  0  0
   -1.1334   -0.8854   -0.0267 C   0  0  0  0  0  0  0  0  0  0  0  0
   -0.2896    0.2359   -0.1331 C   0  0  0  0  0  0  0  0  0  0  0  0
   -3.3306    2.8134   -1.3009 C   0  0  0  0  0  0  0  0  0  0  0  0
   -3.1581    2.9224    1.2118 C   0  0  0  0  0  0  0  0  0  0  0  0
    1.1482    0.2453   -0.2323 C   0  0  0  0  0  0  0  0  0  0  0  0
   -1.0285   -2.2713    0.0262 C   0  0  0  0  0  0  0  0  0  0  0  0
    1.9262    0.3018    0.9240 C   0  0  0  0  0  0  0  0  0  0  0  0
    1.7618    0.1963   -1.4840 C   0  0  0  0  0  0  0  0  0  0  0  0
   -3.3370   -2.3517    0.1879 C   0  0  0  0  0  0  0  0  0  0  0  0
    3.3178    0.3097    0.8287 C   0  0  0  0  0  0  0  0  0  0  0  0
    3.1534    0.2042   -1.5795 C   0  0  0  0  0  0  0  0  0  0  0  0
    3.9315    0.2608   -0.4231 C   0  0  0  0  0  0  0  0  0  0  0  0
    3.3847    0.4131    3.2037 C   0  0  0  0  0  0  0  0  0  0  0  0
   -4.2483    1.4718    0.0850 H   0  0  0  0  0  0  0  0  0  0  0  0
   -2.4168    3.4022   -1.4379 H   0  0  0  0  0  0  0  0  0  0  0  0
   -4.1793    3.5056   -1.2986 H   0  0  0  0  0  0  0  0  0  0  0  0
   -3.4349    2.1543   -2.1700 H   0  0  0  0  0  0  0  0  0  0  0  0
   -2.2376    3.5154    1.1716 H   0  0  0  0  0  0  0  0  0  0  0  0
   -3.1389    2.3414    2.1405 H   0  0  0  0  0  0  0  0  0  0  0  0
   -4.0032    3.6168    1.2656 H   0  0  0  0  0  0  0  0  0  0  0  0
    1.3995    0.3375    1.8728 H   0  0  0  0  0  0  0  0  0  0  0  0
    1.1544    0.1514   -2.3860 H   0  0  0  0  0  0  0  0  0  0  0  0
   -4.2197   -2.9761    0.2754 H   0  0  0  0  0  0  0  0  0  0  0  0
    5.0170    0.2674   -0.4863 H   0  0  0  0  0  0  0  0  0  0  0  0
    1.0798   -2.3855   -0.1111 H   0  0  0  0  0  0  0  0  0  0  0  0
    0.2537   -3.9218    0.0117 H   0  0  0  0  0  0  0  0  0  0  0  0
    4.1431    0.4538    3.9925 H   0  0  0  0  0  0  0  0  0  0  0  0
    2.7968   -0.4953    3.3731 H   0  0  0  0  0  0  0  0  0  0  0  0
    2.7811    1.3225    3.2944 H   0  0  0  0  0  0  0  0  0  0  0  0
  1 20  1  0  0  0  0
  2 19  1  0  0  0  0
  2 22  1  0  0  0  0
  3  4  1  0  0  0  0
  3  8  1  0  0  0  0
  3  9  1  0  0  0  0
  4 11  2  0  0  0  0
  5  9  2  0  0  0  0
  5 18  1  0  0  0  0
  6 15  1  0  0  0  0
  6 18  2  0  0  0  0
  7 15  1  0  0  0  0
  7 34  1  0  0  0  0
  7 35  1  0  0  0  0
  8 12  1  0  0  0  0
  8 13  1  0  0  0  0
  8 23  1  0  0  0  0
  9 10  1  0  0  0  0
 10 11  1  0  0  0  0
 10 15  2  0  0  0  0
 11 14  1  0  0  0  0
 12 24  1  0  0  0  0
 12 25  1  0  0  0  0
 12 26  1  0  0  0  0
 13 27  1  0  0  0  0
 13 28  1  0  0  0  0
 13 29  1  0  0  0  0
 14 16  2  0  0  0  0
 14 17  1  0  0  0  0
 16 19  1  0  0  0  0
 16 30  1  0  0  0  0
 17 20  2  0  0  0  0
 17 31  1  0  0  0  0
 18 32  1  0  0  0  0
 19 21  2  0  0  0  0
 20 21  1  0  0  0  0
 21 33  1  0  0  0  0
 22 36  1  0  0  0  0
 22 37  1  0  0  0  0
 22 38  1  0  0  0  0
M  END
> <PUBCHEM_COMPOUND_CID>
24905184

> <PUBCHEM_CONFORMER_RMSD>
0.6

> <PUBCHEM_CONFORMER_DIVERSEORDER>
2
9
8
10
7
1
4
6
3
5
12
11

> <PUBCHEM_MMFF94_PARTIAL_CHARGES>
25
1 -0.11
11 0.23
14 0.05
15 0.41
16 -0.15
17 -0.15
18 0.47
19 0.08
2 -0.36
20 0.11
21 -0.15
22 0.28
3 0.31
30 0.15
31 0.15
32 0.15
33 0.15
34 0.4
35 0.4
4 -0.71
5 -0.57
6 -0.62
7 -0.9
8 0.26
9 0.11

> <PUBCHEM_EFFECTIVE_ROTOR_COUNT>
3

> <PUBCHEM_PHARMACOPHORE_FEATURES>
11
1 1 hydrophobe
1 2 acceptor
1 4 acceptor
1 7 cation
1 7 donor
3 3 5 9 cation
3 5 6 18 cation
3 8 12 13 hydrophobe
5 3 4 9 10 11 rings
6 14 16 17 19 20 21 rings
6 5 6 9 10 15 18 rings

> <PUBCHEM_HEAVY_ATOM_COUNT>
22

> <PUBCHEM_ATOM_DEF_STEREO_COUNT>
0

> <PUBCHEM_ATOM_UDEF_STEREO_COUNT>
0

> <PUBCHEM_BOND_DEF_STEREO_COUNT>
0

> <PUBCHEM_BOND_UDEF_STEREO_COUNT>
0

> <PUBCHEM_ISOTOPIC_ATOM_COUNT>
0

> <PUBCHEM_COMPONENT_COUNT>
1

> <PUBCHEM_CACTVS_TAUTO_COUNT>
5

> <PUBCHEM_CONFORMER_ID>
017C05E000000002

> <PUBCHEM_MMFF94_ENERGY>
60.2719

> <PUBCHEM_FEATURE_SELFOVERLAP>
56.099

> <PUBCHEM_SHAPE_FINGERPRINT>
10165383 225 17981078260991095057
10319926 262 18270377470346092008
11049842 53 18263373486508855022
11582403 64 17197648768342708080
11725454 13 17486455314299162600
12160290 23 18409731777004803135
12236239 1 17603865645769409462
12549972 3 17846224310784594274
12553582 1 18120101825451319171
12788726 201 18042134317679989459
13140716 1 18122066661646741259
13583140 156 17916565623327762010
14022347 108 17974301115877431627
14178342 30 18409722941729554762
15842332 3 17531247279215650980
16752209 62 18408325514101282079
16945 1 18410015476685038711
173720 79 17968082081169625133
18186145 218 17917160407067084552
18915476 22 16630528457811962412
19049666 15 17917721162445159442
20510252 161 18343024436364556177
20600515 1 18051404368964783403
20693207 138 17631474382716485166
21065201 7 18412269441056713774
212916 134 18267287756029461401
21618674 53 17605583061430999924
22112679 90 17894628171330021300
22182313 1 17775291577413646484
22907989 373 18187364367860222013
22943178 12 17846785117554336468
23366157 5 17752210487458232603
23526113 38 17274543114131202648
23557571 272 18202004356093373192
23559900 14 18272097037759754366
23598288 3 17822020804387961301
23598291 2 17458349649851841558
2838139 119 15265684788877073627
312423 11 17531251681599353306
350125 39 18193851344777937283
495365 180 17702933726380408918
57527295 17 17272864108045818324
6049 1 17703523167655266408
633830 44 17773877493586084921
7615 1 17603861234679903468
77492 1 17603585257303269710
81228 2 18338806731435521891
84936 182 17624409775632123913
88987 49 18408886239440829788
9862522 239 17751344106718256101

> <PUBCHEM_SHAPE_MULTIPOLES>
427.92
8.17
2.96
2.34
2.74
0.93
-0.38
-2.64
0.71
-5.33
0.02
4.91
-0.89
0.29

> <PUBCHEM_SHAPE_SELFOVERLAP>
917.057

> <PUBCHEM_SHAPE_VOLUME>
245.7

> <PUBCHEM_COORDINATE_TYPE>
2
5
10

$$$$
