5703619
  -OEChem-10062121573D

 37 40  0     0  0  0  0  0  0999 V2000
    1.0650    1.8442   -1.8158 O   0  0  0  0  0  0  0  0  0  0  0  0
   -3.7897   -1.7032    2.1765 O   0  5  0  0  0  0  0  0  0  0  0  0
   -2.8769    0.2834    1.9782 O   0  0  0  0  0  0  0  0  0  0  0  0
    3.1087    0.6903   -1.5466 N   0  0  0  0  0  0  0  0  0  0  0  0
   -2.5674    2.1593   -0.2510 N   0  0  0  0  0  0  0  0  0  0  0  0
   -2.0657    3.2907    0.2729 N   0  0  0  0  0  0  0  0  0  0  0  0
   -3.1725   -0.8404    1.5101 N   0  3  0  0  0  0  0  0  0  0  0  0
    1.6213    0.5817    0.1897 C   0  0  0  0  0  0  0  0  0  0  0  0
    2.8044   -0.1895    0.5562 C   0  0  0  0  0  0  0  0  0  0  0  0
    3.6753   -0.0906   -0.5329 C   0  0  0  0  0  0  0  0  0  0  0  0
   -0.6549    1.5545    0.5252 C   0  0  0  0  0  0  0  0  0  0  0  0
   -1.7446    1.0793   -0.1206 C   0  0  0  0  0  0  0  0  0  0  0  0
    0.5106    0.7882    0.8997 C   0  0  0  0  0  0  0  0  0  0  0  0
    1.8377    1.1477   -1.1841 C   0  0  0  0  0  0  0  0  0  0  0  0
   -2.1039   -0.2260   -0.6188 C   0  0  0  0  0  0  0  0  0  0  0  0
    3.1565   -0.9167    1.6774 C   0  0  0  0  0  0  0  0  0  0  0  0
    4.9132   -0.7027   -0.5477 C   0  0  0  0  0  0  0  0  0  0  0  0
   -0.8801    2.9037    0.7509 C   0  0  0  0  0  0  0  0  0  0  0  0
   -2.7930   -1.1483    0.1724 C   0  0  0  0  0  0  0  0  0  0  0  0
    4.4063   -1.5453    1.6835 C   0  0  0  0  0  0  0  0  0  0  0  0
   -1.7493   -0.5645   -1.9269 C   0  0  0  0  0  0  0  0  0  0  0  0
    5.2760   -1.4392    0.5816 C   0  0  0  0  0  0  0  0  0  0  0  0
   -3.1254   -2.4017   -0.3415 C   0  0  0  0  0  0  0  0  0  0  0  0
   -2.0816   -1.8181   -2.4406 C   0  0  0  0  0  0  0  0  0  0  0  0
   -2.7696   -2.7367   -1.6480 C   0  0  0  0  0  0  0  0  0  0  0  0
    0.4464    0.3356    1.8880 H   0  0  0  0  0  0  0  0  0  0  0  0
    3.5725    0.8893   -2.4251 H   0  0  0  0  0  0  0  0  0  0  0  0
    2.4949   -1.0059    2.5319 H   0  0  0  0  0  0  0  0  0  0  0  0
    5.5818   -0.6203   -1.3969 H   0  0  0  0  0  0  0  0  0  0  0  0
   -0.2518    3.6367    1.2368 H   0  0  0  0  0  0  0  0  0  0  0  0
   -3.4822    2.1984   -0.6838 H   0  0  0  0  0  0  0  0  0  0  0  0
   -1.2143    0.1381   -2.5614 H   0  0  0  0  0  0  0  0  0  0  0  0
    4.7120   -2.1247    2.5510 H   0  0  0  0  0  0  0  0  0  0  0  0
    6.2413   -1.9376    0.6126 H   0  0  0  0  0  0  0  0  0  0  0  0
   -3.6608   -3.1465    0.2418 H   0  0  0  0  0  0  0  0  0  0  0  0
   -1.8048   -2.0788   -3.4580 H   0  0  0  0  0  0  0  0  0  0  0  0
   -3.0281   -3.7125   -2.0487 H   0  0  0  0  0  0  0  0  0  0  0  0
  1 14  2  0  0  0  0
  2  7  1  0  0  0  0
  3  7  2  0  0  0  0
  4 10  1  0  0  0  0
  4 14  1  0  0  0  0
  4 27  1  0  0  0  0
  5  6  1  0  0  0  0
  5 12  1  0  0  0  0
  5 31  1  0  0  0  0
  6 18  2  0  0  0  0
  7 19  1  0  0  0  0
  8  9  1  0  0  0  0
  8 13  2  0  0  0  0
  8 14  1  0  0  0  0
  9 10  1  0  0  0  0
  9 16  2  0  0  0  0
 10 17  2  0  0  0  0
 11 12  2  0  0  0  0
 11 13  1  0  0  0  0
 11 18  1  0  0  0  0
 12 15  1  0  0  0  0
 13 26  1  0  0  0  0
 15 19  1  0  0  0  0
 15 21  2  0  0  0  0
 16 20  1  0  0  0  0
 16 28  1  0  0  0  0
 17 22  1  0  0  0  0
 17 29  1  0  0  0  0
 18 30  1  0  0  0  0
 19 23  2  0  0  0  0
 20 22  2  0  0  0  0
 20 33  1  0  0  0  0
 21 24  1  0  0  0  0
 21 32  1  0  0  0  0
 22 34  1  0  0  0  0
 23 25  1  0  0  0  0
 23 35  1  0  0  0  0
 24 25  2  0  0  0  0
 24 36  1  0  0  0  0
 25 37  1  0  0  0  0
M  CHG  2   2  -1   7   1
M  END
> <PUBCHEM_COMPOUND_CID>
5703619

> <PUBCHEM_CONFORMER_RMSD>
0.6

> <PUBCHEM_CONFORMER_DIVERSEORDER>
1
5
8
4
7
3
2
6

> <PUBCHEM_MMFF94_PARTIAL_CHARGES>
37
1 -0.57
10 0.12
11 -0.05
12 -0.2
13 -0.1
14 0.62
15 0.05
16 -0.15
17 -0.15
18 0.14
19 0.13
2 -0.52
20 -0.15
21 -0.15
22 -0.15
23 -0.15
24 -0.15
25 -0.15
26 0.15
27 0.37
28 0.15
29 0.15
3 -0.52
30 0.15
31 0.27
32 0.15
33 0.15
34 0.15
35 0.15
36 0.15
37 0.15
4 -0.55
5 0.3
6 -0.71
7 0.91
8 -0.01
9 0.03

> <PUBCHEM_EFFECTIVE_ROTOR_COUNT>
3.2

> <PUBCHEM_PHARMACOPHORE_FEATURES>
11
1 1 acceptor
1 2 acceptor
1 2 anion
1 3 acceptor
1 4 donor
1 5 donor
1 6 acceptor
5 4 8 9 10 14 rings
5 5 6 11 12 18 rings
6 15 19 21 23 24 25 rings
6 9 10 16 17 20 22 rings

> <PUBCHEM_HEAVY_ATOM_COUNT>
25

> <PUBCHEM_ATOM_DEF_STEREO_COUNT>
0

> <PUBCHEM_ATOM_UDEF_STEREO_COUNT>
0

> <PUBCHEM_BOND_DEF_STEREO_COUNT>
1

> <PUBCHEM_BOND_UDEF_STEREO_COUNT>
0

> <PUBCHEM_ISOTOPIC_ATOM_COUNT>
0

> <PUBCHEM_COMPONENT_COUNT>
1

> <PUBCHEM_CACTVS_TAUTO_COUNT>
7

> <PUBCHEM_CONFORMER_ID>
005707C300000001

> <PUBCHEM_MMFF94_ENERGY>
89.6761

> <PUBCHEM_FEATURE_SELFOVERLAP>
55.993

> <PUBCHEM_SHAPE_FINGERPRINT>
11370993 144 16128662920828188950
11578080 2 18191277529333007188
11725454 13 13972587650450984395
12363563 72 18128519643154361750
12553582 1 18341334508156420247
12633257 1 17060341850586315634
12714826 92 18202003213689874120
12788726 201 18338817670221761761
12969540 37 17105956409267918251
13224815 77 18412256251317551786
13583140 156 17130683038971232978
13911987 19 17028550743438624780
14844126 61 18269819957040915330
15475509 8 15864341507181207079
15484559 13 13924383695047927452
1813 80 18128254686932867239
20775530 9 17901379322827758538
21452121 199 18197199559136534556
21731516 1 18198623426741697933
23559900 14 17774438249601664508
23598288 3 18336276664754042157
23728640 28 18270106903995565875
238 59 15936964262420707278
3027735 51 17986933207685324239
46194498 28 15357990022215210702
463206 1 18193538189643183047
484985 159 18268974441173681831
497634 4 17168440284842437258
58260988 114 17459491977676302113
602551 16 17917710202158378390
7970288 3 18337392742013351914
90316 7 18201723985186807061

> <PUBCHEM_SHAPE_MULTIPOLES>
476.96
8.81
3
2.08
9.78
1.01
0.11
-5.73
2.23
-3.31
-0.44
-0.71
-0.77
-1.36

> <PUBCHEM_SHAPE_SELFOVERLAP>
1080.45

> <PUBCHEM_SHAPE_VOLUME>
250.5

> <PUBCHEM_COORDINATE_TYPE>
2
5
10

$$$$
