13187667
  -OEChem-10052115153D

 21 23  0     0  0  0  0  0  0999 V2000
    2.6207   -1.3159   -0.0004 S   0  0  0  0  0  0  0  0  0  0  0  0
    1.7225    1.1528    0.0002 N   0  0  0  0  0  0  0  0  0  0  0  0
    4.0848    0.9251   -0.0008 N   0  0  0  0  0  0  0  0  0  0  0  0
   -0.2264   -1.9470    0.0003 C   0  0  0  0  0  0  0  0  0  0  0  0
   -1.3165   -0.8809    0.0001 C   0  0  0  0  0  0  0  0  0  0  0  0
   -0.7471    0.4241    0.0006 C   0  0  0  0  0  0  0  0  0  0  0  0
    0.9677   -1.0577    0.0005 C   0  0  0  0  0  0  0  0  0  0  0  0
    0.6783    0.2847    0.0007 C   0  0  0  0  0  0  0  0  0  0  0  0
   -2.6873   -1.0500   -0.0004 C   0  0  0  0  0  0  0  0  0  0  0  0
   -1.5244    1.5622    0.0004 C   0  0  0  0  0  0  0  0  0  0  0  0
    2.8232    0.4160    0.0001 C   0  0  0  0  0  0  0  0  0  0  0  0
   -3.4847    0.0992   -0.0007 C   0  0  0  0  0  0  0  0  0  0  0  0
   -2.9109    1.3873   -0.0002 C   0  0  0  0  0  0  0  0  0  0  0  0
   -0.2807   -2.5591    0.9045 H   0  0  0  0  0  0  0  0  0  0  0  0
   -0.2805   -2.5592   -0.9040 H   0  0  0  0  0  0  0  0  0  0  0  0
   -3.1359   -2.0368   -0.0008 H   0  0  0  0  0  0  0  0  0  0  0  0
   -1.0903    2.5555    0.0006 H   0  0  0  0  0  0  0  0  0  0  0  0
   -4.5674   -0.0002   -0.0012 H   0  0  0  0  0  0  0  0  0  0  0  0
   -3.5612    2.2586   -0.0004 H   0  0  0  0  0  0  0  0  0  0  0  0
    4.2573    1.9251   -0.0007 H   0  0  0  0  0  0  0  0  0  0  0  0
    4.9032    0.3253   -0.0012 H   0  0  0  0  0  0  0  0  0  0  0  0
  1  7  1  0  0  0  0
  1 11  1  0  0  0  0
  2  8  1  0  0  0  0
  2 11  2  0  0  0  0
  3 11  1  0  0  0  0
  3 20  1  0  0  0  0
  3 21  1  0  0  0  0
  4  5  1  0  0  0  0
  4  7  1  0  0  0  0
  4 14  1  0  0  0  0
  4 15  1  0  0  0  0
  5  6  1  0  0  0  0
  5  9  2  0  0  0  0
  6  8  1  0  0  0  0
  6 10  2  0  0  0  0
  7  8  2  0  0  0  0
  9 12  1  0  0  0  0
  9 16  1  0  0  0  0
 10 13  1  0  0  0  0
 10 17  1  0  0  0  0
 12 13  2  0  0  0  0
 12 18  1  0  0  0  0
 13 19  1  0  0  0  0
M  END
> <PUBCHEM_COMPOUND_CID>
13187667

> <PUBCHEM_CONFORMER_RMSD>
0.4

> <PUBCHEM_CONFORMER_DIVERSEORDER>
1

> <PUBCHEM_MMFF94_PARTIAL_CHARGES>
19
1 -0.08
10 -0.15
11 0.46
12 -0.15
13 -0.15
16 0.15
17 0.15
18 0.15
19 0.15
2 -0.57
20 0.4
21 0.4
3 -0.88
4 0.32
5 -0.14
6 0.05
7 -0.14
8 0.17
9 -0.15

> <PUBCHEM_EFFECTIVE_ROTOR_COUNT>
0.2

> <PUBCHEM_PHARMACOPHORE_FEATURES>
5
1 3 donor
3 2 3 11 cation
5 1 2 7 8 11 rings
5 4 5 6 7 8 rings
6 5 6 9 10 12 13 rings

> <PUBCHEM_HEAVY_ATOM_COUNT>
13

> <PUBCHEM_ATOM_DEF_STEREO_COUNT>
0

> <PUBCHEM_ATOM_UDEF_STEREO_COUNT>
0

> <PUBCHEM_BOND_DEF_STEREO_COUNT>
0

> <PUBCHEM_BOND_UDEF_STEREO_COUNT>
0

> <PUBCHEM_ISOTOPIC_ATOM_COUNT>
0

> <PUBCHEM_COMPONENT_COUNT>
1

> <PUBCHEM_CACTVS_TAUTO_COUNT>
2

> <PUBCHEM_CONFORMER_ID>
00C93A5300000001

> <PUBCHEM_MMFF94_ENERGY>
44.9659

> <PUBCHEM_FEATURE_SELFOVERLAP>
25.675

> <PUBCHEM_SHAPE_FINGERPRINT>
10608611 8 18410853226782454948
10967382 1 18410575071794033767
11132069 177 18411414012061608281
11471102 20 18338793425495002573
12346645 44 18410293605523354304
12491281 212 18340498767760774961
12932764 1 17417801863884140810
13024252 1 12252174186981505151
13380535 21 18339371785411397066
13380535 76 18410573998279374886
14144814 61 18409729543152219936
14325111 11 18410573959402824320
14614273 12 18188202113973926221
14897335 6 18411132532995554646
15196674 1 18410573963798018407
15219456 202 18341336604089774767
15442244 35 18122624955475772850
15536298 74 18342457002708007022
15775835 57 18412267224505325353
16945 1 18338517563639770407
17844478 74 18261122876237086579
18186145 218 18270968938117661652
193761 8 17617940227480385957
20510252 161 18343868809654912369
20645477 70 18341045199407444247
20871998 184 18200317748517326431
21501502 16 18339077099168070443
2334 1 18410573967976876195
23402539 116 18341320188740464103
23402655 69 18270105822181064805
23463225 33 18335136436836020754
23552423 10 18334013865370674351
23559900 14 18200313213585606718
2748010 2 18410577240768381679
5104073 3 18410293579669135915
528886 8 18410851066413593395
53812653 166 18343297089473192048
57096353 35 18411416254113600103
6333449 129 18412542141272612373
69090 78 18272928336552716479
7364860 26 18197497329272095566

> <PUBCHEM_SHAPE_MULTIPOLES>
261.42
5.72
1.81
0.61
1.51
0.24
0
-1.41
0
-0.06
0
-0.02
0.02
0

> <PUBCHEM_SHAPE_SELFOVERLAP>
578.626

> <PUBCHEM_SHAPE_VOLUME>
142.7

> <PUBCHEM_COORDINATE_TYPE>
2
5
10

$$$$
