23740938
  -OEChem-10062121533D

 56 61  0     1  0  0  0  0  0999 V2000
   -7.9180    3.7730   -0.8293 F   0  0  0  0  0  0  0  0  0  0  0  0
   -5.3187   -1.7934    0.5975 O   0  0  0  0  0  0  0  0  0  0  0  0
    1.7535   -0.5230    1.2493 N   0  0  0  0  0  0  0  0  0  0  0  0
   -3.3973   -0.5398    0.1485 N   0  0  0  0  0  0  0  0  0  0  0  0
    1.7411   -1.0715   -1.1555 C   0  0  2  0  0  0  0  0  0  0  0  0
    3.1730   -0.4873   -1.2761 C   0  0  1  0  0  0  0  0  0  0  0  0
    1.4363   -1.5598    0.2825 C   0  0  2  0  0  0  0  0  0  0  0  0
    1.7440   -2.2441   -2.1596 C   0  0  0  0  0  0  0  0  0  0  0  0
    3.6764    0.2647   -0.0569 C   0  0  0  0  0  0  0  0  0  0  0  0
    3.9654   -1.7109   -1.6480 C   0  0  0  0  0  0  0  0  0  0  0  0
    2.9313    0.2060    1.1404 C   0  0  0  0  0  0  0  0  0  0  0  0
    3.1774   -2.6658   -2.1539 C   0  0  0  0  0  0  0  0  0  0  0  0
   -0.0135   -1.9798    0.4647 C   0  0  0  0  0  0  0  0  0  0  0  0
    4.8693    1.0592   -0.1241 C   0  0  0  0  0  0  0  0  0  0  0  0
    3.3635    0.9444    2.2487 C   0  0  0  0  0  0  0  0  0  0  0  0
    5.2852    1.7734    1.0280 C   0  0  0  0  0  0  0  0  0  0  0  0
   -1.0399   -1.0663    0.2243 C   0  0  0  0  0  0  0  0  0  0  0  0
   -0.3171   -3.2793    0.8705 C   0  0  0  0  0  0  0  0  0  0  0  0
    4.5258    1.7069    2.1983 C   0  0  0  0  0  0  0  0  0  0  0  0
    5.6723    1.1945   -1.2834 C   0  0  0  0  0  0  0  0  0  0  0  0
    6.4512    2.5574    1.0002 C   0  0  0  0  0  0  0  0  0  0  0  0
   -2.3699   -1.4525    0.3898 C   0  0  0  0  0  0  0  0  0  0  0  0
   -1.6471   -3.6654    1.0360 C   0  0  0  0  0  0  0  0  0  0  0  0
    6.8290    1.9780   -1.2987 C   0  0  0  0  0  0  0  0  0  0  0  0
   -2.6736   -2.7520    0.7957 C   0  0  0  0  0  0  0  0  0  0  0  0
    7.2199    2.6580   -0.1555 C   0  0  0  0  0  0  0  0  0  0  0  0
   -4.7850   -0.7412    0.2587 C   0  0  0  0  0  0  0  0  0  0  0  0
   -5.6090    0.4453   -0.0281 C   0  0  0  0  0  0  0  0  0  0  0  0
   -6.8686    0.5774    0.5566 C   0  0  0  0  0  0  0  0  0  0  0  0
   -5.1295    1.4374   -0.8833 C   0  0  0  0  0  0  0  0  0  0  0  0
   -7.6487    1.7016    0.2859 C   0  0  0  0  0  0  0  0  0  0  0  0
   -5.9096    2.5615   -1.1540 C   0  0  0  0  0  0  0  0  0  0  0  0
   -7.1692    2.6936   -0.5695 C   0  0  0  0  0  0  0  0  0  0  0  0
    1.0139   -0.3098   -1.4633 H   0  0  0  0  0  0  0  0  0  0  0  0
    3.1749    0.2063   -2.1288 H   0  0  0  0  0  0  0  0  0  0  0  0
    2.0776   -2.4213    0.5143 H   0  0  0  0  0  0  0  0  0  0  0  0
    1.4596   -1.9099   -3.1635 H   0  0  0  0  0  0  0  0  0  0  0  0
    1.0829   -3.0632   -1.8654 H   0  0  0  0  0  0  0  0  0  0  0  0
    5.0403   -1.7979   -1.5771 H   0  0  0  0  0  0  0  0  0  0  0  0
    1.3111   -0.5630    2.1616 H   0  0  0  0  0  0  0  0  0  0  0  0
    3.5309   -3.6130   -2.5336 H   0  0  0  0  0  0  0  0  0  0  0  0
    2.7938    0.9235    3.1759 H   0  0  0  0  0  0  0  0  0  0  0  0
   -0.8102   -0.0486   -0.0822 H   0  0  0  0  0  0  0  0  0  0  0  0
    0.4713   -4.0026    1.0607 H   0  0  0  0  0  0  0  0  0  0  0  0
    4.8266    2.2555    3.0888 H   0  0  0  0  0  0  0  0  0  0  0  0
    5.4097    0.6878   -2.2088 H   0  0  0  0  0  0  0  0  0  0  0  0
    6.7715    3.1040    1.8854 H   0  0  0  0  0  0  0  0  0  0  0  0
   -1.8821   -4.6778    1.3518 H   0  0  0  0  0  0  0  0  0  0  0  0
    7.4196    2.0545   -2.2069 H   0  0  0  0  0  0  0  0  0  0  0  0
   -3.6737   -3.1312    0.9472 H   0  0  0  0  0  0  0  0  0  0  0  0
    8.1175    3.2686   -0.1623 H   0  0  0  0  0  0  0  0  0  0  0  0
   -3.0647    0.3897   -0.0908 H   0  0  0  0  0  0  0  0  0  0  0  0
   -7.2582   -0.1822    1.2293 H   0  0  0  0  0  0  0  0  0  0  0  0
   -4.1754    1.3616   -1.3959 H   0  0  0  0  0  0  0  0  0  0  0  0
   -8.6289    1.8056    0.7417 H   0  0  0  0  0  0  0  0  0  0  0  0
   -5.5412    3.3301   -1.8271 H   0  0  0  0  0  0  0  0  0  0  0  0
  1 33  1  0  0  0  0
  2 27  2  0  0  0  0
  3  7  1  0  0  0  0
  3 11  1  0  0  0  0
  3 40  1  0  0  0  0
  4 22  1  0  0  0  0
  4 27  1  0  0  0  0
  4 52  1  0  0  0  0
  5  6  1  0  0  0  0
  5  7  1  0  0  0  0
  5  8  1  0  0  0  0
  5 34  1  0  0  0  0
  6  9  1  0  0  0  0
  6 10  1  0  0  0  0
  6 35  1  0  0  0  0
  7 13  1  0  0  0  0
  7 36  1  0  0  0  0
  8 12  1  0  0  0  0
  8 37  1  0  0  0  0
  8 38  1  0  0  0  0
  9 11  2  0  0  0  0
  9 14  1  0  0  0  0
 10 12  2  0  0  0  0
 10 39  1  0  0  0  0
 11 15  1  0  0  0  0
 12 41  1  0  0  0  0
 13 17  2  0  0  0  0
 13 18  1  0  0  0  0
 14 16  1  0  0  0  0
 14 20  2  0  0  0  0
 15 19  2  0  0  0  0
 15 42  1  0  0  0  0
 16 19  1  0  0  0  0
 16 21  2  0  0  0  0
 17 22  1  0  0  0  0
 17 43  1  0  0  0  0
 18 23  2  0  0  0  0
 18 44  1  0  0  0  0
 19 45  1  0  0  0  0
 20 24  1  0  0  0  0
 20 46  1  0  0  0  0
 21 26  1  0  0  0  0
 21 47  1  0  0  0  0
 22 25  2  0  0  0  0
 23 25  1  0  0  0  0
 23 48  1  0  0  0  0
 24 26  2  0  0  0  0
 24 49  1  0  0  0  0
 25 50  1  0  0  0  0
 26 51  1  0  0  0  0
 27 28  1  0  0  0  0
 28 29  2  0  0  0  0
 28 30  1  0  0  0  0
 29 31  1  0  0  0  0
 29 53  1  0  0  0  0
 30 32  2  0  0  0  0
 30 54  1  0  0  0  0
 31 33  2  0  0  0  0
 31 55  1  0  0  0  0
 32 33  1  0  0  0  0
 32 56  1  0  0  0  0
M  END
> <PUBCHEM_COMPOUND_CID>
23740938

> <PUBCHEM_CONFORMER_RMSD>
0.8

> <PUBCHEM_CONFORMER_DIVERSEORDER>
3
76
65
40
74
13
58
90
79
51
111
14
113
104
48
30
80
110
60
45
81
88
68
78
95
44
71
82
91
97
72
89
61
63
103
93
70
35
107
22
73
50
34
8
112
114
42
99
108
109
55
86
100
87
69
67
96
33
12
21
85
54
16
29
59
75
41
23
28
11
56
62
84
10
64
66
77
36
46
32
7
43
49
19
18
98
53
17
83
94
47
25
101
39
5
92
1
37
6
102
106
57
26
4
52
105
38
20
24
2
15
9
27
31

> <PUBCHEM_MMFF94_PARTIAL_CHARGES>
48
1 -0.19
10 -0.29
11 0.1
12 -0.29
13 -0.14
15 -0.15
17 -0.15
18 -0.15
19 -0.15
2 -0.57
20 -0.15
21 -0.15
22 0.12
23 -0.15
24 -0.15
25 -0.15
26 -0.15
27 0.54
28 0.09
29 -0.15
3 -0.87
30 -0.15
31 -0.15
32 -0.15
33 0.19
39 0.15
4 -0.55
40 0.4
41 0.15
42 0.15
43 0.15
44 0.15
45 0.15
46 0.15
47 0.15
48 0.15
49 0.15
50 0.15
51 0.15
52 0.37
53 0.15
54 0.15
55 0.15
56 0.15
6 0.28
7 0.51
8 0.14
9 -0.14

> <PUBCHEM_EFFECTIVE_ROTOR_COUNT>
4.6

> <PUBCHEM_PHARMACOPHORE_FEATURES>
10
1 2 acceptor
1 3 cation
1 3 donor
1 4 donor
5 5 6 8 10 12 rings
6 13 17 18 22 23 25 rings
6 14 16 20 21 24 26 rings
6 28 29 30 31 32 33 rings
6 3 5 6 7 9 11 rings
6 9 11 14 15 16 19 rings

> <PUBCHEM_HEAVY_ATOM_COUNT>
33

> <PUBCHEM_ATOM_DEF_STEREO_COUNT>
0

> <PUBCHEM_ATOM_UDEF_STEREO_COUNT>
3

> <PUBCHEM_BOND_DEF_STEREO_COUNT>
0

> <PUBCHEM_BOND_UDEF_STEREO_COUNT>
0

> <PUBCHEM_ISOTOPIC_ATOM_COUNT>
0

> <PUBCHEM_COMPONENT_COUNT>
1

> <PUBCHEM_CACTVS_TAUTO_COUNT>
2

> <PUBCHEM_CONFORMER_ID>
016A420A00000003

> <PUBCHEM_MMFF94_ENERGY>
117.0761

> <PUBCHEM_FEATURE_SELFOVERLAP>
50.941

> <PUBCHEM_SHAPE_FINGERPRINT>
10 15 18040436595029091793
10055352 69 18202847648560693601
10190108 129 16226319310598488098
10675989 125 18267026054897558746
11062273 29 18195240006062624311
11409948 41 16199604476710407620
11578080 2 18408605881435730310
11720765 8 17909552752971536726
12422481 6 16588571007949187191
12440610 7 18338242660080048847
12778500 126 18186794782667566242
12988421 55 17603853525520062195
13540713 4 18339662108027038634
13627167 48 17987525818994186401
13627175 4 12751231528825364061
14395042 24 17531823471719479843
14747281 78 17917167008658542247
14931854 50 17775005674231169913
15082195 135 17346041060961365194
15183329 4 16056879114002313169
15198563 99 17910942867230749751
15803439 3 17203323429685081575
17899979 129 18059301950596997863
19053607 189 18260842508881897630
19304671 126 18128821846344732901
21033648 29 18261119564912571487
21424621 283 18334014991021429755
21781055 127 17458908258723084652
21867126 195 8358253727064660712
21968339 14 17561074787741494762
22121540 332 18343301449282041204
23522609 53 16951700280057993116
23569914 152 17628370268239370118
24771293 8 18334574655604555269
25269216 80 17488730282294896023
2748736 6 18334284362896351173
3004659 81 13470681534462924507
3388396 114 17346606256971875121
3459 39 18187069672689343239
3504750 166 10737295641540884561
3862424 121 12966547847057565805
3918712 181 18335698296269474613
4046055 4 17047097374047954814
4066623 53 18127978507946497916
44249763 50 18129647712668366059
44317340 157 18059575750894671999
504579 68 15769776845148964809
5109719 28 18336272275962117289
5219985 13 18335135376369813523
5718773 13 9799691498088912105
58902169 19 14548473456482465059
6086070 43 17203608242125491558
636775 72 18264768942315076560
6636798 310 14924243650784501097
9658208 31 18334305249243787995
9849439 229 18187922851148219379
9980921 177 18261663771755275602

> <PUBCHEM_SHAPE_MULTIPOLES>
656.02
22.02
4.27
1.84
24.03
0.55
-0.11
-28.42
-3.05
2.7
-0.34
-2.59
0.28
4.18

> <PUBCHEM_SHAPE_SELFOVERLAP>
1478.738

> <PUBCHEM_SHAPE_VOLUME>
343.3

> <PUBCHEM_COORDINATE_TYPE>
2
5
10

$$$$
