44352817
  -OEChem-10062121583D

 66 73  0     1  0  0  0  0  0999 V2000
   -4.9296   -0.1444    1.2471 F   0  0  0  0  0  0  0  0  0  0  0  0
   -5.7112    1.2787   -0.2210 F   0  0  0  0  0  0  0  0  0  0  0  0
   -6.8669   -0.4804    0.3209 F   0  0  0  0  0  0  0  0  0  0  0  0
   -0.8184   -0.4684    1.9820 O   0  0  0  0  0  0  0  0  0  0  0  0
   -1.5136    0.1664   -1.2176 O   0  0  0  0  0  0  0  0  0  0  0  0
    6.0230   -0.9110   -0.6813 O   0  0  0  0  0  0  0  0  0  0  0  0
   -5.4681   -0.8164   -2.1547 O   0  0  0  0  0  0  0  0  0  0  0  0
   -0.0667    1.3178    0.6959 N   0  0  0  0  0  0  0  0  0  0  0  0
    0.7503   -1.5691    0.6634 N   0  0  0  0  0  0  0  0  0  0  0  0
   -3.7812   -1.5270   -0.7012 N   0  0  0  0  0  0  0  0  0  0  0  0
    5.7972    1.4161   -0.7728 N   0  0  0  0  0  0  0  0  0  0  0  0
   -1.2557    0.6321    1.1797 C   0  0  1  0  0  0  0  0  0  0  0  0
   -2.2208    0.2289    0.0288 C   0  0  2  0  0  0  0  0  0  0  0  0
   -0.5442   -1.6663    1.2981 C   0  0  2  0  0  0  0  0  0  0  0  0
   -2.8218   -1.1462    0.3066 C   0  0  2  0  0  0  0  0  0  0  0  0
   -1.6875   -2.1625    0.4011 C   0  0  0  0  0  0  0  0  0  0  0  0
    1.2013    0.8536    0.4341 C   0  0  0  0  0  0  0  0  0  0  0  0
    1.5879   -0.5187    0.4085 C   0  0  0  0  0  0  0  0  0  0  0  0
    2.2525    1.7799    0.0793 C   0  0  0  0  0  0  0  0  0  0  0  0
    2.9724   -0.7633    0.0383 C   0  0  0  0  0  0  0  0  0  0  0  0
    0.0581    2.6688    0.3401 C   0  0  0  0  0  0  0  0  0  0  0  0
   -2.0315    1.4391    2.2472 C   0  0  0  0  0  0  0  0  0  0  0  0
    1.5788   -2.6658    0.4045 C   0  0  0  0  0  0  0  0  0  0  0  0
    1.4253    2.9812    0.0712 C   0  0  0  0  0  0  0  0  0  0  0  0
    3.5912    1.5302   -0.2045 C   0  0  0  0  0  0  0  0  0  0  0  0
    3.9519    0.1919   -0.2245 C   0  0  0  0  0  0  0  0  0  0  0  0
    2.8884   -2.2288    0.0456 C   0  0  0  0  0  0  0  0  0  0  0  0
    4.7503    2.3953   -0.5704 C   0  0  0  0  0  0  0  0  0  0  0  0
   -0.9238    3.6731    0.2109 C   0  0  0  0  0  0  0  0  0  0  0  0
    5.3666    0.1069   -0.5815 C   0  0  0  0  0  0  0  0  0  0  0  0
    1.2668   -4.0397    0.4823 C   0  0  0  0  0  0  0  0  0  0  0  0
    1.7632    4.3251   -0.2304 C   0  0  0  0  0  0  0  0  0  0  0  0
   -3.4828   -2.7627   -1.4303 C   0  0  0  0  0  0  0  0  0  0  0  0
    3.8491   -3.2326   -0.2399 C   0  0  0  0  0  0  0  0  0  0  0  0
   -4.9529   -0.8259   -1.0331 C   0  0  0  0  0  0  0  0  0  0  0  0
   -2.3974    0.2685   -2.3266 C   0  0  0  0  0  0  0  0  0  0  0  0
   -0.5491    4.9831   -0.0983 C   0  0  0  0  0  0  0  0  0  0  0  0
    0.7803    5.3116   -0.3005 C   0  0  0  0  0  0  0  0  0  0  0  0
    2.2477   -4.9872    0.1936 C   0  0  0  0  0  0  0  0  0  0  0  0
    3.5245   -4.5900   -0.1644 C   0  0  0  0  0  0  0  0  0  0  0  0
   -5.6037   -0.0416    0.0738 C   0  0  0  0  0  0  0  0  0  0  0  0
   -2.9890    1.0067   -0.0551 H   0  0  0  0  0  0  0  0  0  0  0  0
   -0.4097   -2.4105    2.0937 H   0  0  0  0  0  0  0  0  0  0  0  0
   -3.2988   -1.1785    1.2871 H   0  0  0  0  0  0  0  0  0  0  0  0
   -2.0633   -3.1027    0.8264 H   0  0  0  0  0  0  0  0  0  0  0  0
   -1.2429   -2.4162   -0.5661 H   0  0  0  0  0  0  0  0  0  0  0  0
   -1.3479    1.8612    2.9942 H   0  0  0  0  0  0  0  0  0  0  0  0
   -2.7226    0.7877    2.7976 H   0  0  0  0  0  0  0  0  0  0  0  0
   -2.6332    2.2517    1.8387 H   0  0  0  0  0  0  0  0  0  0  0  0
    4.5882    2.9384   -1.5045 H   0  0  0  0  0  0  0  0  0  0  0  0
    5.0414    3.0674    0.2403 H   0  0  0  0  0  0  0  0  0  0  0  0
   -1.9787    3.4545    0.3262 H   0  0  0  0  0  0  0  0  0  0  0  0
    0.2712   -4.3722    0.7616 H   0  0  0  0  0  0  0  0  0  0  0  0
    2.7956    4.5968   -0.4356 H   0  0  0  0  0  0  0  0  0  0  0  0
   -2.5689   -2.6877   -2.0221 H   0  0  0  0  0  0  0  0  0  0  0  0
   -4.2924   -2.9760   -2.1373 H   0  0  0  0  0  0  0  0  0  0  0  0
   -3.4533   -3.6120   -0.7421 H   0  0  0  0  0  0  0  0  0  0  0  0
    4.8607   -2.9694   -0.5275 H   0  0  0  0  0  0  0  0  0  0  0  0
    6.7488    1.6579   -1.0307 H   0  0  0  0  0  0  0  0  0  0  0  0
   -1.8346    0.7840   -3.1135 H   0  0  0  0  0  0  0  0  0  0  0  0
   -3.2752    0.8921   -2.1368 H   0  0  0  0  0  0  0  0  0  0  0  0
   -2.6450   -0.6990   -2.7555 H   0  0  0  0  0  0  0  0  0  0  0  0
   -1.3135    5.7508   -0.1858 H   0  0  0  0  0  0  0  0  0  0  0  0
    1.0576    6.3339   -0.5413 H   0  0  0  0  0  0  0  0  0  0  0  0
    2.0060   -6.0449    0.2508 H   0  0  0  0  0  0  0  0  0  0  0  0
    4.2814   -5.3365   -0.3888 H   0  0  0  0  0  0  0  0  0  0  0  0
  1 41  1  0  0  0  0
  2 41  1  0  0  0  0
  3 41  1  0  0  0  0
  4 12  1  0  0  0  0
  4 14  1  0  0  0  0
  5 13  1  0  0  0  0
  5 36  1  0  0  0  0
  6 30  2  0  0  0  0
  7 35  2  0  0  0  0
  8 12  1  0  0  0  0
  8 17  1  0  0  0  0
  8 21  1  0  0  0  0
  9 14  1  0  0  0  0
  9 18  1  0  0  0  0
  9 23  1  0  0  0  0
 10 15  1  0  0  0  0
 10 33  1  0  0  0  0
 10 35  1  0  0  0  0
 11 28  1  0  0  0  0
 11 30  1  0  0  0  0
 11 59  1  0  0  0  0
 12 13  1  0  0  0  0
 12 22  1  0  0  0  0
 13 15  1  0  0  0  0
 13 42  1  0  0  0  0
 14 16  1  0  0  0  0
 14 43  1  0  0  0  0
 15 16  1  0  0  0  0
 15 44  1  0  0  0  0
 16 45  1  0  0  0  0
 16 46  1  0  0  0  0
 17 18  2  0  0  0  0
 17 19  1  0  0  0  0
 18 20  1  0  0  0  0
 19 24  1  0  0  0  0
 19 25  2  0  0  0  0
 20 26  2  0  0  0  0
 20 27  1  0  0  0  0
 21 24  1  0  0  0  0
 21 29  2  0  0  0  0
 22 47  1  0  0  0  0
 22 48  1  0  0  0  0
 22 49  1  0  0  0  0
 23 27  1  0  0  0  0
 23 31  2  0  0  0  0
 24 32  2  0  0  0  0
 25 26  1  0  0  0  0
 25 28  1  0  0  0  0
 26 30  1  0  0  0  0
 27 34  2  0  0  0  0
 28 50  1  0  0  0  0
 28 51  1  0  0  0  0
 29 37  1  0  0  0  0
 29 52  1  0  0  0  0
 31 39  1  0  0  0  0
 31 53  1  0  0  0  0
 32 38  1  0  0  0  0
 32 54  1  0  0  0  0
 33 55  1  0  0  0  0
 33 56  1  0  0  0  0
 33 57  1  0  0  0  0
 34 40  1  0  0  0  0
 34 58  1  0  0  0  0
 35 41  1  0  0  0  0
 36 60  1  0  0  0  0
 36 61  1  0  0  0  0
 36 62  1  0  0  0  0
 37 38  2  0  0  0  0
 37 63  1  0  0  0  0
 38 64  1  0  0  0  0
 39 40  2  0  0  0  0
 39 65  1  0  0  0  0
 40 66  1  0  0  0  0
M  END
> <PUBCHEM_COMPOUND_CID>
44352817

> <PUBCHEM_CONFORMER_RMSD>
1

> <PUBCHEM_CONFORMER_DIVERSEORDER>
2
4
1
3

> <PUBCHEM_MMFF94_PARTIAL_CHARGES>
46
1 -0.34
10 -0.66
11 -0.73
12 0.54
13 0.28
14 0.54
15 0.3
17 -0.05
18 -0.05
19 -0.01
2 -0.34
20 -0.01
21 -0.15
23 -0.15
25 -0.14
26 0.09
28 0.44
29 -0.15
3 -0.34
30 0.54
31 -0.15
32 -0.15
33 0.3
34 -0.15
35 0.57
36 0.28
37 -0.15
38 -0.15
39 -0.15
4 -0.56
40 -0.15
41 1.08
5 -0.56
52 0.15
53 0.15
54 0.15
58 0.15
59 0.37
6 -0.57
63 0.15
64 0.15
65 0.15
66 0.15
7 -0.57
8 -0.04
9 -0.04

> <PUBCHEM_EFFECTIVE_ROTOR_COUNT>
5.2

> <PUBCHEM_PHARMACOPHORE_FEATURES>
15
1 11 donor
1 4 acceptor
1 5 acceptor
1 6 acceptor
1 7 acceptor
1 8 cation
1 9 cation
5 11 25 26 28 30 rings
5 8 17 19 21 24 rings
5 9 18 20 23 27 rings
6 17 18 19 20 25 26 rings
6 21 24 29 32 37 38 rings
6 23 27 31 34 39 40 rings
6 4 12 13 14 15 16 rings
7 4 8 9 12 14 17 18 rings

> <PUBCHEM_HEAVY_ATOM_COUNT>
41

> <PUBCHEM_ATOM_DEF_STEREO_COUNT>
4

> <PUBCHEM_ATOM_UDEF_STEREO_COUNT>
0

> <PUBCHEM_BOND_DEF_STEREO_COUNT>
0

> <PUBCHEM_BOND_UDEF_STEREO_COUNT>
0

> <PUBCHEM_ISOTOPIC_ATOM_COUNT>
0

> <PUBCHEM_COMPONENT_COUNT>
1

> <PUBCHEM_CACTVS_TAUTO_COUNT>
2

> <PUBCHEM_CONFORMER_ID>
02A4C53100000002

> <PUBCHEM_MMFF94_ENERGY>
191.9179

> <PUBCHEM_FEATURE_SELFOVERLAP>
77.08

> <PUBCHEM_SHAPE_FINGERPRINT>
10675989 125 18409168835873295062
10930396 42 18053070061332449520
1100329 8 17762912356706824944
11115154 58 17846492661111439921
11135609 187 18338237184365354928
11135926 11 18410287021544484446
11445158 3 17392518714479307289
11513181 2 18053108315988767998
12788726 201 18263075535536404624
13140716 1 18196114302895831992
1361 2 18339078314791436936
13690498 29 17909849643065349062
13911987 19 18189910867018666612
14068700 675 18131348652460895256
14415360 78 18048586320325690628
14681490 219 18409729521624733420
14790565 3 18193280916801150532
15320467 1 18410294722088192188
15324884 4 17319010929139206169
15328829 1 17774741804731100435
15420108 30 17769398031838605097
15439362 3 17978791538456058225
15444296 8 17767127505819407198
15484559 13 18339912831385667326
15840311 113 18189623735928865869
15927050 60 17905899072412266076
19319366 153 17984143936106835121
20642791 105 16539601350188032976
20775438 99 17762288653729560437
23559900 14 18196368336835754393
24771293 8 18128525167173829800
24771750 20 17827090798411550085
3882209 13 17757240736223300282
4353968 344 18268714914608559830
4394409 98 18044389437951963332
463206 1 18337952393415487390
6004065 56 18268140049234034896
70251023 43 18192997015152353626

> <PUBCHEM_SHAPE_MULTIPOLES>
778.54
11.1
6.6
1.36
7.51
2.25
0.09
-3.62
3.77
-5.7
0.18
1.59
-0.13
-1.13

> <PUBCHEM_SHAPE_SELFOVERLAP>
1788.82

> <PUBCHEM_SHAPE_VOLUME>
403.8

> <PUBCHEM_COORDINATE_TYPE>
2
5
10

$$$$
