44396134
  -OEChem-10052115173D

 66 72  0     0  0  0  0  0  0999 V2000
   -5.8123   -1.7243    1.1128 O   0  0  0  0  0  0  0  0  0  0  0  0
    2.8701   -4.1517   -0.5304 O   0  0  0  0  0  0  0  0  0  0  0  0
    5.7499   -0.9650    1.0563 O   0  0  0  0  0  0  0  0  0  0  0  0
   -1.0925   -2.1989    0.1991 N   0  0  0  0  0  0  0  0  0  0  0  0
   -3.9957   -1.3988   -0.2830 N   0  0  0  0  0  0  0  0  0  0  0  0
   -5.1982    0.4464    0.6623 N   0  0  0  0  0  0  0  0  0  0  0  0
    4.6124   -2.8138    0.2271 N   0  0  0  0  0  0  0  0  0  0  0  0
    3.6603    1.5072    0.4425 N   0  0  0  0  0  0  0  0  0  0  0  0
    2.3170    2.3370    2.0271 N   0  0  0  0  0  0  0  0  0  0  0  0
   -1.0000   -1.1569   -0.7088 C   0  0  0  0  0  0  0  0  0  0  0  0
   -2.2907   -2.8086    0.7521 C   0  0  0  0  0  0  0  0  0  0  0  0
   -3.5220   -2.7738   -0.1368 C   0  0  0  0  0  0  0  0  0  0  0  0
   -1.9752   -0.4268   -1.4306 C   0  0  0  0  0  0  0  0  0  0  0  0
   -3.4669   -0.6703   -1.4369 C   0  0  0  0  0  0  0  0  0  0  0  0
    0.3726   -0.8793   -0.8389 C   0  0  0  0  0  0  0  0  0  0  0  0
   -6.5385    0.9918    0.8768 C   0  0  0  0  0  0  0  0  0  0  0  0
   -4.1060    1.3203    1.1081 C   0  0  0  0  0  0  0  0  0  0  0  0
    1.0831   -1.7831   -0.0055 C   0  0  0  0  0  0  0  0  0  0  0  0
   -6.6820    2.3696    0.2368 C   0  0  0  0  0  0  0  0  0  0  0  0
   -4.1961    2.6979    0.4627 C   0  0  0  0  0  0  0  0  0  0  0  0
   -5.5739    3.3179    0.6917 C   0  0  0  0  0  0  0  0  0  0  0  0
   -5.0447   -0.9430    0.5370 C   0  0  0  0  0  0  0  0  0  0  0  0
    0.1598   -2.5804    0.6186 C   0  0  0  0  0  0  0  0  0  0  0  0
   -1.4948    0.5892   -2.2883 C   0  0  0  0  0  0  0  0  0  0  0  0
    0.8002    0.1528   -1.6969 C   0  0  0  0  0  0  0  0  0  0  0  0
    2.5303   -1.8831    0.1938 C   0  0  0  0  0  0  0  0  0  0  0  0
   -0.1423    0.8807   -2.4155 C   0  0  0  0  0  0  0  0  0  0  0  0
    3.3782   -0.9440    0.6550 C   0  0  0  0  0  0  0  0  0  0  0  0
    3.3207   -3.1045   -0.0977 C   0  0  0  0  0  0  0  0  0  0  0  0
    0.3025    1.9713   -3.3312 C   0  0  0  0  0  0  0  0  0  0  0  0
    3.0795    0.4304    1.0620 C   0  0  0  0  0  0  0  0  0  0  0  0
    4.7376   -1.5379    0.6906 C   0  0  0  0  0  0  0  0  0  0  0  0
    2.2612    0.9661    2.0285 C   0  0  0  0  0  0  0  0  0  0  0  0
    3.1635    2.6485    1.0669 C   0  0  0  0  0  0  0  0  0  0  0  0
    4.5738    1.5392   -0.6074 C   0  0  0  0  0  0  0  0  0  0  0  0
    3.6322    3.9062    0.5853 C   0  0  0  0  0  0  0  0  0  0  0  0
    5.0106    2.7275   -1.0552 C   0  0  0  0  0  0  0  0  0  0  0  0
    4.5164    3.9441   -0.4303 C   0  0  0  0  0  0  0  0  0  0  0  0
   -2.4793   -2.3016    1.7064 H   0  0  0  0  0  0  0  0  0  0  0  0
   -2.0454   -3.8558    0.9669 H   0  0  0  0  0  0  0  0  0  0  0  0
   -3.3220   -3.2015   -1.1262 H   0  0  0  0  0  0  0  0  0  0  0  0
   -4.3040   -3.3843    0.3269 H   0  0  0  0  0  0  0  0  0  0  0  0
   -3.9971    0.2827   -1.5314 H   0  0  0  0  0  0  0  0  0  0  0  0
   -3.7221   -1.2516   -2.3322 H   0  0  0  0  0  0  0  0  0  0  0  0
   -6.7081    1.0440    1.9589 H   0  0  0  0  0  0  0  0  0  0  0  0
   -7.2837    0.3052    0.4595 H   0  0  0  0  0  0  0  0  0  0  0  0
   -3.1381    0.8550    0.9052 H   0  0  0  0  0  0  0  0  0  0  0  0
   -4.1861    1.4030    2.1992 H   0  0  0  0  0  0  0  0  0  0  0  0
   -7.6616    2.7944    0.4817 H   0  0  0  0  0  0  0  0  0  0  0  0
   -6.6370    2.2673   -0.8548 H   0  0  0  0  0  0  0  0  0  0  0  0
   -4.0148    2.6122   -0.6155 H   0  0  0  0  0  0  0  0  0  0  0  0
   -3.4192    3.3534    0.8712 H   0  0  0  0  0  0  0  0  0  0  0  0
   -5.6498    4.2669    0.1495 H   0  0  0  0  0  0  0  0  0  0  0  0
   -5.7010    3.5441    1.7575 H   0  0  0  0  0  0  0  0  0  0  0  0
    0.2827   -3.3812    1.3369 H   0  0  0  0  0  0  0  0  0  0  0  0
   -2.2139    1.1615   -2.8744 H   0  0  0  0  0  0  0  0  0  0  0  0
    1.8586    0.3668   -1.8142 H   0  0  0  0  0  0  0  0  0  0  0  0
    0.4562    1.5757   -4.3401 H   0  0  0  0  0  0  0  0  0  0  0  0
   -0.4400    2.7752   -3.3773 H   0  0  0  0  0  0  0  0  0  0  0  0
    1.2394    2.4215   -2.9848 H   0  0  0  0  0  0  0  0  0  0  0  0
    5.3837   -3.4651    0.1352 H   0  0  0  0  0  0  0  0  0  0  0  0
    1.6314    0.4355    2.7285 H   0  0  0  0  0  0  0  0  0  0  0  0
    4.9029    0.6105   -1.0548 H   0  0  0  0  0  0  0  0  0  0  0  0
    3.2704    4.8200    1.0430 H   0  0  0  0  0  0  0  0  0  0  0  0
    5.7150    2.8069   -1.8742 H   0  0  0  0  0  0  0  0  0  0  0  0
    4.8839    4.8911   -0.8107 H   0  0  0  0  0  0  0  0  0  0  0  0
  1 22  2  0  0  0  0
  2 29  2  0  0  0  0
  3 32  2  0  0  0  0
  4 10  1  0  0  0  0
  4 11  1  0  0  0  0
  4 23  1  0  0  0  0
  5 12  1  0  0  0  0
  5 14  1  0  0  0  0
  5 22  1  0  0  0  0
  6 16  1  0  0  0  0
  6 17  1  0  0  0  0
  6 22  1  0  0  0  0
  7 29  1  0  0  0  0
  7 32  1  0  0  0  0
  7 61  1  0  0  0  0
  8 31  1  0  0  0  0
  8 34  1  0  0  0  0
  8 35  1  0  0  0  0
  9 33  1  0  0  0  0
  9 34  2  0  0  0  0
 10 13  2  0  0  0  0
 10 15  1  0  0  0  0
 11 12  1  0  0  0  0
 11 39  1  0  0  0  0
 11 40  1  0  0  0  0
 12 41  1  0  0  0  0
 12 42  1  0  0  0  0
 13 14  1  0  0  0  0
 13 24  1  0  0  0  0
 14 43  1  0  0  0  0
 14 44  1  0  0  0  0
 15 18  1  0  0  0  0
 15 25  2  0  0  0  0
 16 19  1  0  0  0  0
 16 45  1  0  0  0  0
 16 46  1  0  0  0  0
 17 20  1  0  0  0  0
 17 47  1  0  0  0  0
 17 48  1  0  0  0  0
 18 23  2  0  0  0  0
 18 26  1  0  0  0  0
 19 21  1  0  0  0  0
 19 49  1  0  0  0  0
 19 50  1  0  0  0  0
 20 21  1  0  0  0  0
 20 51  1  0  0  0  0
 20 52  1  0  0  0  0
 21 53  1  0  0  0  0
 21 54  1  0  0  0  0
 23 55  1  0  0  0  0
 24 27  2  0  0  0  0
 24 56  1  0  0  0  0
 25 27  1  0  0  0  0
 25 57  1  0  0  0  0
 26 28  2  0  0  0  0
 26 29  1  0  0  0  0
 27 30  1  0  0  0  0
 28 31  1  0  0  0  0
 28 32  1  0  0  0  0
 30 58  1  0  0  0  0
 30 59  1  0  0  0  0
 30 60  1  0  0  0  0
 31 33  2  0  0  0  0
 33 62  1  0  0  0  0
 34 36  1  0  0  0  0
 35 37  2  0  0  0  0
 35 63  1  0  0  0  0
 36 38  2  0  0  0  0
 36 64  1  0  0  0  0
 37 38  1  0  0  0  0
 37 65  1  0  0  0  0
 38 66  1  0  0  0  0
M  END
> <PUBCHEM_COMPOUND_CID>
44396134

> <PUBCHEM_CONFORMER_RMSD>
1

> <PUBCHEM_CONFORMER_DIVERSEORDER>
1
79
24
90
36
75
109
53
107
93
81
68
63
101
2
7
104
48
37
117
33
18
80
106
66
30
77
17
39
97
45
127
20
100
22
105
41
78
51
69
60
49
108
43
96
27
71
40
89
32
16
87
62
92
57
124
73
125
11
91
121
70
72
67
103
128
42
115
122
94
8
13
12
4
55
52
112
110
14
95
74
61
59
83
126
47
34
102
114
111
84
5
113
6
35
3
31
19
123
9
58
50
10
56
46
86
21
23
88
82
120
119
44
54
85
98
118
99
64
65
26
116
15
28
29
25
38
76

> <PUBCHEM_MMFF94_PARTIAL_CHARGES>
43
1 -0.57
10 -0.15
11 0.26
12 0.3
13 -0.14
14 0.44
16 0.3
17 0.3
18 -0.05
2 -0.57
22 0.69
23 -0.3
24 -0.15
25 -0.15
26 0.06
27 -0.14
28 0.06
29 0.62
3 -0.57
30 0.14
31 -0.2
32 0.62
33 0.08
34 0.14
35 -0.18
36 -0.11
37 -0.15
38 -0.15
4 0.05
5 -0.66
55 0.15
56 0.15
57 0.15
6 -0.66
61 0.37
62 0.15
63 0.15
64 0.15
65 0.15
66 0.15
7 -0.49
8 0.33
9 -0.57

> <PUBCHEM_EFFECTIVE_ROTOR_COUNT>
6.2

> <PUBCHEM_PHARMACOPHORE_FEATURES>
13
1 1 acceptor
1 2 acceptor
1 3 acceptor
1 4 cation
1 7 donor
3 8 9 34 cation
5 4 10 15 18 23 rings
5 7 26 28 29 32 rings
5 8 9 31 33 34 rings
6 10 13 15 24 25 27 rings
6 6 16 17 19 20 21 rings
6 8 34 35 36 37 38 rings
7 4 5 10 11 12 13 14 rings

> <PUBCHEM_HEAVY_ATOM_COUNT>
38

> <PUBCHEM_ATOM_DEF_STEREO_COUNT>
0

> <PUBCHEM_ATOM_UDEF_STEREO_COUNT>
0

> <PUBCHEM_BOND_DEF_STEREO_COUNT>
0

> <PUBCHEM_BOND_UDEF_STEREO_COUNT>
0

> <PUBCHEM_ISOTOPIC_ATOM_COUNT>
0

> <PUBCHEM_COMPONENT_COUNT>
1

> <PUBCHEM_CACTVS_TAUTO_COUNT>
3

> <PUBCHEM_CONFORMER_ID>
02A56E6600000001

> <PUBCHEM_MMFF94_ENERGY>
94.8924

> <PUBCHEM_FEATURE_SELFOVERLAP>
66.22

> <PUBCHEM_SHAPE_FINGERPRINT>
10165383 225 17977384160120582004
11513181 2 18272655700460790335
11578080 2 18337123361426286226
12128747 34 18341617001330218523
12422481 6 17821445751380386725
13383661 66 13192341153312578856
13512321 179 17843133506553853281
14739800 52 18342746251391134701
14790565 3 17977951503277382180
14840074 17 17242448554231632660
151778 21 18266448988119377478
15238133 3 18131347523274535648
15840311 113 18409453545092443317
16112460 7 18186803603528117363
22122407 14 18202006529752572417
3117164 225 18338517439576147469
3493558 16 18342182137279712129
350125 39 18261948661499855102
392239 28 17967802834553083634
4144715 1 18340779152248802883
5104073 3 18114177579095741035
5252454 2 17978779431685815076
6703917 75 17974862971368618804

> <PUBCHEM_SHAPE_MULTIPOLES>
734.53
14.33
5.02
1.98
13.54
0.91
1.35
7.35
-5.31
-3.5
-0.66
-0.15
1.21
-0.78

> <PUBCHEM_SHAPE_SELFOVERLAP>
1645.996

> <PUBCHEM_SHAPE_VOLUME>
387.5

> <PUBCHEM_COORDINATE_TYPE>
2
5
10

$$$$
