135444905
  -OEChem-10062122033D

 17 18  0     0  0  0  0  0  0999 V2000
   -3.9303   -0.9447    0.0001 Br  0  0  0  0  0  0  0  0  0  0  0  0
    1.3457   -2.4382    0.0005 O   0  0  0  0  0  0  0  0  0  0  0  0
    2.5950   -0.4971   -0.0001 N   0  0  0  0  0  0  0  0  0  0  0  0
    1.5985    1.6478    0.0001 N   0  0  0  0  0  0  0  0  0  0  0  0
    0.1911   -0.3748   -0.0004 C   0  0  0  0  0  0  0  0  0  0  0  0
    0.3366    1.0219   -0.0002 C   0  0  0  0  0  0  0  0  0  0  0  0
   -1.0752   -0.9668   -0.0004 C   0  0  0  0  0  0  0  0  0  0  0  0
    1.4105   -1.2145    0.0000 C   0  0  0  0  0  0  0  0  0  0  0  0
   -0.8145    1.8167    0.0001 C   0  0  0  0  0  0  0  0  0  0  0  0
   -2.2109   -0.1585   -0.0001 C   0  0  0  0  0  0  0  0  0  0  0  0
   -2.0815    1.2299    0.0004 C   0  0  0  0  0  0  0  0  0  0  0  0
    2.6350    0.8782    0.0002 C   0  0  0  0  0  0  0  0  0  0  0  0
   -1.1778   -2.0490   -0.0006 H   0  0  0  0  0  0  0  0  0  0  0  0
   -0.7314    2.9009    0.0003 H   0  0  0  0  0  0  0  0  0  0  0  0
   -2.9589    1.8718    0.0008 H   0  0  0  0  0  0  0  0  0  0  0  0
    3.4704   -1.0125    0.0000 H   0  0  0  0  0  0  0  0  0  0  0  0
    3.6574    1.2852    0.0004 H   0  0  0  0  0  0  0  0  0  0  0  0
  1 10  1  0  0  0  0
  2  8  2  0  0  0  0
  3  8  1  0  0  0  0
  3 12  1  0  0  0  0
  3 16  1  0  0  0  0
  4  6  1  0  0  0  0
  4 12  2  0  0  0  0
  5  6  2  0  0  0  0
  5  7  1  0  0  0  0
  5  8  1  0  0  0  0
  6  9  1  0  0  0  0
  7 10  2  0  0  0  0
  7 13  1  0  0  0  0
  9 11  2  0  0  0  0
  9 14  1  0  0  0  0
 10 11  1  0  0  0  0
 11 15  1  0  0  0  0
 12 17  1  0  0  0  0
M  END
> <PUBCHEM_COMPOUND_CID>
135444905

> <PUBCHEM_CONFORMER_RMSD>
0.4

> <PUBCHEM_CONFORMER_DIVERSEORDER>
1

> <PUBCHEM_MMFF94_PARTIAL_CHARGES>
17
1 -0.11
10 0.11
11 -0.15
12 0.45
13 0.15
14 0.15
15 0.15
16 0.37
17 0.06
2 -0.57
3 -0.49
4 -0.63
5 0.09
6 0.18
7 -0.15
8 0.54
9 -0.15

> <PUBCHEM_EFFECTIVE_ROTOR_COUNT>
0

> <PUBCHEM_PHARMACOPHORE_FEATURES>
5
1 1 hydrophobe
1 2 acceptor
1 3 donor
6 3 4 5 6 8 12 rings
6 5 6 7 9 10 11 rings

> <PUBCHEM_HEAVY_ATOM_COUNT>
12

> <PUBCHEM_ATOM_DEF_STEREO_COUNT>
0

> <PUBCHEM_ATOM_UDEF_STEREO_COUNT>
0

> <PUBCHEM_BOND_DEF_STEREO_COUNT>
0

> <PUBCHEM_BOND_UDEF_STEREO_COUNT>
0

> <PUBCHEM_ISOTOPIC_ATOM_COUNT>
0

> <PUBCHEM_COMPONENT_COUNT>
1

> <PUBCHEM_CACTVS_TAUTO_COUNT>
-1

> <PUBCHEM_CONFORMER_ID>
0812B9A900000001

> <PUBCHEM_MMFF94_ENERGY>
28.8887

> <PUBCHEM_FEATURE_SELFOVERLAP>
25.402

> <PUBCHEM_SHAPE_FINGERPRINT>
10219947 1 18337955717867295697
10967382 1 18338797930662553287
11471102 20 18410288155600135453
12032990 46 18410017666970588619
12897270 3 18410011043840783517
13380535 76 18335980977450896363
14251717 144 18339919445787815855
14325111 11 18410575093390520833
161256 15 18411421700052996693
16945 1 18410573989472915621
17844478 74 18113341925063398125
17990270 104 18338235947013580554
193761 8 18194401095811405349
19973954 147 18267022760725804905
20201158 50 18334857242566137083
20588541 1 18263084473584516483
20645477 70 18412257333971505775
21040471 1 18122343742592280868
21501502 16 18337956679771327369
2334 1 17690279738987458311
23402655 69 18412536627035836093
23463225 33 18407757057851879728
23552423 10 18334861562939025525
23559900 14 17405425504233259006
241688 4 18048316639465785288
2748010 2 18194961846635887885
5084963 1 18273497887722990280
528886 8 18267298909884955482
581208 293 18340482386876690513
7364860 26 18271806783337341590
8809292 202 18115030808935669939

> <PUBCHEM_SHAPE_MULTIPOLES>
237.07
4.77
2.06
0.61
2.95
0.25
0
0.89
0
-0.55
0
0.09
0
0

> <PUBCHEM_SHAPE_SELFOVERLAP>
503.174

> <PUBCHEM_SHAPE_VOLUME>
136.3

> <PUBCHEM_COORDINATE_TYPE>
2
5
10

$$$$
