10380356
  -OEChem-10062122013D

 27 29  0     0  0  0  0  0  0999 V2000
    5.5120    1.0550   -0.1893 Br  0  0  0  0  0  0  0  0  0  0  0  0
    0.4235    2.1568    0.3225 O   0  0  0  0  0  0  0  0  0  0  0  0
    1.3792   -2.3719   -0.1851 N   0  0  0  0  0  0  0  0  0  0  0  0
   -2.2290   -0.0733   -0.9010 N   0  0  0  0  0  0  0  0  0  0  0  0
   -4.1359    0.5602    0.4293 N   0  0  0  0  0  0  0  0  0  0  0  0
   -4.1877    0.7325   -1.9101 N   0  0  0  0  0  0  0  0  0  0  0  0
    0.9928   -0.1878    0.0534 C   0  0  0  0  0  0  0  0  0  0  0  0
   -0.2468   -0.8857    0.0868 C   0  0  0  0  0  0  0  0  0  0  0  0
    1.9966   -1.1433   -0.1182 C   0  0  0  0  0  0  0  0  0  0  0  0
    0.0234   -2.2265   -0.0623 C   0  0  0  0  0  0  0  0  0  0  0  0
    1.3582    1.1694    0.1529 C   0  0  0  0  0  0  0  0  0  0  0  0
   -1.5851   -0.3910    0.2411 C   0  0  0  0  0  0  0  0  0  0  0  0
    3.3532   -0.8081   -0.1953 C   0  0  0  0  0  0  0  0  0  0  0  0
    2.7113    1.5195    0.0775 C   0  0  0  0  0  0  0  0  0  0  0  0
    3.6918    0.5441   -0.0940 C   0  0  0  0  0  0  0  0  0  0  0  0
   -2.1417   -0.2624    1.4970 C   0  0  0  0  0  0  0  0  0  0  0  0
   -3.4330    0.2229    1.5305 C   0  0  0  0  0  0  0  0  0  0  0  0
   -3.4828    0.3897   -0.7360 C   0  0  0  0  0  0  0  0  0  0  0  0
   -0.6222   -3.0939   -0.0930 H   0  0  0  0  0  0  0  0  0  0  0  0
    1.8583   -3.2534   -0.3073 H   0  0  0  0  0  0  0  0  0  0  0  0
    4.1068   -1.5781   -0.3287 H   0  0  0  0  0  0  0  0  0  0  0  0
    2.9888    2.5688    0.1554 H   0  0  0  0  0  0  0  0  0  0  0  0
   -1.6135   -0.5197    2.4068 H   0  0  0  0  0  0  0  0  0  0  0  0
   -3.9538    0.3587    2.4724 H   0  0  0  0  0  0  0  0  0  0  0  0
   -0.4663    1.7728    0.3112 H   0  0  0  0  0  0  0  0  0  0  0  0
   -3.7392    0.6223   -2.8090 H   0  0  0  0  0  0  0  0  0  0  0  0
   -5.1320    1.0850   -1.8379 H   0  0  0  0  0  0  0  0  0  0  0  0
  1 15  1  0  0  0  0
  2 11  1  0  0  0  0
  2 25  1  0  0  0  0
  3  9  1  0  0  0  0
  3 10  1  0  0  0  0
  3 20  1  0  0  0  0
  4 12  2  0  0  0  0
  4 18  1  0  0  0  0
  5 17  1  0  0  0  0
  5 18  2  0  0  0  0
  6 18  1  0  0  0  0
  6 26  1  0  0  0  0
  6 27  1  0  0  0  0
  7  8  1  0  0  0  0
  7  9  2  0  0  0  0
  7 11  1  0  0  0  0
  8 10  2  0  0  0  0
  8 12  1  0  0  0  0
  9 13  1  0  0  0  0
 10 19  1  0  0  0  0
 11 14  2  0  0  0  0
 12 16  1  0  0  0  0
 13 15  2  0  0  0  0
 13 21  1  0  0  0  0
 14 15  1  0  0  0  0
 14 22  1  0  0  0  0
 16 17  2  0  0  0  0
 16 23  1  0  0  0  0
 17 24  1  0  0  0  0
M  END
> <PUBCHEM_COMPOUND_CID>
10380356

> <PUBCHEM_CONFORMER_RMSD>
0.6

> <PUBCHEM_CONFORMER_DIVERSEORDER>
1
3
4
5
2

> <PUBCHEM_MMFF94_PARTIAL_CHARGES>
26
1 -0.11
10 -0.3
11 0.08
12 0.36
13 -0.15
14 -0.15
15 0.11
16 -0.15
17 0.16
18 0.72
19 0.15
2 -0.53
20 0.27
21 0.15
22 0.15
23 0.15
24 0.15
25 0.45
26 0.4
27 0.4
3 0.03
4 -0.62
5 -0.62
6 -0.9
8 -0.05
9 -0.15

> <PUBCHEM_EFFECTIVE_ROTOR_COUNT>
1

> <PUBCHEM_PHARMACOPHORE_FEATURES>
10
1 1 hydrophobe
1 2 donor
1 3 cation
1 3 donor
1 4 acceptor
1 6 donor
4 4 5 6 18 cation
5 3 7 8 9 10 rings
6 4 5 12 16 17 18 rings
6 7 9 11 13 14 15 rings

> <PUBCHEM_HEAVY_ATOM_COUNT>
18

> <PUBCHEM_ATOM_DEF_STEREO_COUNT>
0

> <PUBCHEM_ATOM_UDEF_STEREO_COUNT>
0

> <PUBCHEM_BOND_DEF_STEREO_COUNT>
0

> <PUBCHEM_BOND_UDEF_STEREO_COUNT>
0

> <PUBCHEM_ISOTOPIC_ATOM_COUNT>
0

> <PUBCHEM_COMPONENT_COUNT>
1

> <PUBCHEM_CACTVS_TAUTO_COUNT>
39

> <PUBCHEM_CONFORMER_ID>
009E644400000001

> <PUBCHEM_MMFF94_ENERGY>
45.5853

> <PUBCHEM_FEATURE_SELFOVERLAP>
50.837

> <PUBCHEM_SHAPE_FINGERPRINT>
10980938 120 18411982433956410378
11471102 20 18411418393286822878
11543360 7 15410896292628865088
12236239 1 17561086878190139507
12654215 9 18334290938211388172
12730499 353 18187925028886295447
12969540 114 18410568505274289884
13140716 1 18195530518182190384
13583140 156 17313098696018105688
13675066 3 17894633690710857384
14289901 80 16443356402496958554
15219456 202 18041001713239351195
15309172 13 18410299133035611466
15375358 24 18113614564828157333
15653759 3 17240488017608813641
16945 1 18340773654489911218
1813 80 17340423531533285262
18186145 218 18342464746185778278
18219364 16 18335707173517508203
19049666 15 17678740029689210315
200 152 18060415824711215783
204376 136 18410016563179993234
20645477 70 18338796710860628166
21524375 3 18337956812778494794
21639500 275 18341325647912850835
231179 274 18186518804557942846
23402539 116 17632582656003866776
23402655 69 18272083873036366261
23493267 7 17531242868200121552
23557571 272 17023479550939513311
23559900 14 16733831852866024898
25 1 18410856559756029006
2748010 2 18196945580846284450
293599 30 18337958982454092236
34934 24 18339639040679675618
350125 39 18050577535919983050
4072396 5 18263627525318407162
474 4 18343025509858362824
633830 44 18058748934623175518
77492 1 17561082462916500779
81228 2 16753804266429821522

> <PUBCHEM_SHAPE_MULTIPOLES>
350.58
8.83
1.88
1.12
2.54
0.64
0.06
-3.85
1.05
1.06
0.07
-1.68
-0.2
0.38

> <PUBCHEM_SHAPE_SELFOVERLAP>
769.959

> <PUBCHEM_SHAPE_VOLUME>
196.2

> <PUBCHEM_COORDINATE_TYPE>
2
5
10

$$$$
