53324451
  -OEChem-10052115143D

 49 50  0     1  0  0  0  0  0999 V2000
   -2.8466   -3.9802   -0.5142 O   0  0  0  0  0  0  0  0  0  0  0  0
    0.0303    2.0597    0.0372 O   0  0  0  0  0  0  0  0  0  0  0  0
    4.7601   -1.8298   -0.7732 O   0  0  0  0  0  0  0  0  0  0  0  0
    2.7491    2.4276   -0.1897 O   0  0  0  0  0  0  0  0  0  0  0  0
   -4.2561   -0.0509    0.4247 O   0  0  0  0  0  0  0  0  0  0  0  0
    0.1078    1.3483    2.2400 O   0  0  0  0  0  0  0  0  0  0  0  0
   -2.0361   -2.3211    1.0448 C   0  0  0  0  0  0  0  0  0  0  0  0
   -0.7239   -1.9198    0.3647 C   0  0  0  0  0  0  0  0  0  0  0  0
   -3.1582   -2.7140    0.0708 C   0  0  1  0  0  0  0  0  0  0  0  0
    0.3772   -1.6601    1.3967 C   0  0  0  0  0  0  0  0  0  0  0  0
    1.5489   -0.9350    0.7781 C   0  0  0  0  0  0  0  0  0  0  0  0
   -3.4055   -1.7352   -1.0786 C   0  0  0  0  0  0  0  0  0  0  0  0
    1.5793    0.4603    0.5946 C   0  0  0  0  0  0  0  0  0  0  0  0
    2.6333   -1.6912    0.3036 C   0  0  0  0  0  0  0  0  0  0  0  0
   -0.9947    3.0399    0.3129 C   0  0  2  0  0  0  0  0  0  0  0  0
   -3.6829   -0.3147   -0.6281 C   0  0  0  0  0  0  0  0  0  0  0  0
   -2.3940    2.4101    0.1712 C   0  0  0  0  0  0  0  0  0  0  0  0
    2.6726    1.0767   -0.0299 C   0  0  0  0  0  0  0  0  0  0  0  0
    0.4907    1.3277    1.0832 C   0  0  0  0  0  0  0  0  0  0  0  0
    3.7202   -1.0761   -0.3207 C   0  0  0  0  0  0  0  0  0  0  0  0
   -3.2671    0.7533   -1.5769 C   0  0  0  0  0  0  0  0  0  0  0  0
    3.7396    0.3059   -0.4865 C   0  0  0  0  0  0  0  0  0  0  0  0
   -2.7308    1.9263   -1.2141 C   0  0  0  0  0  0  0  0  0  0  0  0
   -0.7521    4.2305   -0.6091 C   0  0  0  0  0  0  0  0  0  0  0  0
    5.8387   -1.1383   -1.4014 C   0  0  0  0  0  0  0  0  0  0  0  0
   -1.8384   -3.1722    1.7091 H   0  0  0  0  0  0  0  0  0  0  0  0
   -2.3750   -1.4933    1.6787 H   0  0  0  0  0  0  0  0  0  0  0  0
   -0.8873   -1.0171   -0.2342 H   0  0  0  0  0  0  0  0  0  0  0  0
   -0.3979   -2.7043   -0.3291 H   0  0  0  0  0  0  0  0  0  0  0  0
   -4.0796   -2.8457    0.6508 H   0  0  0  0  0  0  0  0  0  0  0  0
   -0.0086   -1.0926    2.2496 H   0  0  0  0  0  0  0  0  0  0  0  0
    0.7117   -2.6153    1.8221 H   0  0  0  0  0  0  0  0  0  0  0  0
   -4.2689   -2.0704   -1.6671 H   0  0  0  0  0  0  0  0  0  0  0  0
   -2.5524   -1.7465   -1.7682 H   0  0  0  0  0  0  0  0  0  0  0  0
    2.6297   -2.7737    0.4148 H   0  0  0  0  0  0  0  0  0  0  0  0
   -0.8854    3.4028    1.3434 H   0  0  0  0  0  0  0  0  0  0  0  0
   -2.4624    1.5868    0.8892 H   0  0  0  0  0  0  0  0  0  0  0  0
   -3.1449    3.1557    0.4593 H   0  0  0  0  0  0  0  0  0  0  0  0
   -3.6022   -4.2433   -1.0669 H   0  0  0  0  0  0  0  0  0  0  0  0
   -3.4011    0.5303   -2.6314 H   0  0  0  0  0  0  0  0  0  0  0  0
    4.5624    0.8305   -0.9607 H   0  0  0  0  0  0  0  0  0  0  0  0
   -2.5119    2.6172   -2.0258 H   0  0  0  0  0  0  0  0  0  0  0  0
   -1.5409    4.9817   -0.5080 H   0  0  0  0  0  0  0  0  0  0  0  0
    0.2063    4.7017   -0.3626 H   0  0  0  0  0  0  0  0  0  0  0  0
   -0.6760    3.9258   -1.6577 H   0  0  0  0  0  0  0  0  0  0  0  0
    3.5803    2.6583   -0.6384 H   0  0  0  0  0  0  0  0  0  0  0  0
    5.5144   -0.6332   -2.3176 H   0  0  0  0  0  0  0  0  0  0  0  0
    6.3406   -0.4574   -0.7055 H   0  0  0  0  0  0  0  0  0  0  0  0
    6.5761   -1.8918   -1.6972 H   0  0  0  0  0  0  0  0  0  0  0  0
  1  9  1  0  0  0  0
  1 39  1  0  0  0  0
  2 15  1  0  0  0  0
  2 19  1  0  0  0  0
  3 20  1  0  0  0  0
  3 25  1  0  0  0  0
  4 18  1  0  0  0  0
  4 46  1  0  0  0  0
  5 16  2  0  0  0  0
  6 19  2  0  0  0  0
  7  8  1  0  0  0  0
  7  9  1  0  0  0  0
  7 26  1  0  0  0  0
  7 27  1  0  0  0  0
  8 10  1  0  0  0  0
  8 28  1  0  0  0  0
  8 29  1  0  0  0  0
  9 12  1  0  0  0  0
  9 30  1  0  0  0  0
 10 11  1  0  0  0  0
 10 31  1  0  0  0  0
 10 32  1  0  0  0  0
 11 13  2  0  0  0  0
 11 14  1  0  0  0  0
 12 16  1  0  0  0  0
 12 33  1  0  0  0  0
 12 34  1  0  0  0  0
 13 18  1  0  0  0  0
 13 19  1  0  0  0  0
 14 20  2  0  0  0  0
 14 35  1  0  0  0  0
 15 17  1  0  0  0  0
 15 24  1  0  0  0  0
 15 36  1  0  0  0  0
 16 21  1  0  0  0  0
 17 23  1  0  0  0  0
 17 37  1  0  0  0  0
 17 38  1  0  0  0  0
 18 22  2  0  0  0  0
 20 22  1  0  0  0  0
 21 23  2  0  0  0  0
 21 40  1  0  0  0  0
 22 41  1  0  0  0  0
 23 42  1  0  0  0  0
 24 43  1  0  0  0  0
 24 44  1  0  0  0  0
 24 45  1  0  0  0  0
 25 47  1  0  0  0  0
 25 48  1  0  0  0  0
 25 49  1  0  0  0  0
M  END
> <PUBCHEM_COMPOUND_CID>
53324451

> <PUBCHEM_CONFORMER_RMSD>
0.6

> <PUBCHEM_CONFORMER_DIVERSEORDER>
3
13
7
17
5
16
6
14
9
2
8
1
11
12
10
4
15

> <PUBCHEM_MMFF94_PARTIAL_CHARGES>
28
1 -0.68
10 0.14
11 -0.14
12 0.06
13 0.09
14 -0.15
15 0.28
16 0.49
17 0.14
18 0.08
19 0.63
2 -0.43
20 0.08
21 -0.14
22 -0.15
23 -0.29
25 0.28
3 -0.36
35 0.15
39 0.4
4 -0.53
40 0.15
41 0.15
42 0.15
46 0.45
5 -0.57
6 -0.57
9 0.28

> <PUBCHEM_EFFECTIVE_ROTOR_COUNT>
2.6

> <PUBCHEM_PHARMACOPHORE_FEATURES>
7
1 1 acceptor
1 1 donor
1 3 acceptor
1 4 donor
1 5 acceptor
1 6 acceptor
6 11 13 14 18 20 22 rings

> <PUBCHEM_HEAVY_ATOM_COUNT>
25

> <PUBCHEM_ATOM_DEF_STEREO_COUNT>
2

> <PUBCHEM_ATOM_UDEF_STEREO_COUNT>
0

> <PUBCHEM_BOND_DEF_STEREO_COUNT>
1

> <PUBCHEM_BOND_UDEF_STEREO_COUNT>
0

> <PUBCHEM_ISOTOPIC_ATOM_COUNT>
0

> <PUBCHEM_COMPONENT_COUNT>
1

> <PUBCHEM_CACTVS_TAUTO_COUNT>
65

> <PUBCHEM_CONFORMER_ID>
032DAAA300000003

> <PUBCHEM_MMFF94_ENERGY>
72.3393

> <PUBCHEM_FEATURE_SELFOVERLAP>
35.523

> <PUBCHEM_SHAPE_FINGERPRINT>
10498660 4 17897143901448168367
10577160 183 17606124975516222766
10674148 151 17344342255082053097
10759866 29 17678171594698873699
11578080 2 17632568379653674354
116883 192 18411984659050026650
12035759 4 18261109613314942034
12054548 360 18337102483922400875
12156800 1 11623547908836436451
12553582 1 18337378405770252353
12788726 201 18335983043635867778
13642711 20 17762069031104374308
13941206 138 17823422599719224571
14114206 34 18192970682802418093
14114211 80 16244096596336925037
14251740 79 18338240353792600418
14251745 187 18192701470020464953
14251751 93 18265330616572799717
14251757 17 18411419471192193614
14251757 5 18410296869667338142
14289585 56 16736935684196981542
14363568 33 17687205474332265451
14931854 50 18263632983863326615
15210252 30 17968088793475736277
17357779 13 18202281394643017818
17492 54 18115585916109620221
17909252 39 18271531991651522878
19930381 70 17400356149621428615
20775438 99 17120246706392254167
21141583 151 18409442626547033649
21634736 98 18410005525018960612
221357 26 18337951298325485879
22907989 373 17970941966426201316
23379529 103 18272658952183543430
23419403 2 17489292106217857754
23559900 14 18341324553076388424
23566358 2 18410293657437683668
2818148 4 17682710628407803291
3117164 225 9583250384004545476
5283173 99 18409445878438474952
6287921 2 17689716785150688923
9709674 26 18412538838500952988
9862886 166 18412261714811370990

> <PUBCHEM_SHAPE_MULTIPOLES>
479.27
8.62
4.51
1.37
7.69
1.43
0.16
-4.41
-4.6
-3.7
-0.21
-0.03
-0.01
0.56

> <PUBCHEM_SHAPE_SELFOVERLAP>
993.839

> <PUBCHEM_SHAPE_VOLUME>
270.7

> <PUBCHEM_COORDINATE_TYPE>
2
5
10

$$$$
