49830475
  -OEChem-10052115193D

 48 52  0     0  0  0  0  0  0999 V2000
   -5.1488    5.5887    0.3789 Cl  0  0  0  0  0  0  0  0  0  0  0  0
   -5.3555   -1.0240   -0.3639 O   0  0  0  0  0  0  0  0  0  0  0  0
    3.9853   -0.4702    0.9580 N   0  0  0  0  0  0  0  0  0  0  0  0
   -2.5041   -4.1619   -0.4368 N   0  0  0  0  0  0  0  0  0  0  0  0
   -3.3525   -3.1204   -0.4230 N   0  0  0  0  0  0  0  0  0  0  0  0
   -3.0241   -0.7760   -0.1490 N   0  0  0  0  0  0  0  0  0  0  0  0
    3.6653   -2.2941   -0.1367 N   0  0  0  0  0  0  0  0  0  0  0  0
    4.5991   -1.4314    0.2490 N   0  0  0  0  0  0  0  0  0  0  0  0
   -1.1904   -2.4354   -0.1170 C   0  0  0  0  0  0  0  0  0  0  0  0
   -1.1910   -3.8186   -0.2579 C   0  0  0  0  0  0  0  0  0  0  0  0
    1.2061   -2.5196    0.1364 C   0  0  0  0  0  0  0  0  0  0  0  0
    0.0275   -1.7648    0.0844 C   0  0  0  0  0  0  0  0  0  0  0  0
   -2.5497   -2.0717   -0.2287 C   0  0  0  0  0  0  0  0  0  0  0  0
    2.4630   -1.8544    0.3432 C   0  0  0  0  0  0  0  0  0  0  0  0
   -0.0278   -4.5899   -0.2094 C   0  0  0  0  0  0  0  0  0  0  0  0
    1.1767   -3.9079   -0.0081 C   0  0  0  0  0  0  0  0  0  0  0  0
    4.7374    0.6228    1.5194 C   0  0  0  0  0  0  0  0  0  0  0  0
    2.6451   -0.6898    1.0459 C   0  0  0  0  0  0  0  0  0  0  0  0
    5.1015    1.6803    0.5069 C   0  0  0  0  0  0  0  0  0  0  0  0
   -4.3578   -0.3259   -0.2178 C   0  0  0  0  0  0  0  0  0  0  0  0
    6.1588    1.4657   -0.3771 C   0  0  0  0  0  0  0  0  0  0  0  0
    4.3800    2.8729    0.4547 C   0  0  0  0  0  0  0  0  0  0  0  0
   -4.5543    1.1401   -0.0708 C   0  0  0  0  0  0  0  0  0  0  0  0
    6.4947    2.4435   -1.3134 C   0  0  0  0  0  0  0  0  0  0  0  0
    4.7157    3.8507   -0.4817 C   0  0  0  0  0  0  0  0  0  0  0  0
    5.7732    3.6360   -1.3656 C   0  0  0  0  0  0  0  0  0  0  0  0
   -5.7570    1.6359    0.4327 C   0  0  0  0  0  0  0  0  0  0  0  0
   -3.5352    2.0202   -0.4350 C   0  0  0  0  0  0  0  0  0  0  0  0
   -5.9408    3.0116    0.5716 C   0  0  0  0  0  0  0  0  0  0  0  0
   -3.7189    3.3959   -0.2961 C   0  0  0  0  0  0  0  0  0  0  0  0
   -4.9217    3.8916    0.2071 C   0  0  0  0  0  0  0  0  0  0  0  0
    0.0321   -0.6833    0.1839 H   0  0  0  0  0  0  0  0  0  0  0  0
   -0.0529   -5.6681   -0.3211 H   0  0  0  0  0  0  0  0  0  0  0  0
    2.0940   -4.4922    0.0368 H   0  0  0  0  0  0  0  0  0  0  0  0
    5.6436    0.2073    1.9773 H   0  0  0  0  0  0  0  0  0  0  0  0
    4.1482    1.0538    2.3379 H   0  0  0  0  0  0  0  0  0  0  0  0
    1.9794   -0.0266    1.5813 H   0  0  0  0  0  0  0  0  0  0  0  0
   -2.8876   -5.0888   -0.5734 H   0  0  0  0  0  0  0  0  0  0  0  0
   -2.2947   -0.0920    0.0288 H   0  0  0  0  0  0  0  0  0  0  0  0
    6.7333    0.5438   -0.3444 H   0  0  0  0  0  0  0  0  0  0  0  0
    3.5526    3.0520    1.1360 H   0  0  0  0  0  0  0  0  0  0  0  0
    7.3188    2.2769   -2.0010 H   0  0  0  0  0  0  0  0  0  0  0  0
    4.1536    4.7791   -0.5229 H   0  0  0  0  0  0  0  0  0  0  0  0
    6.0348    4.3975   -2.0945 H   0  0  0  0  0  0  0  0  0  0  0  0
   -6.5616    0.9673    0.7275 H   0  0  0  0  0  0  0  0  0  0  0  0
   -2.5971    1.6811   -0.8636 H   0  0  0  0  0  0  0  0  0  0  0  0
   -6.8828    3.3837    0.9663 H   0  0  0  0  0  0  0  0  0  0  0  0
   -2.9193    4.0706   -0.5911 H   0  0  0  0  0  0  0  0  0  0  0  0
  1 31  1  0  0  0  0
  2 20  2  0  0  0  0
  3  8  1  0  0  0  0
  3 17  1  0  0  0  0
  3 18  1  0  0  0  0
  4  5  1  0  0  0  0
  4 10  1  0  0  0  0
  4 38  1  0  0  0  0
  5 13  2  0  0  0  0
  6 13  1  0  0  0  0
  6 20  1  0  0  0  0
  6 39  1  0  0  0  0
  7  8  2  0  0  0  0
  7 14  1  0  0  0  0
  9 10  2  0  0  0  0
  9 12  1  0  0  0  0
  9 13  1  0  0  0  0
 10 15  1  0  0  0  0
 11 12  2  0  0  0  0
 11 14  1  0  0  0  0
 11 16  1  0  0  0  0
 12 32  1  0  0  0  0
 14 18  2  0  0  0  0
 15 16  2  0  0  0  0
 15 33  1  0  0  0  0
 16 34  1  0  0  0  0
 17 19  1  0  0  0  0
 17 35  1  0  0  0  0
 17 36  1  0  0  0  0
 18 37  1  0  0  0  0
 19 21  2  0  0  0  0
 19 22  1  0  0  0  0
 20 23  1  0  0  0  0
 21 24  1  0  0  0  0
 21 40  1  0  0  0  0
 22 25  2  0  0  0  0
 22 41  1  0  0  0  0
 23 27  2  0  0  0  0
 23 28  1  0  0  0  0
 24 26  2  0  0  0  0
 24 42  1  0  0  0  0
 25 26  1  0  0  0  0
 25 43  1  0  0  0  0
 26 44  1  0  0  0  0
 27 29  1  0  0  0  0
 27 45  1  0  0  0  0
 28 30  2  0  0  0  0
 28 46  1  0  0  0  0
 29 31  2  0  0  0  0
 29 47  1  0  0  0  0
 30 31  1  0  0  0  0
 30 48  1  0  0  0  0
M  END
> <PUBCHEM_COMPOUND_CID>
49830475

> <PUBCHEM_CONFORMER_RMSD>
0.8

> <PUBCHEM_CONFORMER_DIVERSEORDER>
1
50
118
59
29
84
95
78
112
85
34
68
75
73
51
60
56
79
54
111
102
7
71
130
52
11
70
117
49
41
47
64
106
37
21
57
88
82
110
55
31
107
136
77
137
89
109
6
104
93
134
97
35
22
62
74
23
125
69
40
96
138
94
30
26
14
45
108
81
92
86
135
80
25
66
53
100
28
67
72
105
101
76
39
63
2
13
114
17
116
61
12
115
113
139
83
46
3
43
122
19
124
126
90
65
44
98
121
133
103
4
131
36
87
132
91
129
33
24
128
127
58
42
119
9
16
10
38
48
5
32
123
27
120
99
18
15
8
20

> <PUBCHEM_MMFF94_PARTIAL_CHARGES>
45
1 -0.18
10 -0.15
11 0.05
12 -0.15
13 0.35
14 0.17
15 -0.15
16 -0.15
17 0.4
18 -0.3
19 -0.14
2 -0.57
20 0.54
21 -0.15
22 -0.15
23 0.09
24 -0.15
25 -0.15
26 -0.15
27 -0.15
28 -0.15
29 -0.15
3 0.31
30 -0.15
31 0.18
32 0.15
33 0.15
34 0.15
37 0.15
38 0.27
39 0.37
4 0.3
40 0.15
41 0.15
42 0.15
43 0.15
44 0.15
45 0.15
46 0.15
47 0.15
48 0.15
5 -0.71
6 -0.49
7 -0.23
8 -0.42

> <PUBCHEM_EFFECTIVE_ROTOR_COUNT>
6

> <PUBCHEM_PHARMACOPHORE_FEATURES>
8
1 2 acceptor
1 4 donor
1 6 donor
5 3 7 8 14 18 rings
5 4 5 9 10 13 rings
6 19 21 22 24 25 26 rings
6 23 27 28 29 30 31 rings
6 9 10 11 12 15 16 rings

> <PUBCHEM_HEAVY_ATOM_COUNT>
31

> <PUBCHEM_ATOM_DEF_STEREO_COUNT>
0

> <PUBCHEM_ATOM_UDEF_STEREO_COUNT>
0

> <PUBCHEM_BOND_DEF_STEREO_COUNT>
0

> <PUBCHEM_BOND_UDEF_STEREO_COUNT>
0

> <PUBCHEM_ISOTOPIC_ATOM_COUNT>
0

> <PUBCHEM_COMPONENT_COUNT>
1

> <PUBCHEM_CACTVS_TAUTO_COUNT>
24

> <PUBCHEM_CONFORMER_ID>
02F85A4B00000001

> <PUBCHEM_MMFF94_ENERGY>
72.472

> <PUBCHEM_FEATURE_SELFOVERLAP>
40.69

> <PUBCHEM_SHAPE_FINGERPRINT>
100830 2 18261401095576768604
10883706 163 18260822692283088821
10917259 128 18050556637849779352
10917259 69 18409733963908613148
11059845 2 18123155058094334930
11273773 38 18410855421695671528
11410812 94 18120392097597687380
11761917 142 18196644323562186032
11801155 225 18115604758522864212
11828042 163 18197506134809296316
11828042 53 18265906925020815684
11973864 155 18128276505198797169
12107183 9 18263346046189784498
13627167 48 18270983279082047736
13944108 23 17980765930905740512
14251764 75 18410578370424018825
14347329 18 18339918333391020402
14747282 540 17400368840990878174
14790565 3 18410854352026599440
14849402 71 18121217584756000202
14932702 115 18059572524846810272
15274700 147 17396442953189402316
15320467 1 18339077206653691825
15400415 2 18339920403333999033
155225 5 18194963169808146456
16708801 149 18340188709734875449
16990350 14 18410570648431529818
18393751 57 18334299760723691179
19053607 189 18339069389628454504
19302320 297 18192713336788289792
20691028 202 18340201899822105489
21133410 127 18043251249453233636
21859007 373 17912917577413286960
22033318 11 18041827442899881936
23516275 100 17045407429124076329
23569914 152 10348004186434077038
245318 6 18114757000354257084
24893989 43 11855544647269870637
3146121 3 18412824661098105001
3146122 72 17537980487416680709
437795 171 18190453853321472677
437795 96 17898841345401524133
4487111 67 18267300009450065000
4756088 132 11568193807380268833
50080093 196 17823128102770865712
5047190 36 18187093844634443476
5047190 48 18408600340347468276
5219985 13 18342172254554994167
53794403 172 18267587905423364927
550186 7 18129384967511608790
550186 72 18050565437393164727
5951187 136 18127982909913333310
59584819 99 16613649515882843305
6036956 94 18409160005558198237
6058803 2 18264465413061732970
6176135 31 18266169531123928713
636783 38 14811613368152939001
6608658 132 17910946169247820654
6673363 416 17327753193942890420
7808743 9 18411131480528633522
9849439 229 18408889512221889519

> <PUBCHEM_SHAPE_MULTIPOLES>
604.08
17.47
8.33
0.95
4.45
1.17
0.05
25.93
-0.77
-4.82
-1.11
1.2
0.48
-2.84

> <PUBCHEM_SHAPE_SELFOVERLAP>
1338.445

> <PUBCHEM_SHAPE_VOLUME>
323.5

> <PUBCHEM_COORDINATE_TYPE>
2
5
10

$$$$
