11428396
  -OEChem-10062121593D

 43 46  0     0  0  0  0  0  0999 V2000
    6.9755    1.2924    2.3388 F   0  0  0  0  0  0  0  0  0  0  0  0
    2.6615    0.2112    0.9117 O   0  0  0  0  0  0  0  0  0  0  0  0
   -6.4759    1.5831   -0.1168 N   0  0  0  0  0  0  0  0  0  0  0  0
   -5.5654    2.3685   -0.7159 N   0  0  0  0  0  0  0  0  0  0  0  0
    1.6544   -0.7483   -0.9737 N   0  0  0  0  0  0  0  0  0  0  0  0
   -3.2379    2.0509   -1.1278 N   0  0  0  0  0  0  0  0  0  0  0  0
    3.9492   -0.4919   -0.9095 N   0  0  0  0  0  0  0  0  0  0  0  0
   -4.6287    0.4072    0.0005 C   0  0  0  0  0  0  0  0  0  0  0  0
   -3.8232   -0.6941    0.3348 C   0  0  0  0  0  0  0  0  0  0  0  0
   -5.9778    0.3912    0.3359 C   0  0  0  0  0  0  0  0  0  0  0  0
   -2.4197   -0.7071   -0.0007 C   0  0  0  0  0  0  0  0  0  0  0  0
   -4.4428    1.6499   -0.6425 C   0  0  0  0  0  0  0  0  0  0  0  0
   -4.4129   -1.7769    0.9991 C   0  0  0  0  0  0  0  0  0  0  0  0
   -6.5854   -0.6779    0.9979 C   0  0  0  0  0  0  0  0  0  0  0  0
   -1.9967   -1.2248   -1.2271 C   0  0  0  0  0  0  0  0  0  0  0  0
   -1.4784   -0.2033    0.9001 C   0  0  0  0  0  0  0  0  0  0  0  0
   -5.7706   -1.7670    1.3240 C   0  0  0  0  0  0  0  0  0  0  0  0
    0.2975   -0.7347   -0.6494 C   0  0  0  0  0  0  0  0  0  0  0  0
   -0.6400   -1.2387   -1.5510 C   0  0  0  0  0  0  0  0  0  0  0  0
   -0.1217   -0.2170    0.5763 C   0  0  0  0  0  0  0  0  0  0  0  0
    2.7517   -0.2890   -0.2049 C   0  0  0  0  0  0  0  0  0  0  0  0
    5.2656   -0.1745   -0.4992 C   0  0  0  0  0  0  0  0  0  0  0  0
    5.4666    0.4111    0.7400 C   0  0  0  0  0  0  0  0  0  0  0  0
    6.3256   -0.4546   -1.3457 C   0  0  0  0  0  0  0  0  0  0  0  0
    6.7642    0.7253    1.1440 C   0  0  0  0  0  0  0  0  0  0  0  0
    7.6230   -0.1405   -0.9418 C   0  0  0  0  0  0  0  0  0  0  0  0
    7.8424    0.4494    0.3030 C   0  0  0  0  0  0  0  0  0  0  0  0
   -3.8166   -2.6454    1.2719 H   0  0  0  0  0  0  0  0  0  0  0  0
   -7.6400   -0.6685    1.2494 H   0  0  0  0  0  0  0  0  0  0  0  0
   -2.7140   -1.6212   -1.9420 H   0  0  0  0  0  0  0  0  0  0  0  0
   -1.7893    0.2041    1.8595 H   0  0  0  0  0  0  0  0  0  0  0  0
   -6.2035   -2.6205    1.8398 H   0  0  0  0  0  0  0  0  0  0  0  0
   -7.4276    1.9212   -0.0485 H   0  0  0  0  0  0  0  0  0  0  0  0
   -0.3275   -1.6447   -2.5097 H   0  0  0  0  0  0  0  0  0  0  0  0
    0.5401    0.1911    1.3266 H   0  0  0  0  0  0  0  0  0  0  0  0
    1.8821   -1.1408   -1.8839 H   0  0  0  0  0  0  0  0  0  0  0  0
   -3.1328    2.9510   -1.5863 H   0  0  0  0  0  0  0  0  0  0  0  0
   -2.3834    1.5112   -1.0749 H   0  0  0  0  0  0  0  0  0  0  0  0
    3.8698   -0.9189   -1.8290 H   0  0  0  0  0  0  0  0  0  0  0  0
    4.6892    0.6565    1.4476 H   0  0  0  0  0  0  0  0  0  0  0  0
    6.1658   -0.9136   -2.3174 H   0  0  0  0  0  0  0  0  0  0  0  0
    8.4627   -0.3550   -1.5965 H   0  0  0  0  0  0  0  0  0  0  0  0
    8.8526    0.6942    0.6177 H   0  0  0  0  0  0  0  0  0  0  0  0
  1 25  1  0  0  0  0
  2 21  2  0  0  0  0
  3  4  1  0  0  0  0
  3 10  1  0  0  0  0
  3 33  1  0  0  0  0
  4 12  2  0  0  0  0
  5 18  1  0  0  0  0
  5 21  1  0  0  0  0
  5 36  1  0  0  0  0
  6 12  1  0  0  0  0
  6 37  1  0  0  0  0
  6 38  1  0  0  0  0
  7 21  1  0  0  0  0
  7 22  1  0  0  0  0
  7 39  1  0  0  0  0
  8  9  2  0  0  0  0
  8 10  1  0  0  0  0
  8 12  1  0  0  0  0
  9 11  1  0  0  0  0
  9 13  1  0  0  0  0
 10 14  2  0  0  0  0
 11 15  2  0  0  0  0
 11 16  1  0  0  0  0
 13 17  2  0  0  0  0
 13 28  1  0  0  0  0
 14 17  1  0  0  0  0
 14 29  1  0  0  0  0
 15 19  1  0  0  0  0
 15 30  1  0  0  0  0
 16 20  2  0  0  0  0
 16 31  1  0  0  0  0
 17 32  1  0  0  0  0
 18 19  2  0  0  0  0
 18 20  1  0  0  0  0
 19 34  1  0  0  0  0
 20 35  1  0  0  0  0
 22 23  2  0  0  0  0
 22 24  1  0  0  0  0
 23 25  1  0  0  0  0
 23 40  1  0  0  0  0
 24 26  2  0  0  0  0
 24 41  1  0  0  0  0
 25 27  2  0  0  0  0
 26 27  1  0  0  0  0
 26 42  1  0  0  0  0
 27 43  1  0  0  0  0
M  END
> <PUBCHEM_COMPOUND_CID>
11428396

> <PUBCHEM_CONFORMER_RMSD>
0.8

> <PUBCHEM_CONFORMER_DIVERSEORDER>
1
11
7
18
13
10
12
15
9
3
17
2
14
16
8
5
4
6

> <PUBCHEM_MMFF94_PARTIAL_CHARGES>
40
1 -0.19
10 -0.15
12 0.37
13 -0.15
14 -0.15
15 -0.15
16 -0.15
17 -0.15
18 0.12
19 -0.15
2 -0.57
20 -0.15
21 0.69
22 0.12
23 -0.15
24 -0.15
25 0.19
26 -0.15
27 -0.15
28 0.15
29 0.15
3 0.3
30 0.15
31 0.15
32 0.15
33 0.27
34 0.15
35 0.15
36 0.37
37 0.4
38 0.4
39 0.37
4 -0.71
40 0.15
41 0.15
42 0.15
43 0.15
5 -0.55
6 -0.88
7 -0.55

> <PUBCHEM_EFFECTIVE_ROTOR_COUNT>
5

> <PUBCHEM_PHARMACOPHORE_FEATURES>
10
1 2 acceptor
1 3 donor
1 5 donor
1 6 donor
1 7 donor
3 4 6 12 cation
5 3 4 8 10 12 rings
6 11 15 16 18 19 20 rings
6 22 23 24 25 26 27 rings
6 8 9 10 13 14 17 rings

> <PUBCHEM_HEAVY_ATOM_COUNT>
27

> <PUBCHEM_ATOM_DEF_STEREO_COUNT>
0

> <PUBCHEM_ATOM_UDEF_STEREO_COUNT>
0

> <PUBCHEM_BOND_DEF_STEREO_COUNT>
0

> <PUBCHEM_BOND_UDEF_STEREO_COUNT>
0

> <PUBCHEM_ISOTOPIC_ATOM_COUNT>
0

> <PUBCHEM_COMPONENT_COUNT>
1

> <PUBCHEM_CACTVS_TAUTO_COUNT>
21

> <PUBCHEM_CONFORMER_ID>
00AE622C00000001

> <PUBCHEM_MMFF94_ENERGY>
81.4663

> <PUBCHEM_FEATURE_SELFOVERLAP>
50.887

> <PUBCHEM_SHAPE_FINGERPRINT>
10 15 18412543245495893490
10066227 112 17704069608070789696
10299344 5 16732703861536319202
10319926 262 18260546766050293753
10411042 1 17899428764695974339
10554248 39 16128661856029753852
11135926 11 16773802467499587566
11315181 36 12679459781692505195
12091667 2 18411702101799852671
12166972 35 15719395061995518006
12236239 1 16732706051779755519
13403585 85 18334297561314702709
13533116 47 15213012761800058944
13668630 136 8646773305075559840
13911987 19 17346312658008771197
14028597 1 16805597024129496824
14251764 18 16660366995739689614
14598715 104 18342446024297273880
14849402 71 17096100206911658772
14856354 85 17822017544576771259
14933364 13 18407763638179484268
15021287 119 15864076476895210495
15119646 104 14405194924184131100
15183329 4 16081088195213423730
15328684 2 17168413875426807464
15352257 5 9367351435799197428
15419008 47 18343018887383686000
15716309 27 15357695288325868662
1577012 14 17022624169753329556
15849732 13 18272092707900028420
17780758 139 17240486927309762131
19377110 9 16660638540646413032
20281389 69 18131633391897275338
21033648 29 18272362075158229137
21130935 74 17676203559659879562
21150785 3 15482666888103664045
21315759 40 16153430575168000802
21792961 116 18130231459043351814
21859007 373 18342451505108105572
23081809 10 16660366995692327350
23522609 53 16299253249278111190
23559900 14 18118418254480467511
23576562 1 17703210928245072445
2838139 119 16343986905391885112
328310 630 16558470889216790992
3663271 9 17530962480124151152
397830 11 18128538369670818746
4073 2 17603877697406055274
504843 32 16916780842162158958
5758199 1 16877665673597165850
58083652 198 15285642135236692006
58260988 114 14057587720856614473
58902169 19 14405182876769463736
636775 72 18340207385070927073
6669772 16 17417823802672724335
6691757 9 17821455664803138067
9953998 17 18201729479220527835

> <PUBCHEM_SHAPE_MULTIPOLES>
517.6
23.83
1.65
1.45
29.94
0.64
0.2
5.12
5.36
-3.77
-0.15
1.58
-0.07
2.48

> <PUBCHEM_SHAPE_SELFOVERLAP>
1156.746

> <PUBCHEM_SHAPE_VOLUME>
275.3

> <PUBCHEM_COORDINATE_TYPE>
2
5
10

$$$$
