49830480
  -OEChem-10062121553D

 42 44  0     1  0  0  0  0  0999 V2000
    4.4581    2.5310    2.8631 Cl  0  0  0  0  0  0  0  0  0  0  0  0
    6.1702    1.7648   -2.1981 Cl  0  0  0  0  0  0  0  0  0  0  0  0
    2.8072   -3.8927    0.6875 O   0  0  0  0  0  0  0  0  0  0  0  0
    1.1046   -0.8867   -2.1157 O   0  0  0  0  0  0  0  0  0  0  0  0
    1.4406   -1.2534    0.1491 N   0  0  0  0  0  0  0  0  0  0  0  0
   -7.5009    0.9036    0.5334 N   0  0  0  0  0  0  0  0  0  0  0  0
    2.8489   -1.5661    0.0613 C   0  0  1  0  0  0  0  0  0  0  0  0
    3.6847   -0.3076    0.1528 C   0  0  0  0  0  0  0  0  0  0  0  0
    3.2386   -2.6052    1.1160 C   0  0  0  0  0  0  0  0  0  0  0  0
    0.6490   -0.9298   -0.9591 C   0  0  0  0  0  0  0  0  0  0  0  0
   -0.7475   -0.6153   -0.7035 C   0  0  0  0  0  0  0  0  0  0  0  0
    4.4528    0.1012   -0.9374 C   0  0  0  0  0  0  0  0  0  0  0  0
    3.6867    0.4438    1.3281 C   0  0  0  0  0  0  0  0  0  0  0  0
   -3.4268   -0.0124   -0.2132 C   0  0  0  0  0  0  0  0  0  0  0  0
   -1.4434    0.2253   -1.5723 C   0  0  0  0  0  0  0  0  0  0  0  0
   -1.3911   -1.1544    0.4104 C   0  0  0  0  0  0  0  0  0  0  0  0
    4.4566    1.6038    1.4131 C   0  0  0  0  0  0  0  0  0  0  0  0
    5.2227    1.2612   -0.8524 C   0  0  0  0  0  0  0  0  0  0  0  0
   -2.7830    0.5268   -1.3271 C   0  0  0  0  0  0  0  0  0  0  0  0
   -2.7308   -0.8529    0.6556 C   0  0  0  0  0  0  0  0  0  0  0  0
   -4.8161    0.3005    0.0412 C   0  0  0  0  0  0  0  0  0  0  0  0
    5.2247    2.0125    0.3229 C   0  0  0  0  0  0  0  0  0  0  0  0
   -5.3425    1.5223   -0.3631 C   0  0  0  0  0  0  0  0  0  0  0  0
   -5.6305   -0.6201    0.6914 C   0  0  0  0  0  0  0  0  0  0  0  0
   -6.6787    1.7732   -0.0957 C   0  0  0  0  0  0  0  0  0  0  0  0
   -6.9540   -0.2735    0.9115 C   0  0  0  0  0  0  0  0  0  0  0  0
    3.0078   -2.0203   -0.9259 H   0  0  0  0  0  0  0  0  0  0  0  0
    4.3269   -2.6531    1.2342 H   0  0  0  0  0  0  0  0  0  0  0  0
    2.7911   -2.3932    2.0934 H   0  0  0  0  0  0  0  0  0  0  0  0
    1.0531   -1.1616    1.0827 H   0  0  0  0  0  0  0  0  0  0  0  0
    4.4519   -0.4831   -1.8546 H   0  0  0  0  0  0  0  0  0  0  0  0
    3.0866    0.1297    2.1790 H   0  0  0  0  0  0  0  0  0  0  0  0
   -0.9603    0.6540   -2.4465 H   0  0  0  0  0  0  0  0  0  0  0  0
   -0.8931   -1.8318    1.0981 H   0  0  0  0  0  0  0  0  0  0  0  0
   -3.2924    1.1630   -2.0457 H   0  0  0  0  0  0  0  0  0  0  0  0
   -3.1840   -1.2769    1.5475 H   0  0  0  0  0  0  0  0  0  0  0  0
    5.8252    2.9172    0.3891 H   0  0  0  0  0  0  0  0  0  0  0  0
    3.0764   -4.5264    1.3742 H   0  0  0  0  0  0  0  0  0  0  0  0
   -4.7573    2.2956   -0.8485 H   0  0  0  0  0  0  0  0  0  0  0  0
   -5.2929   -1.6011    1.0073 H   0  0  0  0  0  0  0  0  0  0  0  0
   -7.1362    2.7139   -0.3841 H   0  0  0  0  0  0  0  0  0  0  0  0
   -7.6329   -0.9591    1.4080 H   0  0  0  0  0  0  0  0  0  0  0  0
  1 17  1  0  0  0  0
  2 18  1  0  0  0  0
  3  9  1  0  0  0  0
  3 38  1  0  0  0  0
  4 10  2  0  0  0  0
  5  7  1  0  0  0  0
  5 10  1  0  0  0  0
  5 30  1  0  0  0  0
  6 25  2  0  0  0  0
  6 26  1  0  0  0  0
  7  8  1  0  0  0  0
  7  9  1  0  0  0  0
  7 27  1  0  0  0  0
  8 12  2  0  0  0  0
  8 13  1  0  0  0  0
  9 28  1  0  0  0  0
  9 29  1  0  0  0  0
 10 11  1  0  0  0  0
 11 15  2  0  0  0  0
 11 16  1  0  0  0  0
 12 18  1  0  0  0  0
 12 31  1  0  0  0  0
 13 17  2  0  0  0  0
 13 32  1  0  0  0  0
 14 19  2  0  0  0  0
 14 20  1  0  0  0  0
 14 21  1  0  0  0  0
 15 19  1  0  0  0  0
 15 33  1  0  0  0  0
 16 20  2  0  0  0  0
 16 34  1  0  0  0  0
 17 22  1  0  0  0  0
 18 22  2  0  0  0  0
 19 35  1  0  0  0  0
 20 36  1  0  0  0  0
 21 23  2  0  0  0  0
 21 24  1  0  0  0  0
 22 37  1  0  0  0  0
 23 25  1  0  0  0  0
 23 39  1  0  0  0  0
 24 26  2  0  0  0  0
 24 40  1  0  0  0  0
 25 41  1  0  0  0  0
 26 42  1  0  0  0  0
M  END
> <PUBCHEM_COMPOUND_CID>
49830480

> <PUBCHEM_CONFORMER_RMSD>
0.8

> <PUBCHEM_CONFORMER_DIVERSEORDER>
1
27
16
12
15
10
7
4
17
6
23
9
28
18
26
3
19
11
21
8
20
25
13
22
2
14
24
5

> <PUBCHEM_MMFF94_PARTIAL_CHARGES>
37
1 -0.18
10 0.54
11 0.09
12 -0.15
13 -0.15
15 -0.15
16 -0.15
17 0.18
18 0.18
19 -0.15
2 -0.18
20 -0.15
22 -0.15
23 -0.15
24 -0.15
25 0.16
26 0.16
3 -0.68
30 0.37
31 0.15
32 0.15
33 0.15
34 0.15
35 0.15
36 0.15
37 0.15
38 0.4
39 0.15
4 -0.57
40 0.15
41 0.15
42 0.15
5 -0.73
6 -0.62
7 0.44
8 -0.14
9 0.28

> <PUBCHEM_EFFECTIVE_ROTOR_COUNT>
6

> <PUBCHEM_PHARMACOPHORE_FEATURES>
8
1 3 acceptor
1 3 donor
1 4 acceptor
1 5 donor
1 6 acceptor
6 11 14 15 16 19 20 rings
6 6 21 23 24 25 26 rings
6 8 12 13 17 18 22 rings

> <PUBCHEM_HEAVY_ATOM_COUNT>
26

> <PUBCHEM_ATOM_DEF_STEREO_COUNT>
0

> <PUBCHEM_ATOM_UDEF_STEREO_COUNT>
1

> <PUBCHEM_BOND_DEF_STEREO_COUNT>
0

> <PUBCHEM_BOND_UDEF_STEREO_COUNT>
0

> <PUBCHEM_ISOTOPIC_ATOM_COUNT>
0

> <PUBCHEM_COMPONENT_COUNT>
1

> <PUBCHEM_CACTVS_TAUTO_COUNT>
2

> <PUBCHEM_CONFORMER_ID>
02F85A5000000001

> <PUBCHEM_MMFF94_ENERGY>
75.1272

> <PUBCHEM_FEATURE_SELFOVERLAP>
40.598

> <PUBCHEM_SHAPE_FINGERPRINT>
10 15 17385447635279209301
10165383 225 18260835921436085342
10554248 39 17915447308485918141
10638233 991 17203331109223470313
10670039 82 16415211030739980208
11505856 67 17619348053847144030
11720765 8 17060628789890502688
11796584 16 9151172043535332645
11991303 11 15913320326028620037
12596602 18 18040155089723814089
12616971 3 17987501663364695534
12633257 1 17386275606041891704
12730499 353 18407763629584775234
13533116 47 18336828576594157131
13878862 14 18193533623965444389
13955234 65 18338508639210108322
14114211 68 18335998523257002788
14341114 328 17240759635983830464
14461889 52 18041003976908968347
14528608 73 17632571673587738213
14565420 104 18260264196579518208
146900 427 18343580737481879707
14840074 17 17489588978663490441
15183329 4 11240007758446970565
15188451 53 11674867910083575284
15475509 8 11959737084027670043
15510800 12 7997697531956697448
15575132 122 17131838634208503825
16992610 120 17096954532595372532
17857418 61 13912326793913475033
18335252 114 17418095404052038956
1979834 28 18040714762379727038
19958102 18 12535335767570047925
20567600 234 17894632582224420125
21033648 29 18268143335564433648
21049683 271 17970351409120093470
21130935 74 18187934920444359811
21315764 119 14908189646065936389
21781051 124 14548736252978747429
21859007 373 15936955355091144007
22061861 79 9295286145205573457
22122407 14 18060144219490419489
221357 26 17060068038401317392
23559900 14 18040999479972889174
23569914 2 17616197673798803469
2838139 119 17988913453801695821
3178227 256 18261386699442309434
3472631 163 17203604938609981884
34797466 226 17561369465837673639
376196 1 16625995309200187944
394071 54 17458354047508339516
4058900 60 16199605588964647991
4073 2 17894641370070769771
5104073 3 17823127930945248033
5718773 13 8646233436419747520
57527585 21 16975599436519331548
59682541 52 13039192489376988053
6438161 24 12031793517902058980
6443934 186 17458627847473294160
7808743 9 17898573335731919500
86090 222 11747203629346301744
960060 61 13758075238158567376
9658208 31 18268151036562367762
9862260 156 16056608612751213070

> <PUBCHEM_SHAPE_MULTIPOLES>
517.11
19.01
2.63
1.9
21.83
1.35
0.14
-11.93
2.15
-3.85
1.2
-3.28
-0.99
0.54

> <PUBCHEM_SHAPE_SELFOVERLAP>
1103.698

> <PUBCHEM_SHAPE_VOLUME>
287.4

> <PUBCHEM_COORDINATE_TYPE>
2
5
10

$$$$
