49830407
  -OEChem-10062121563D

 67 73  0     0  0  0  0  0  0999 V2000
   -5.6650   -0.6732   -3.2063 S   0  0  0  0  0  0  0  0  0  0  0  0
    3.2435   -0.4072   -2.0486 F   0  0  0  0  0  0  0  0  0  0  0  0
    5.5652    2.5991    0.8036 F   0  0  0  0  0  0  0  0  0  0  0  0
   -1.3708   -2.7985   -0.6334 O   0  0  0  0  0  0  0  0  0  0  0  0
    3.4511    3.2525   -0.5369 O   0  0  0  0  0  0  0  0  0  0  0  0
    0.9561   -2.9866   -0.1347 N   0  0  0  0  0  0  0  0  0  0  0  0
   -4.6310   -0.0552   -0.9422 N   0  0  0  0  0  0  0  0  0  0  0  0
   -1.0111   -0.3743    3.4782 N   0  0  0  0  0  0  0  0  0  0  0  0
   -3.3790    0.8369   -2.5630 N   0  0  0  0  0  0  0  0  0  0  0  0
   -2.3359    0.1206    1.6099 N   0  0  0  0  0  0  0  0  0  0  0  0
   -3.0817    0.6629    3.8363 N   0  0  0  0  0  0  0  0  0  0  0  0
    1.9674    1.4540   -0.8423 N   0  0  0  0  0  0  0  0  0  0  0  0
    1.5996   -3.9418   -2.1680 C   0  0  0  0  0  0  0  0  0  0  0  0
    2.0641   -3.6929   -0.7482 C   0  0  0  0  0  0  0  0  0  0  0  0
    0.0983   -4.0915   -2.0255 C   0  0  0  0  0  0  0  0  0  0  0  0
   -0.2344   -3.1870   -0.8606 C   0  0  0  0  0  0  0  0  0  0  0  0
    1.0957   -2.2670    1.0889 C   0  0  0  0  0  0  0  0  0  0  0  0
   -0.0199   -1.6758    1.6819 C   0  0  0  0  0  0  0  0  0  0  0  0
    2.3484   -2.1541    1.6923 C   0  0  0  0  0  0  0  0  0  0  0  0
    0.1169   -0.9719    2.8783 C   0  0  0  0  0  0  0  0  0  0  0  0
   -3.6269    0.5962   -0.2939 C   0  0  0  0  0  0  0  0  0  0  0  0
   -2.8653    1.1400   -1.3155 C   0  0  0  0  0  0  0  0  0  0  0  0
    2.4852   -1.4500    2.8887 C   0  0  0  0  0  0  0  0  0  0  0  0
    1.3695   -0.8591    3.4818 C   0  0  0  0  0  0  0  0  0  0  0  0
   -4.4317    0.1222   -2.2773 C   0  0  0  0  0  0  0  0  0  0  0  0
   -3.4866    0.6429    1.1373 C   0  0  0  0  0  0  0  0  0  0  0  0
   -1.6818    1.9269   -1.1328 C   0  0  0  0  0  0  0  0  0  0  0  0
   -5.7319   -0.8039   -0.5999 C   0  0  0  0  0  0  0  0  0  0  0  0
   -2.2008    0.1624    2.9491 C   0  0  0  0  0  0  0  0  0  0  0  0
   -0.4334    1.3071   -1.0765 C   0  0  0  0  0  0  0  0  0  0  0  0
   -1.7784    3.3132   -1.0110 C   0  0  0  0  0  0  0  0  0  0  0  0
   -4.4690    1.1856    1.9403 C   0  0  0  0  0  0  0  0  0  0  0  0
    0.7184    2.0735   -0.8984 C   0  0  0  0  0  0  0  0  0  0  0  0
   -6.4025   -1.2173   -1.6886 C   0  0  0  0  0  0  0  0  0  0  0  0
   -0.6266    4.0795   -0.8327 C   0  0  0  0  0  0  0  0  0  0  0  0
    0.6218    3.4597   -0.7766 C   0  0  0  0  0  0  0  0  0  0  0  0
   -4.2097    1.1685    3.2955 C   0  0  0  0  0  0  0  0  0  0  0  0
    3.2215    2.0553   -0.6709 C   0  0  0  0  0  0  0  0  0  0  0  0
    4.3755    1.1195   -0.6238 C   0  0  0  0  0  0  0  0  0  0  0  0
    4.3265   -0.0841   -1.3271 C   0  0  0  0  0  0  0  0  0  0  0  0
    5.5074    1.4450    0.1237 C   0  0  0  0  0  0  0  0  0  0  0  0
    5.4095   -0.9622   -1.2831 C   0  0  0  0  0  0  0  0  0  0  0  0
    6.5904    0.5669    0.1677 C   0  0  0  0  0  0  0  0  0  0  0  0
    6.5415   -0.6366   -0.5359 C   0  0  0  0  0  0  0  0  0  0  0  0
    2.0766   -4.8129   -2.6254 H   0  0  0  0  0  0  0  0  0  0  0  0
    1.8235   -3.0669   -2.7916 H   0  0  0  0  0  0  0  0  0  0  0  0
    2.2246   -4.6313   -0.2064 H   0  0  0  0  0  0  0  0  0  0  0  0
    2.9809   -3.0983   -0.7622 H   0  0  0  0  0  0  0  0  0  0  0  0
   -0.1816   -5.1171   -1.7648 H   0  0  0  0  0  0  0  0  0  0  0  0
   -0.4301   -3.7772   -2.9289 H   0  0  0  0  0  0  0  0  0  0  0  0
   -1.0070   -1.8005    1.2677 H   0  0  0  0  0  0  0  0  0  0  0  0
    3.2439   -2.6038    1.2768 H   0  0  0  0  0  0  0  0  0  0  0  0
    3.4602   -1.3626    3.3594 H   0  0  0  0  0  0  0  0  0  0  0  0
    1.4897   -0.3126    4.4137 H   0  0  0  0  0  0  0  0  0  0  0  0
   -0.9090   -0.1916    4.4720 H   0  0  0  0  0  0  0  0  0  0  0  0
   -5.9835   -1.0105    0.4291 H   0  0  0  0  0  0  0  0  0  0  0  0
   -0.3558    0.2256   -1.1727 H   0  0  0  0  0  0  0  0  0  0  0  0
   -2.7440    3.8117   -1.0526 H   0  0  0  0  0  0  0  0  0  0  0  0
   -5.3870    1.6073    1.5501 H   0  0  0  0  0  0  0  0  0  0  0  0
   -7.2994   -1.8204   -1.6773 H   0  0  0  0  0  0  0  0  0  0  0  0
   -0.7032    5.1589   -0.7377 H   0  0  0  0  0  0  0  0  0  0  0  0
    1.4648    4.1213   -0.6366 H   0  0  0  0  0  0  0  0  0  0  0  0
   -4.9226    1.5742    4.0053 H   0  0  0  0  0  0  0  0  0  0  0  0
    1.9380    0.4399   -0.9175 H   0  0  0  0  0  0  0  0  0  0  0  0
    5.3703   -1.8996   -1.8300 H   0  0  0  0  0  0  0  0  0  0  0  0
    7.4714    0.8204    0.7498 H   0  0  0  0  0  0  0  0  0  0  0  0
    7.3845   -1.3205   -0.5015 H   0  0  0  0  0  0  0  0  0  0  0  0
  1 25  1  0  0  0  0
  1 34  1  0  0  0  0
  2 40  1  0  0  0  0
  3 41  1  0  0  0  0
  4 16  2  0  0  0  0
  5 38  2  0  0  0  0
  6 14  1  0  0  0  0
  6 16  1  0  0  0  0
  6 17  1  0  0  0  0
  7 21  1  0  0  0  0
  7 25  1  0  0  0  0
  7 28  1  0  0  0  0
  8 20  1  0  0  0  0
  8 29  1  0  0  0  0
  8 55  1  0  0  0  0
  9 22  1  0  0  0  0
  9 25  2  0  0  0  0
 10 26  2  0  0  0  0
 10 29  1  0  0  0  0
 11 29  2  0  0  0  0
 11 37  1  0  0  0  0
 12 33  1  0  0  0  0
 12 38  1  0  0  0  0
 12 64  1  0  0  0  0
 13 14  1  0  0  0  0
 13 15  1  0  0  0  0
 13 45  1  0  0  0  0
 13 46  1  0  0  0  0
 14 47  1  0  0  0  0
 14 48  1  0  0  0  0
 15 16  1  0  0  0  0
 15 49  1  0  0  0  0
 15 50  1  0  0  0  0
 17 18  1  0  0  0  0
 17 19  2  0  0  0  0
 18 20  2  0  0  0  0
 18 51  1  0  0  0  0
 19 23  1  0  0  0  0
 19 52  1  0  0  0  0
 20 24  1  0  0  0  0
 21 22  2  0  0  0  0
 21 26  1  0  0  0  0
 22 27  1  0  0  0  0
 23 24  2  0  0  0  0
 23 53  1  0  0  0  0
 24 54  1  0  0  0  0
 26 32  1  0  0  0  0
 27 30  2  0  0  0  0
 27 31  1  0  0  0  0
 28 34  2  0  0  0  0
 28 56  1  0  0  0  0
 30 33  1  0  0  0  0
 30 57  1  0  0  0  0
 31 35  2  0  0  0  0
 31 58  1  0  0  0  0
 32 37  2  0  0  0  0
 32 59  1  0  0  0  0
 33 36  2  0  0  0  0
 34 60  1  0  0  0  0
 35 36  1  0  0  0  0
 35 61  1  0  0  0  0
 36 62  1  0  0  0  0
 37 63  1  0  0  0  0
 38 39  1  0  0  0  0
 39 40  2  0  0  0  0
 39 41  1  0  0  0  0
 40 42  1  0  0  0  0
 41 43  2  0  0  0  0
 42 44  2  0  0  0  0
 42 65  1  0  0  0  0
 43 44  1  0  0  0  0
 43 66  1  0  0  0  0
 44 67  1  0  0  0  0
M  END
> <PUBCHEM_COMPOUND_CID>
49830407

> <PUBCHEM_CONFORMER_RMSD>
1.4

> <PUBCHEM_CONFORMER_DIVERSEORDER>
1
32
223
133
43
5
211
12
140
200
56
215
66
183
41
188
82
47
38
187
210
53
115
44
226
161
145
6
184
71
83
242
102
173
124
143
139
151
70
219
209
106
153
195
57
35
172
138
234
96
36
16
152
178
125
51
15
11
37
167
239
201
136
54
116
165
241
207
243
112
134
67
217
204
93
232
105
109
221
146
163
181
17
220
94
159
186
179
107
13
62
119
148
33
108
72
86
22
73
121
7
101
4
91
175
113
111
203
155
176
237
122
177
131
206
100
216
169
157
104
84
81
144
240
166
8
218
236
98
46
214
129
191
198
141
174
110
126
99
29
120
142
52
162
137
118
158
40
60
150
87
25
130
75
244
197
127
149
80
205
103
123
230
156
160
27
213
132
171
182
228
26
185
227
235
114
97
79
28
164
246
19
78
23
212
238
229
77
2
117
49
58
74
55
50
68
154
189
192
208
63
190
202
48
45
245
69
18
231
196
30
20
76
39
222
194
92
88
233
135
31
10
225
14
3
170
247
147
95
199
90
24
180
59
21
34
85
193
9
64
128
168
224
42
65
61
89

> <PUBCHEM_MMFF94_PARTIAL_CHARGES>
60
1 -0.16
10 -0.62
11 -0.62
12 -0.55
14 0.3
15 0.06
16 0.57
17 0.12
18 -0.15
19 -0.15
2 -0.19
20 0.1
21 -0.2
22 0.17
23 -0.15
24 -0.15
25 0.24
26 0.36
27 0.05
28 -0.18
29 0.72
3 -0.19
30 -0.15
31 -0.15
32 -0.15
33 0.12
34 -0.05
35 -0.15
36 -0.15
37 0.16
38 0.54
39 0.09
4 -0.57
40 0.19
41 0.19
42 -0.15
43 -0.15
44 -0.15
5 -0.57
51 0.15
52 0.15
53 0.15
54 0.15
55 0.4
56 0.15
57 0.15
58 0.15
59 0.15
6 -0.48
60 0.15
61 0.15
62 0.15
63 0.15
64 0.37
65 0.15
66 0.15
67 0.15
7 0.33
8 -0.6
9 -0.57

> <PUBCHEM_EFFECTIVE_ROTOR_COUNT>
8.8

> <PUBCHEM_PHARMACOPHORE_FEATURES>
14
1 10 acceptor
1 12 donor
1 4 acceptor
1 5 acceptor
1 8 donor
3 7 9 25 cation
4 8 10 11 29 cation
5 1 7 25 28 34 rings
5 6 13 14 15 16 rings
5 7 9 21 22 25 rings
6 10 11 26 29 32 37 rings
6 17 18 19 20 23 24 rings
6 27 30 31 33 35 36 rings
6 39 40 41 42 43 44 rings

> <PUBCHEM_HEAVY_ATOM_COUNT>
44

> <PUBCHEM_ATOM_DEF_STEREO_COUNT>
0

> <PUBCHEM_ATOM_UDEF_STEREO_COUNT>
0

> <PUBCHEM_BOND_DEF_STEREO_COUNT>
0

> <PUBCHEM_BOND_UDEF_STEREO_COUNT>
0

> <PUBCHEM_ISOTOPIC_ATOM_COUNT>
0

> <PUBCHEM_COMPONENT_COUNT>
1

> <PUBCHEM_CACTVS_TAUTO_COUNT>
12

> <PUBCHEM_CONFORMER_ID>
02F85A0700000001

> <PUBCHEM_MMFF94_ENERGY>
141.4253

> <PUBCHEM_FEATURE_SELFOVERLAP>
71.303

> <PUBCHEM_SHAPE_FINGERPRINT>
10290309 65 16588027857794468747
11421498 54 16917351411424245366
11513181 2 18193833734953075086
12156800 1 17406797019563517018
1361 2 18412259566884481756
14747281 78 17388525031245130237
15001296 14 18190444129493265886
15324884 4 16808422975503841509
15361156 5 18263097547566251956
15815584 197 17676211264482638769
16067689 68 17201645437876661454
16112460 7 18202007659582470828
20764821 26 18192735516347611700
21133410 90 16986873682246495050
3298306 158 17458617943210319817
4093350 32 18266752272792500177
57527295 17 17895458256029165813
66674814 147 18272090525792975942

> <PUBCHEM_SHAPE_MULTIPOLES>
848.2
12.93
4.61
3.87
4.07
1.03
-3.81
-2.18
5.37
2.77
2.7
-4.12
1.28
-1.2

> <PUBCHEM_SHAPE_SELFOVERLAP>
1894.93

> <PUBCHEM_SHAPE_VOLUME>
454.1

> <PUBCHEM_COORDINATE_TYPE>
2
5
10

$$$$
