44406014
  -OEChem-10052120443D

 43 46  0     0  0  0  0  0  0999 V2000
   -0.8560   -3.0847    0.4962 S   0  0  0  0  0  0  0  0  0  0  0  0
    1.7650   -2.6469   -0.7255 O   0  0  0  0  0  0  0  0  0  0  0  0
    6.5569    1.7572    1.5266 O   0  0  0  0  0  0  0  0  0  0  0  0
   -4.2601   -1.5935    1.1475 N   0  0  0  0  0  0  0  0  0  0  0  0
   -3.3943   -2.6518    1.2804 N   0  0  0  0  0  0  0  0  0  0  0  0
    1.4921   -0.4943   -1.5434 N   0  0  0  0  0  0  0  0  0  0  0  0
   -2.4663   -0.9132    0.1601 C   0  0  0  0  0  0  0  0  0  0  0  0
   -3.7207   -0.5052    0.4620 C   0  0  0  0  0  0  0  0  0  0  0  0
   -2.3400   -2.1902    0.6728 C   0  0  0  0  0  0  0  0  0  0  0  0
   -1.2445   -0.5708   -0.4594 C   0  0  0  0  0  0  0  0  0  0  0  0
   -0.3103   -1.6194   -0.3570 C   0  0  0  0  0  0  0  0  0  0  0  0
   -4.4495    0.7136    0.2076 C   0  0  0  0  0  0  0  0  0  0  0  0
    2.8075   -0.3695   -2.1292 C   0  0  0  0  0  0  0  0  0  0  0  0
    1.0288   -1.6391   -0.8624 C   0  0  0  0  0  0  0  0  0  0  0  0
    3.8035    0.1959   -1.1584 C   0  0  0  0  0  0  0  0  0  0  0  0
   -3.7679    1.9270    0.1138 C   0  0  0  0  0  0  0  0  0  0  0  0
   -5.8355    0.6787    0.0550 C   0  0  0  0  0  0  0  0  0  0  0  0
    3.7871    1.5573   -0.8550 C   0  0  0  0  0  0  0  0  0  0  0  0
    4.7453   -0.6408   -0.5594 C   0  0  0  0  0  0  0  0  0  0  0  0
   -4.4723    3.1055   -0.1325 C   0  0  0  0  0  0  0  0  0  0  0  0
   -6.5399    1.8571   -0.1915 C   0  0  0  0  0  0  0  0  0  0  0  0
    4.7126    2.0820    0.0470 C   0  0  0  0  0  0  0  0  0  0  0  0
    5.6708   -0.1161    0.3425 C   0  0  0  0  0  0  0  0  0  0  0  0
    5.6545    1.2453    0.6457 C   0  0  0  0  0  0  0  0  0  0  0  0
   -5.8583    3.0706   -0.2851 C   0  0  0  0  0  0  0  0  0  0  0  0
    7.4917    0.8454    2.1018 C   0  0  0  0  0  0  0  0  0  0  0  0
   -1.0543    0.3740   -0.9506 H   0  0  0  0  0  0  0  0  0  0  0  0
   -5.1848   -1.6815    1.5505 H   0  0  0  0  0  0  0  0  0  0  0  0
    2.7219    0.2862   -3.0032 H   0  0  0  0  0  0  0  0  0  0  0  0
    3.1308   -1.3507   -2.4952 H   0  0  0  0  0  0  0  0  0  0  0  0
    0.8852    0.3129   -1.6341 H   0  0  0  0  0  0  0  0  0  0  0  0
   -2.6901    1.9864    0.2396 H   0  0  0  0  0  0  0  0  0  0  0  0
   -6.3935   -0.2526    0.1123 H   0  0  0  0  0  0  0  0  0  0  0  0
    3.0578    2.2187   -1.3152 H   0  0  0  0  0  0  0  0  0  0  0  0
    4.7676   -1.7036   -0.7860 H   0  0  0  0  0  0  0  0  0  0  0  0
   -3.9421    4.0508   -0.2030 H   0  0  0  0  0  0  0  0  0  0  0  0
   -7.6189    1.8301   -0.3128 H   0  0  0  0  0  0  0  0  0  0  0  0
    4.6949    3.1432    0.2796 H   0  0  0  0  0  0  0  0  0  0  0  0
    6.3738   -0.8221    0.7713 H   0  0  0  0  0  0  0  0  0  0  0  0
   -6.4068    3.9881   -0.4769 H   0  0  0  0  0  0  0  0  0  0  0  0
    6.9900    0.0850    2.7099 H   0  0  0  0  0  0  0  0  0  0  0  0
    8.1441    0.4043    1.3406 H   0  0  0  0  0  0  0  0  0  0  0  0
    8.1325    1.4224    2.7765 H   0  0  0  0  0  0  0  0  0  0  0  0
  1  9  1  0  0  0  0
  1 11  1  0  0  0  0
  2 14  2  0  0  0  0
  3 24  1  0  0  0  0
  3 26  1  0  0  0  0
  4  5  1  0  0  0  0
  4  8  1  0  0  0  0
  4 28  1  0  0  0  0
  5  9  2  0  0  0  0
  6 13  1  0  0  0  0
  6 14  1  0  0  0  0
  6 31  1  0  0  0  0
  7  8  2  0  0  0  0
  7  9  1  0  0  0  0
  7 10  1  0  0  0  0
  8 12  1  0  0  0  0
 10 11  2  0  0  0  0
 10 27  1  0  0  0  0
 11 14  1  0  0  0  0
 12 16  2  0  0  0  0
 12 17  1  0  0  0  0
 13 15  1  0  0  0  0
 13 29  1  0  0  0  0
 13 30  1  0  0  0  0
 15 18  2  0  0  0  0
 15 19  1  0  0  0  0
 16 20  1  0  0  0  0
 16 32  1  0  0  0  0
 17 21  2  0  0  0  0
 17 33  1  0  0  0  0
 18 22  1  0  0  0  0
 18 34  1  0  0  0  0
 19 23  2  0  0  0  0
 19 35  1  0  0  0  0
 20 25  2  0  0  0  0
 20 36  1  0  0  0  0
 21 25  1  0  0  0  0
 21 37  1  0  0  0  0
 22 24  2  0  0  0  0
 22 38  1  0  0  0  0
 23 24  1  0  0  0  0
 23 39  1  0  0  0  0
 25 40  1  0  0  0  0
 26 41  1  0  0  0  0
 26 42  1  0  0  0  0
 26 43  1  0  0  0  0
M  END
> <PUBCHEM_COMPOUND_CID>
44406014

> <PUBCHEM_CONFORMER_RMSD>
0.8

> <PUBCHEM_CONFORMER_DIVERSEORDER>
1
34
11
20
10
31
32
30
5
36
12
15
28
29
14
6
8
25
23
21
33
9
19
24
4
7
37
18
16
35
2
17
13
3
27
22
26

> <PUBCHEM_MMFF94_PARTIAL_CHARGES>
38
1 -0.11
10 -0.15
11 -0.05
12 0.05
13 0.44
14 0.71
15 -0.14
16 -0.15
17 -0.15
18 -0.15
19 -0.15
2 -0.57
20 -0.15
21 -0.15
22 -0.15
23 -0.15
24 0.08
25 -0.15
26 0.28
27 0.15
28 0.27
3 -0.36
31 0.37
32 0.15
33 0.15
34 0.15
35 0.15
36 0.15
37 0.15
38 0.15
39 0.15
4 0.3
40 0.15
5 -0.73
6 -0.73
7 -0.01
8 -0.2
9 0.39

> <PUBCHEM_EFFECTIVE_ROTOR_COUNT>
6

> <PUBCHEM_PHARMACOPHORE_FEATURES>
9
1 2 acceptor
1 3 acceptor
1 4 donor
1 5 acceptor
1 6 donor
5 1 7 9 10 11 rings
5 4 5 7 8 9 rings
6 12 16 17 20 21 25 rings
6 15 18 19 22 23 24 rings

> <PUBCHEM_HEAVY_ATOM_COUNT>
26

> <PUBCHEM_ATOM_DEF_STEREO_COUNT>
0

> <PUBCHEM_ATOM_UDEF_STEREO_COUNT>
0

> <PUBCHEM_BOND_DEF_STEREO_COUNT>
0

> <PUBCHEM_BOND_UDEF_STEREO_COUNT>
0

> <PUBCHEM_ISOTOPIC_ATOM_COUNT>
0

> <PUBCHEM_COMPONENT_COUNT>
1

> <PUBCHEM_CACTVS_TAUTO_COUNT>
7

> <PUBCHEM_CONFORMER_ID>
02A594FE00000001

> <PUBCHEM_MMFF94_ENERGY>
98.1705

> <PUBCHEM_FEATURE_SELFOVERLAP>
45.939

> <PUBCHEM_SHAPE_FINGERPRINT>
10042902 136 10015281526191898577
10319926 262 18334019410658938638
10554248 39 15698010626419972772
10622 236 11461857379884920857
10981352 41 11242553153947013937
11374522 101 18113620127692424004
11399510 152 18044937024801546712
117089 54 12325333423326535792
12107183 9 18187078417649108962
12403259 118 18262802985585923086
12422481 6 17385725751169255103
12633257 1 16081095908515933134
12838862 33 18188202110491836005
12925494 130 18334297517975120603
13103583 49 17313380175859573378
13402501 40 18343019977956991641
13911987 19 16917068854390043247
14123256 34 12685083766615142096
14223995 32 18191304884032131404
14251732 14 10447930576939882596
14251764 30 8070029977909342516
14428016 30 18200302351175998304
14466204 15 18409169934815587376
14739800 52 18335977563204792147
14767858 380 13686294682074198270
14950920 106 15213602108105913285
14951699 99 18263648527825224308
15238133 3 18334019428165608956
15274700 208 16127229278679632880
15350500 185 17896022271150593701
16993427 108 16736665552530048299
18608769 82 18411423938886206803
19246450 95 16806707517713991300
195137 95 18271796913808658848
20554085 129 18338224986831807673
20715895 44 18412547587370648204
21033648 29 18341897415808723054
21133410 221 17985806349579269128
21196832 93 9223224179123631336
21304303 282 17916571180741994782
21859007 373 18339927013646435204
21968339 14 17060055900807453310
22765269 38 17846495941775084564
23522609 53 17241627151117102068
23559900 14 18265636311203175470
23929065 36 18265330789005247955
2748736 6 18411696582313443485
2838139 119 18341329998915169175
2916195 48 18342740714998604255
312425 54 17967526883621708602
3459 39 18335125471742510873
34797466 226 17631740366115307325
4371632 12 15696287806676720379
44249763 50 17989202693767710527
465052 167 12396300353173189234
5104073 3 18041000617928213515
5969126 39 18269555117390907559
6371009 1 18260548931400048837
6371380 46 18337681806830076118
6697151 62 17057829325506198766
7918774 8 11963387427823306466
8863177 126 10665236972532148028
9981440 41 18187657881873388899
999808 66 12973878200663660040

> <PUBCHEM_SHAPE_MULTIPOLES>
512.24
18.8
3.58
1.42
11.83
0.21
0
-16.54
-6.71
-4.25
-0.52
2.52
0.11
2.47

> <PUBCHEM_SHAPE_SELFOVERLAP>
1117.997

> <PUBCHEM_SHAPE_VOLUME>
281.4

> <PUBCHEM_COORDINATE_TYPE>
2
5
10

$$$$
