44329007
  -OEChem-10062122053D

 61 67  0     1  0  0  0  0  0999 V2000
    3.0568    1.4794    2.9485 O   0  0  0  0  0  0  0  0  0  0  0  0
   -4.0275    2.8511    1.2110 O   0  0  0  0  0  0  0  0  0  0  0  0
    3.2766   -2.9514   -0.6436 O   0  0  0  0  0  0  0  0  0  0  0  0
    0.5650   -0.8195   -1.6937 N   0  0  0  0  0  0  0  0  0  0  0  0
   -1.8762   -1.7917   -0.7603 N   0  0  0  0  0  0  0  0  0  0  0  0
   -2.1235    4.0693    0.5798 N   0  0  0  0  0  0  0  0  0  0  0  0
    2.0063   -2.4320    1.2282 N   0  0  0  0  0  0  0  0  0  0  0  0
   -0.3338    0.0018   -1.1037 C   0  0  0  0  0  0  0  0  0  0  0  0
   -0.0968    1.4016   -0.9216 C   0  0  0  0  0  0  0  0  0  0  0  0
   -0.9432    2.3400   -0.3316 C   0  0  0  0  0  0  0  0  0  0  0  0
   -1.5571   -0.4842   -0.6359 C   0  0  0  0  0  0  0  0  0  0  0  0
   -2.4318    0.4761   -0.0280 C   0  0  0  0  0  0  0  0  0  0  0  0
   -2.1629    1.8360    0.1307 C   0  0  0  0  0  0  0  0  0  0  0  0
    1.2321    1.3933   -1.5419 C   0  0  0  0  0  0  0  0  0  0  0  0
    1.5861    0.0754   -1.9821 C   0  0  0  0  0  0  0  0  0  0  0  0
   -0.8518    3.8050   -0.0675 C   0  0  0  0  0  0  0  0  0  0  0  0
    0.5939   -2.2268   -1.9998 C   0  0  0  0  0  0  0  0  0  0  0  0
   -3.4990   -0.4923    0.2670 C   0  0  0  0  0  0  0  0  0  0  0  0
    3.4902   -0.6659    2.0464 C   0  0  1  0  0  0  0  0  0  0  0  0
   -3.1343   -1.8085   -0.1773 C   0  0  0  0  0  0  0  0  0  0  0  0
   -2.9215    2.9365    0.7139 C   0  0  0  0  0  0  0  0  0  0  0  0
    4.6396   -0.2827    2.9530 C   0  0  0  0  0  0  0  0  0  0  0  0
    0.8621   -3.1092   -0.7790 C   0  0  0  0  0  0  0  0  0  0  0  0
    3.1093   -2.1325    2.1113 C   0  0  0  0  0  0  0  0  0  0  0  0
    2.3994    0.2724    2.5328 C   0  0  0  0  0  0  0  0  0  0  0  0
    2.1674    2.4325   -1.7600 C   0  0  0  0  0  0  0  0  0  0  0  0
    2.8143   -0.1838   -2.6081 C   0  0  0  0  0  0  0  0  0  0  0  0
    4.4642    1.2181    3.0523 C   0  0  0  0  0  0  0  0  0  0  0  0
   -4.7642   -0.3493    0.8866 C   0  0  0  0  0  0  0  0  0  0  0  0
    2.1877   -2.8209   -0.0913 C   0  0  0  0  0  0  0  0  0  0  0  0
   -3.9886   -2.9090   -0.0085 C   0  0  0  0  0  0  0  0  0  0  0  0
    3.3887    2.1627   -2.3852 C   0  0  0  0  0  0  0  0  0  0  0  0
    3.7048    0.8746   -2.8016 C   0  0  0  0  0  0  0  0  0  0  0  0
   -5.6080   -1.4533    1.0501 C   0  0  0  0  0  0  0  0  0  0  0  0
   -5.2243   -2.7127    0.6089 C   0  0  0  0  0  0  0  0  0  0  0  0
   -0.0422    4.0543    0.6224 H   0  0  0  0  0  0  0  0  0  0  0  0
   -0.7914    4.3917   -0.9872 H   0  0  0  0  0  0  0  0  0  0  0  0
   -0.2920   -2.4977   -2.5809 H   0  0  0  0  0  0  0  0  0  0  0  0
    1.4037   -2.4022   -2.7157 H   0  0  0  0  0  0  0  0  0  0  0  0
    3.7523   -0.3927    1.0146 H   0  0  0  0  0  0  0  0  0  0  0  0
   -1.4435   -2.5851   -1.1865 H   0  0  0  0  0  0  0  0  0  0  0  0
    5.6206   -0.5682    2.5632 H   0  0  0  0  0  0  0  0  0  0  0  0
    4.5189   -0.7380    3.9435 H   0  0  0  0  0  0  0  0  0  0  0  0
   -2.4048    4.9894    0.9034 H   0  0  0  0  0  0  0  0  0  0  0  0
    0.0668   -3.0756   -0.0325 H   0  0  0  0  0  0  0  0  0  0  0  0
    0.9077   -4.1549   -1.1091 H   0  0  0  0  0  0  0  0  0  0  0  0
    2.7992   -2.4178    3.1225 H   0  0  0  0  0  0  0  0  0  0  0  0
    3.9665   -2.7573    1.8365 H   0  0  0  0  0  0  0  0  0  0  0  0
    1.6697    0.5096    1.7534 H   0  0  0  0  0  0  0  0  0  0  0  0
    1.8631   -0.1277    3.4004 H   0  0  0  0  0  0  0  0  0  0  0  0
    1.9435    3.4477   -1.4429 H   0  0  0  0  0  0  0  0  0  0  0  0
    3.0976   -1.1756   -2.9434 H   0  0  0  0  0  0  0  0  0  0  0  0
    4.8466    1.6246    3.9927 H   0  0  0  0  0  0  0  0  0  0  0  0
    4.9605    1.7312    2.2216 H   0  0  0  0  0  0  0  0  0  0  0  0
   -5.1006    0.6180    1.2451 H   0  0  0  0  0  0  0  0  0  0  0  0
    1.0681   -2.3324    1.6038 H   0  0  0  0  0  0  0  0  0  0  0  0
   -3.6972   -3.8978   -0.3502 H   0  0  0  0  0  0  0  0  0  0  0  0
    4.0978    2.9704   -2.5458 H   0  0  0  0  0  0  0  0  0  0  0  0
    4.6605    0.6865   -3.2845 H   0  0  0  0  0  0  0  0  0  0  0  0
   -6.5748   -1.3212    1.5286 H   0  0  0  0  0  0  0  0  0  0  0  0
   -5.8941   -3.5577    0.7453 H   0  0  0  0  0  0  0  0  0  0  0  0
  1 25  1  0  0  0  0
  1 28  1  0  0  0  0
  2 21  2  0  0  0  0
  3 30  2  0  0  0  0
  4  8  1  0  0  0  0
  4 15  1  0  0  0  0
  4 17  1  0  0  0  0
  5 11  1  0  0  0  0
  5 20  1  0  0  0  0
  5 41  1  0  0  0  0
  6 16  1  0  0  0  0
  6 21  1  0  0  0  0
  6 44  1  0  0  0  0
  7 24  1  0  0  0  0
  7 30  1  0  0  0  0
  7 56  1  0  0  0  0
  8  9  1  0  0  0  0
  8 11  2  0  0  0  0
  9 10  2  0  0  0  0
  9 14  1  0  0  0  0
 10 13  1  0  0  0  0
 10 16  1  0  0  0  0
 11 12  1  0  0  0  0
 12 13  2  0  0  0  0
 12 18  1  0  0  0  0
 13 21  1  0  0  0  0
 14 15  1  0  0  0  0
 14 26  2  0  0  0  0
 15 27  2  0  0  0  0
 16 36  1  0  0  0  0
 16 37  1  0  0  0  0
 17 23  1  0  0  0  0
 17 38  1  0  0  0  0
 17 39  1  0  0  0  0
 18 20  1  0  0  0  0
 18 29  2  0  0  0  0
 19 22  1  0  0  0  0
 19 24  1  0  0  0  0
 19 25  1  0  0  0  0
 19 40  1  0  0  0  0
 20 31  2  0  0  0  0
 22 28  1  0  0  0  0
 22 42  1  0  0  0  0
 22 43  1  0  0  0  0
 23 30  1  0  0  0  0
 23 45  1  0  0  0  0
 23 46  1  0  0  0  0
 24 47  1  0  0  0  0
 24 48  1  0  0  0  0
 25 49  1  0  0  0  0
 25 50  1  0  0  0  0
 26 32  1  0  0  0  0
 26 51  1  0  0  0  0
 27 33  1  0  0  0  0
 27 52  1  0  0  0  0
 28 53  1  0  0  0  0
 28 54  1  0  0  0  0
 29 34  1  0  0  0  0
 29 55  1  0  0  0  0
 31 35  1  0  0  0  0
 31 57  1  0  0  0  0
 32 33  2  0  0  0  0
 32 58  1  0  0  0  0
 33 59  1  0  0  0  0
 34 35  2  0  0  0  0
 34 60  1  0  0  0  0
 35 61  1  0  0  0  0
M  END
> <PUBCHEM_COMPOUND_CID>
44329007

> <PUBCHEM_CONFORMER_RMSD>
1

> <PUBCHEM_CONFORMER_DIVERSEORDER>
1
25
15
18
23
28
14
20
12
26
27
16
3
17
21
22
5
4
19
24
2
10
13
9
6
11
7
8

> <PUBCHEM_MMFF94_PARTIAL_CHARGES>
42
1 -0.56
10 -0.14
11 -0.05
12 -0.01
13 0.09
15 -0.15
16 0.44
17 0.26
2 -0.57
20 -0.15
21 0.54
23 0.06
24 0.3
25 0.28
26 -0.15
27 -0.15
28 0.28
29 -0.15
3 -0.57
30 0.57
31 -0.15
32 -0.15
33 -0.15
34 -0.15
35 -0.15
4 -0.04
41 0.27
44 0.37
5 -0.05
51 0.15
52 0.15
55 0.15
56 0.37
57 0.15
58 0.15
59 0.15
6 -0.73
60 0.15
61 0.15
7 -0.73
8 -0.05
9 -0.01

> <PUBCHEM_EFFECTIVE_ROTOR_COUNT>
7.4

> <PUBCHEM_PHARMACOPHORE_FEATURES>
15
1 1 acceptor
1 2 acceptor
1 3 acceptor
1 4 cation
1 5 cation
1 5 donor
1 6 donor
1 7 donor
5 1 19 22 25 28 rings
5 4 8 9 14 15 rings
5 5 11 12 18 20 rings
5 6 10 13 16 21 rings
6 14 15 26 27 32 33 rings
6 18 20 29 31 34 35 rings
6 8 9 10 11 12 13 rings

> <PUBCHEM_HEAVY_ATOM_COUNT>
35

> <PUBCHEM_ATOM_DEF_STEREO_COUNT>
0

> <PUBCHEM_ATOM_UDEF_STEREO_COUNT>
1

> <PUBCHEM_BOND_DEF_STEREO_COUNT>
0

> <PUBCHEM_BOND_UDEF_STEREO_COUNT>
0

> <PUBCHEM_ISOTOPIC_ATOM_COUNT>
0

> <PUBCHEM_COMPONENT_COUNT>
1

> <PUBCHEM_CACTVS_TAUTO_COUNT>
14

> <PUBCHEM_CONFORMER_ID>
02A4682F00000001

> <PUBCHEM_MMFF94_ENERGY>
121.3043

> <PUBCHEM_FEATURE_SELFOVERLAP>
76.589

> <PUBCHEM_SHAPE_FINGERPRINT>
10369192 42 16126957732785542904
1100329 8 17831885463903995199
11578080 2 16774080665875095713
12156800 1 18341900697063802712
12553582 1 18341342188338693535
12788726 201 18264226797710108233
13140716 1 17764331809033250205
133893 2 16443071590620893700
13751561 76 17917709046643487889
14028597 1 18042688484625945052
14950920 106 17972285492289477522
19315092 285 17095796732832603147
19319366 153 17464536786322992988
21033648 29 17546150910132998144
21421861 104 18187378631330560075
21792938 131 18336845164116576806
22223350 30 17984151366105131105
23559900 14 18197226853737765823
3886686 26 17975400326841263827
474144 1 17968936538483802082
5081480 168 15338571453041773400
6287921 2 18335973191302890890

> <PUBCHEM_SHAPE_MULTIPOLES>
682.75
9.5
4.58
3.14
6.67
1.56
-1.16
-3.62
-5.46
1.86
-0.12
-6.39
0.34
-1.76

> <PUBCHEM_SHAPE_SELFOVERLAP>
1547.69

> <PUBCHEM_SHAPE_VOLUME>
358.7

> <PUBCHEM_COORDINATE_TYPE>
2
5
10

$$$$
