49830356
  -OEChem-10052115193D

 49 52  0     0  0  0  0  0  0999 V2000
  -10.2987    0.3587   -1.2113 Cl  0  0  0  0  0  0  0  0  0  0  0  0
    4.8108   -2.0942    0.3270 S   0  0  0  0  0  0  0  0  0  0  0  0
    7.5074   -1.0883    1.1244 O   0  0  0  0  0  0  0  0  0  0  0  0
   -3.7856   -0.0971    1.2359 O   0  0  0  0  0  0  0  0  0  0  0  0
    4.5382    2.3473   -0.1854 N   0  0  0  0  0  0  0  0  0  0  0  0
    2.2046    2.1249   -0.4894 N   0  0  0  0  0  0  0  0  0  0  0  0
   -2.9504   -0.3878   -0.9338 N   0  0  0  0  0  0  0  0  0  0  0  0
    8.3866    0.6741   -0.0996 N   0  0  0  0  0  0  0  0  0  0  0  0
   -5.2215   -0.1175   -0.6099 N   0  0  0  0  0  0  0  0  0  0  0  0
    3.5847    0.1445   -0.0841 C   0  0  0  0  0  0  0  0  0  0  0  0
    2.5936   -0.8930   -0.1127 C   0  0  0  0  0  0  0  0  0  0  0  0
    4.8586   -0.3802    0.1507 C   0  0  0  0  0  0  0  0  0  0  0  0
    1.1724   -0.7642   -0.3229 C   0  0  0  0  0  0  0  0  0  0  0  0
    5.9848    0.4487    0.2203 C   0  0  0  0  0  0  0  0  0  0  0  0
    3.1227   -2.1446    0.0952 C   0  0  0  0  0  0  0  0  0  0  0  0
    3.4610    1.5331   -0.2496 C   0  0  0  0  0  0  0  0  0  0  0  0
    0.3207   -0.5738    0.7652 C   0  0  0  0  0  0  0  0  0  0  0  0
    0.6498   -0.8292   -1.6146 C   0  0  0  0  0  0  0  0  0  0  0  0
    5.7483    1.8005    0.0428 C   0  0  0  0  0  0  0  0  0  0  0  0
   -1.5761   -0.5140   -0.7298 C   0  0  0  0  0  0  0  0  0  0  0  0
   -1.0535   -0.4487    0.5619 C   0  0  0  0  0  0  0  0  0  0  0  0
   -0.7244   -0.7042   -1.8180 C   0  0  0  0  0  0  0  0  0  0  0  0
    7.3261   -0.0494    0.4619 C   0  0  0  0  0  0  0  0  0  0  0  0
   -3.9721   -0.1902    0.0269 C   0  0  0  0  0  0  0  0  0  0  0  0
   -6.4918    0.0721   -0.0163 C   0  0  0  0  0  0  0  0  0  0  0  0
    9.7747    0.2934    0.0315 C   0  0  0  0  0  0  0  0  0  0  0  0
   -7.6353    0.1174   -0.8140 C   0  0  0  0  0  0  0  0  0  0  0  0
   -6.6003    0.2132    1.3672 C   0  0  0  0  0  0  0  0  0  0  0  0
   -8.8872    0.3037   -0.2279 C   0  0  0  0  0  0  0  0  0  0  0  0
   -7.8522    0.3996    1.9531 C   0  0  0  0  0  0  0  0  0  0  0  0
   -8.9958    0.4449    1.1556 C   0  0  0  0  0  0  0  0  0  0  0  0
    2.6057   -3.0947    0.1245 H   0  0  0  0  0  0  0  0  0  0  0  0
    0.7135   -0.5195    1.7780 H   0  0  0  0  0  0  0  0  0  0  0  0
    1.3001   -0.9757   -2.4738 H   0  0  0  0  0  0  0  0  0  0  0  0
    6.5430    2.5382    0.1021 H   0  0  0  0  0  0  0  0  0  0  0  0
   -1.6448   -0.3034    1.4545 H   0  0  0  0  0  0  0  0  0  0  0  0
   -1.1178   -0.7563   -2.8301 H   0  0  0  0  0  0  0  0  0  0  0  0
    1.3492    1.6003   -0.5541 H   0  0  0  0  0  0  0  0  0  0  0  0
    2.1706    3.1300   -0.6015 H   0  0  0  0  0  0  0  0  0  0  0  0
   -3.2555   -0.4456   -1.9022 H   0  0  0  0  0  0  0  0  0  0  0  0
    8.1915    1.4713   -0.6964 H   0  0  0  0  0  0  0  0  0  0  0  0
   -5.2238   -0.2120   -1.6223 H   0  0  0  0  0  0  0  0  0  0  0  0
    9.9365   -0.2515    0.9647 H   0  0  0  0  0  0  0  0  0  0  0  0
   10.0368   -0.3444   -0.8162 H   0  0  0  0  0  0  0  0  0  0  0  0
   10.3856    1.1988    0.0146 H   0  0  0  0  0  0  0  0  0  0  0  0
   -7.5495    0.0070   -1.8929 H   0  0  0  0  0  0  0  0  0  0  0  0
   -5.7650    0.1898    2.0520 H   0  0  0  0  0  0  0  0  0  0  0  0
   -7.9381    0.5096    3.0303 H   0  0  0  0  0  0  0  0  0  0  0  0
   -9.9648    0.5907    1.6261 H   0  0  0  0  0  0  0  0  0  0  0  0
  1 29  1  0  0  0  0
  2 12  1  0  0  0  0
  2 15  1  0  0  0  0
  3 23  2  0  0  0  0
  4 24  2  0  0  0  0
  5 16  2  0  0  0  0
  5 19  1  0  0  0  0
  6 16  1  0  0  0  0
  6 38  1  0  0  0  0
  6 39  1  0  0  0  0
  7 20  1  0  0  0  0
  7 24  1  0  0  0  0
  7 40  1  0  0  0  0
  8 23  1  0  0  0  0
  8 26  1  0  0  0  0
  8 41  1  0  0  0  0
  9 24  1  0  0  0  0
  9 25  1  0  0  0  0
  9 42  1  0  0  0  0
 10 11  1  0  0  0  0
 10 12  2  0  0  0  0
 10 16  1  0  0  0  0
 11 13  1  0  0  0  0
 11 15  2  0  0  0  0
 12 14  1  0  0  0  0
 13 17  2  0  0  0  0
 13 18  1  0  0  0  0
 14 19  2  0  0  0  0
 14 23  1  0  0  0  0
 15 32  1  0  0  0  0
 17 21  1  0  0  0  0
 17 33  1  0  0  0  0
 18 22  2  0  0  0  0
 18 34  1  0  0  0  0
 19 35  1  0  0  0  0
 20 21  2  0  0  0  0
 20 22  1  0  0  0  0
 21 36  1  0  0  0  0
 22 37  1  0  0  0  0
 25 27  2  0  0  0  0
 25 28  1  0  0  0  0
 26 43  1  0  0  0  0
 26 44  1  0  0  0  0
 26 45  1  0  0  0  0
 27 29  1  0  0  0  0
 27 46  1  0  0  0  0
 28 30  2  0  0  0  0
 28 47  1  0  0  0  0
 29 31  2  0  0  0  0
 30 31  1  0  0  0  0
 30 48  1  0  0  0  0
 31 49  1  0  0  0  0
M  END
> <PUBCHEM_COMPOUND_CID>
49830356

> <PUBCHEM_CONFORMER_RMSD>
1

> <PUBCHEM_CONFORMER_DIVERSEORDER>
1
23
13
15
24
18
5
22
26
6
12
16
10
4
17
21
9
25
14
7
11
19
3
2
20
8

> <PUBCHEM_MMFF94_PARTIAL_CHARGES>
45
1 -0.18
11 -0.05
12 0.04
13 0.05
14 0.09
15 -0.11
16 0.41
17 -0.15
18 -0.15
19 0.16
2 -0.08
20 0.12
21 -0.15
22 -0.15
23 0.54
24 0.69
25 0.12
26 0.3
27 -0.15
28 -0.15
29 0.18
3 -0.57
30 -0.15
31 -0.15
32 0.15
33 0.15
34 0.15
35 0.15
36 0.15
37 0.15
38 0.4
39 0.4
4 -0.57
40 0.37
41 0.37
42 0.37
46 0.15
47 0.15
48 0.15
49 0.15
5 -0.62
6 -0.9
7 -0.55
8 -0.73
9 -0.55

> <PUBCHEM_EFFECTIVE_ROTOR_COUNT>
7

> <PUBCHEM_PHARMACOPHORE_FEATURES>
11
1 3 acceptor
1 4 acceptor
1 6 donor
1 7 donor
1 8 donor
1 9 donor
3 5 6 16 cation
5 2 10 11 12 15 rings
6 13 17 18 20 21 22 rings
6 25 27 28 29 30 31 rings
6 5 10 12 14 16 19 rings

> <PUBCHEM_HEAVY_ATOM_COUNT>
31

> <PUBCHEM_ATOM_DEF_STEREO_COUNT>
0

> <PUBCHEM_ATOM_UDEF_STEREO_COUNT>
0

> <PUBCHEM_BOND_DEF_STEREO_COUNT>
0

> <PUBCHEM_BOND_UDEF_STEREO_COUNT>
0

> <PUBCHEM_ISOTOPIC_ATOM_COUNT>
0

> <PUBCHEM_COMPONENT_COUNT>
1

> <PUBCHEM_CACTVS_TAUTO_COUNT>
21

> <PUBCHEM_CONFORMER_ID>
02F859D400000001

> <PUBCHEM_MMFF94_ENERGY>
99.2069

> <PUBCHEM_FEATURE_SELFOVERLAP>
55.936

> <PUBCHEM_SHAPE_FINGERPRINT>
10 15 17894911832513585715
10162869 55 18341887515983069175
10165383 225 17676487259793340122
10299344 5 17918274247523346499
10533779 47 17895481332118249531
106641 1 15574715816038751054
11135609 127 15769484435633977056
11315181 36 18202846557665016051
11456790 92 18187638081931502192
12089408 11 17346598547959057051
12236239 1 17917706938199355454
12664476 115 18333444339854322421
12741549 16 17385719197656537716
13553643 46 18336831893396242409
14150022 121 17603580786538474797
14251764 18 17847061074104707139
14251764 46 16917067763241282342
14294032 229 16988563460136569769
14344974 52 15482379941270104835
15183329 4 17060342929430111553
15301273 46 16805039614472136903
15419008 47 17385719193319261997
15439362 3 17628341990454911400
15461852 350 15841546397479350391
15510794 2 17676207975313267411
1577012 14 17704348858038475399
15840311 113 17847057814351520160
16120349 18 18411976975274419397
16728433 110 8502367824345021070
16728433 281 12678365720663760867
1818759 1 12468639409218764017
19315958 150 18114186319496898898
19841028 212 12901811797363627944
20157964 124 18411984650033070990
21150785 3 12751239207725260631
21591340 7 17918270969962101175
21792934 111 16443062807365184287
22224240 67 18113337514301225691
23576562 1 16557892585288451881
24771293 8 17560808702350088833
24893992 56 17632289116464145251
249057 3 18411701006187442823
3092352 35 17918272056447013159
3178227 256 18186800293073728738
335352 9 16702300169856815464
3383291 50 16154001218372863689
397830 11 17896051000043781147
4073 2 18041001807607741643
4325135 7 18273214197070701381
5381727 24 16845854585438304174
5758199 1 17418094300403718919
59682541 35 17022623095600185252
9663363 56 15574711400749288279

> <PUBCHEM_SHAPE_MULTIPOLES>
607.04
33.27
1.58
1.29
38.53
0.21
-0.04
7.89
-4.45
-3.45
0.08
2.41
-0.1
-1.07

> <PUBCHEM_SHAPE_SELFOVERLAP>
1315.528

> <PUBCHEM_SHAPE_VOLUME>
334.4

> <PUBCHEM_COORDINATE_TYPE>
2
5
10

$$$$
