24905181
  -OEChem-10052115143D

 39 42  0     0  0  0  0  0  0999 V2000
    1.8986    0.6564    1.9551 F   0  0  0  0  0  0  0  0  0  0  0  0
    4.4448    1.6182    1.6464 O   0  0  0  0  0  0  0  0  0  0  0  0
   -1.7980    0.0005   -0.0458 N   0  0  0  0  0  0  0  0  0  0  0  0
   -0.7315    0.8057   -0.2063 N   0  0  0  0  0  0  0  0  0  0  0  0
   -2.3234   -2.3518    0.1844 N   0  0  0  0  0  0  0  0  0  0  0  0
   -0.3163   -3.7361    0.1068 N   0  0  0  0  0  0  0  0  0  0  0  0
    1.8717   -2.8215   -0.1642 N   0  0  0  0  0  0  0  0  0  0  0  0
   -3.1824    0.6038    0.0351 C   0  0  0  0  0  0  0  0  0  0  0  0
   -3.6049    1.4062   -1.2134 C   0  0  0  0  0  0  0  0  0  0  0  0
   -3.3360    1.5709    1.2225 C   0  0  0  0  0  0  0  0  0  0  0  0
   -3.8321    2.8344   -0.7310 C   0  0  0  0  0  0  0  0  0  0  0  0
   -4.2654    2.6624    0.7141 C   0  0  0  0  0  0  0  0  0  0  0  0
   -1.4764   -1.3223    0.0268 C   0  0  0  0  0  0  0  0  0  0  0  0
   -0.0994   -1.3877   -0.0949 C   0  0  0  0  0  0  0  0  0  0  0  0
    0.2999   -0.0455   -0.2353 C   0  0  0  0  0  0  0  0  0  0  0  0
    1.6402    0.4584   -0.3979 C   0  0  0  0  0  0  0  0  0  0  0  0
    0.4800   -2.6514   -0.0504 C   0  0  0  0  0  0  0  0  0  0  0  0
   -1.6495   -3.5219    0.2128 C   0  0  0  0  0  0  0  0  0  0  0  0
    2.4032    0.7970    0.7198 C   0  0  0  0  0  0  0  0  0  0  0  0
    2.1738    0.6079   -1.6780 C   0  0  0  0  0  0  0  0  0  0  0  0
    3.6998    1.2854    0.5571 C   0  0  0  0  0  0  0  0  0  0  0  0
    3.4701    1.0961   -1.8406 C   0  0  0  0  0  0  0  0  0  0  0  0
    4.2332    1.4348   -0.7230 C   0  0  0  0  0  0  0  0  0  0  0  0
   -3.8610   -0.2488    0.1590 H   0  0  0  0  0  0  0  0  0  0  0  0
   -4.5483    0.9993   -1.5977 H   0  0  0  0  0  0  0  0  0  0  0  0
   -2.8751    1.3658   -2.0282 H   0  0  0  0  0  0  0  0  0  0  0  0
   -2.3761    2.0108    1.5174 H   0  0  0  0  0  0  0  0  0  0  0  0
   -3.7468    1.0666    2.1032 H   0  0  0  0  0  0  0  0  0  0  0  0
   -4.5791    3.3610   -1.3317 H   0  0  0  0  0  0  0  0  0  0  0  0
   -2.8939    3.3998   -0.7794 H   0  0  0  0  0  0  0  0  0  0  0  0
   -4.1738    3.5874    1.2902 H   0  0  0  0  0  0  0  0  0  0  0  0
   -5.3082    2.3273    0.7628 H   0  0  0  0  0  0  0  0  0  0  0  0
   -2.2576   -4.4115    0.3376 H   0  0  0  0  0  0  0  0  0  0  0  0
    1.5925    0.3482   -2.5596 H   0  0  0  0  0  0  0  0  0  0  0  0
    2.4900   -2.0325   -0.2827 H   0  0  0  0  0  0  0  0  0  0  0  0
    2.2516   -3.7579   -0.1267 H   0  0  0  0  0  0  0  0  0  0  0  0
    3.8856    1.2124   -2.8373 H   0  0  0  0  0  0  0  0  0  0  0  0
    5.2417    1.8144   -0.8635 H   0  0  0  0  0  0  0  0  0  0  0  0
    5.3139    1.9377    1.3483 H   0  0  0  0  0  0  0  0  0  0  0  0
  1 19  1  0  0  0  0
  2 21  1  0  0  0  0
  2 39  1  0  0  0  0
  3  4  1  0  0  0  0
  3  8  1  0  0  0  0
  3 13  1  0  0  0  0
  4 15  2  0  0  0  0
  5 13  2  0  0  0  0
  5 18  1  0  0  0  0
  6 17  1  0  0  0  0
  6 18  2  0  0  0  0
  7 17  1  0  0  0  0
  7 35  1  0  0  0  0
  7 36  1  0  0  0  0
  8  9  1  0  0  0  0
  8 10  1  0  0  0  0
  8 24  1  0  0  0  0
  9 11  1  0  0  0  0
  9 25  1  0  0  0  0
  9 26  1  0  0  0  0
 10 12  1  0  0  0  0
 10 27  1  0  0  0  0
 10 28  1  0  0  0  0
 11 12  1  0  0  0  0
 11 29  1  0  0  0  0
 11 30  1  0  0  0  0
 12 31  1  0  0  0  0
 12 32  1  0  0  0  0
 13 14  1  0  0  0  0
 14 15  1  0  0  0  0
 14 17  2  0  0  0  0
 15 16  1  0  0  0  0
 16 19  2  0  0  0  0
 16 20  1  0  0  0  0
 18 33  1  0  0  0  0
 19 21  1  0  0  0  0
 20 22  2  0  0  0  0
 20 34  1  0  0  0  0
 21 23  2  0  0  0  0
 22 23  1  0  0  0  0
 22 37  1  0  0  0  0
 23 38  1  0  0  0  0
M  END
> <PUBCHEM_COMPOUND_CID>
24905181

> <PUBCHEM_CONFORMER_RMSD>
0.6

> <PUBCHEM_CONFORMER_DIVERSEORDER>
1
4
5
7
3
6
8
15
12
10
14
11
13
9
2

> <PUBCHEM_MMFF94_PARTIAL_CHARGES>
25
1 -0.19
13 0.11
15 0.23
16 0.05
17 0.41
18 0.47
19 0.19
2 -0.53
20 -0.15
21 0.08
22 -0.15
23 -0.15
3 0.31
33 0.15
34 0.15
35 0.4
36 0.4
37 0.15
38 0.15
39 0.45
4 -0.71
5 -0.57
6 -0.62
7 -0.9
8 0.26

> <PUBCHEM_EFFECTIVE_ROTOR_COUNT>
3

> <PUBCHEM_PHARMACOPHORE_FEATURES>
10
1 2 donor
1 4 acceptor
1 7 cation
1 7 donor
3 3 5 13 cation
3 5 6 18 cation
5 3 4 13 14 15 rings
5 8 9 10 11 12 rings
6 16 19 20 21 22 23 rings
6 5 6 13 14 17 18 rings

> <PUBCHEM_HEAVY_ATOM_COUNT>
23

> <PUBCHEM_ATOM_DEF_STEREO_COUNT>
0

> <PUBCHEM_ATOM_UDEF_STEREO_COUNT>
0

> <PUBCHEM_BOND_DEF_STEREO_COUNT>
0

> <PUBCHEM_BOND_UDEF_STEREO_COUNT>
0

> <PUBCHEM_ISOTOPIC_ATOM_COUNT>
0

> <PUBCHEM_COMPONENT_COUNT>
1

> <PUBCHEM_CACTVS_TAUTO_COUNT>
15

> <PUBCHEM_CONFORMER_ID>
017C05DD00000001

> <PUBCHEM_MMFF94_ENERGY>
54.1674

> <PUBCHEM_FEATURE_SELFOVERLAP>
51.026

> <PUBCHEM_SHAPE_FINGERPRINT>
10165383 225 18195556772916649193
10319926 262 18126267861607404976
11582403 64 16698315544186848376
11725454 13 17344881166493824568
11796584 16 18341061766008629350
11833330 49 17904763628407492683
12107183 9 18263066765998864656
121448 382 18341880927318607845
12173636 292 18337673130145987197
12236239 1 17387965628697083958
12422481 6 17898827099315697826
12500047 106 18411703218417210772
12788726 201 17828773072555382162
13134695 92 17399791601992797575
13140716 1 18264773164615808979
13878862 14 17614558139122148309
13965767 371 18114733837748687964
14178342 30 18335980986404639242
15842332 3 17605274180494696852
16752209 62 18192140718863893903
16945 1 18121786285538424167
1741750 31 18411139142834256565
18186145 218 18202012001087706916
18785283 64 18045232543899398807
19049666 15 17988097689377967838
19784866 34 18342176609947361401
20510252 161 18126008405904133699
20600515 1 17478619361279441275
20739085 24 16973939714852851475
212916 134 18412254039130150872
2255824 54 17979074886496555999
22907989 373 18120093050705988095
23419403 2 17045658723469955946
23557571 272 18128267876962465428
23558518 356 18261108599297199299
23559900 14 18272102604216971476
23598291 2 17532088470325579212
2748010 2 18336281054347866271
283562 15 18194681694831442275
3091708 16 9122881600736224155
350125 39 18410580552457620919
458136 41 18193853556527650749
469060 322 18264502835553615113
474 4 18195238928351652113
495365 180 18120368766369171325
57527295 17 17488759890770863980
633830 44 17988649536572358373
6442390 28 18339940259294089443
6443956 14 17547288904440398959
7364860 26 18051692140231583671
7615 1 17605832749381152756
77492 1 17387687439291162022
7808743 9 18264219165337634116
81228 2 18051138287209013739
84936 182 18127689323160677793
9862522 239 17895182295046671397
9981440 41 18410002231016311651

> <PUBCHEM_SHAPE_MULTIPOLES>
435.28
7.94
4.02
1.35
0.17
4.34
-0.06
-8.79
-0.32
-2.42
-0.16
1.01
-0.91
0.24

> <PUBCHEM_SHAPE_SELFOVERLAP>
966.346

> <PUBCHEM_SHAPE_VOLUME>
234.1

> <PUBCHEM_COORDINATE_TYPE>
2
5
10

$$$$
