10434923
  -OEChem-10062122043D

 68 71  0     0  0  0  0  0  0999 V2000
   -2.2118    4.8813   -0.6678 O   0  0  0  0  0  0  0  0  0  0  0  0
    2.2090    4.8830    0.6688 O   0  0  0  0  0  0  0  0  0  0  0  0
   -6.7462   -1.9102    0.1117 N   0  0  0  0  0  0  0  0  0  0  0  0
    6.7469   -1.9095   -0.1111 N   0  0  0  0  0  0  0  0  0  0  0  0
   -1.3592   -0.4543   -0.4129 N   0  0  0  0  0  0  0  0  0  0  0  0
    1.3596   -0.4538    0.4115 N   0  0  0  0  0  0  0  0  0  0  0  0
   -0.0016    5.2874    0.0007 N   0  0  0  0  0  0  0  0  0  0  0  0
   -0.6745    0.7674   -0.2053 C   0  0  0  0  0  0  0  0  0  0  0  0
    0.6750    0.7678    0.2040 C   0  0  0  0  0  0  0  0  0  0  0  0
   -0.6649    3.1362   -0.2018 C   0  0  0  0  0  0  0  0  0  0  0  0
    0.6638    3.1366    0.2011 C   0  0  0  0  0  0  0  0  0  0  0  0
   -1.3634    1.9658   -0.4138 C   0  0  0  0  0  0  0  0  0  0  0  0
    1.3629    1.9666    0.4128 C   0  0  0  0  0  0  0  0  0  0  0  0
   -5.3907   -1.5438   -0.0203 C   0  0  0  0  0  0  0  0  0  0  0  0
    5.3913   -1.5432    0.0205 C   0  0  0  0  0  0  0  0  0  0  0  0
   -2.7094   -0.8190   -0.2815 C   0  0  0  0  0  0  0  0  0  0  0  0
    2.7100   -0.8186    0.2806 C   0  0  0  0  0  0  0  0  0  0  0  0
   -7.5896   -1.2600    1.0951 C   0  0  0  0  0  0  0  0  0  0  0  0
   -7.3099   -2.9513   -0.7243 C   0  0  0  0  0  0  0  0  0  0  0  0
    7.5908   -1.2591   -1.0939 C   0  0  0  0  0  0  0  0  0  0  0  0
    7.3103   -2.9508    0.7250 C   0  0  0  0  0  0  0  0  0  0  0  0
   -1.0979    4.5272   -0.3321 C   0  0  0  0  0  0  0  0  0  0  0  0
    1.0955    4.5278    0.3328 C   0  0  0  0  0  0  0  0  0  0  0  0
   -4.8572   -0.5408    0.7891 C   0  0  0  0  0  0  0  0  0  0  0  0
    4.8583   -0.5399   -0.7889 C   0  0  0  0  0  0  0  0  0  0  0  0
   -4.5834   -2.1845   -0.9603 C   0  0  0  0  0  0  0  0  0  0  0  0
    4.5836   -2.1841    0.9599 C   0  0  0  0  0  0  0  0  0  0  0  0
   -3.5167   -0.1784    0.6585 C   0  0  0  0  0  0  0  0  0  0  0  0
    3.5176   -0.1776   -0.6588 C   0  0  0  0  0  0  0  0  0  0  0  0
   -3.2429   -1.8222   -1.0909 C   0  0  0  0  0  0  0  0  0  0  0  0
    3.2431   -1.8218    1.0899 C   0  0  0  0  0  0  0  0  0  0  0  0
   -7.3637   -1.8728    2.4639 C   0  0  0  0  0  0  0  0  0  0  0  0
   -7.6675   -2.3901   -2.0872 C   0  0  0  0  0  0  0  0  0  0  0  0
    7.3655   -1.8715   -2.4629 C   0  0  0  0  0  0  0  0  0  0  0  0
    7.6673   -2.3900    2.0881 C   0  0  0  0  0  0  0  0  0  0  0  0
   -2.3933    1.9979   -0.7504 H   0  0  0  0  0  0  0  0  0  0  0  0
    2.3928    1.9992    0.7495 H   0  0  0  0  0  0  0  0  0  0  0  0
   -0.7587   -1.2034   -0.7451 H   0  0  0  0  0  0  0  0  0  0  0  0
    0.7591   -1.2030    0.7434 H   0  0  0  0  0  0  0  0  0  0  0  0
   -7.4641   -0.1716    1.1086 H   0  0  0  0  0  0  0  0  0  0  0  0
   -8.6452   -1.4049    0.8298 H   0  0  0  0  0  0  0  0  0  0  0  0
   -6.6604   -3.8303   -0.8020 H   0  0  0  0  0  0  0  0  0  0  0  0
   -8.2300   -3.3367   -0.2657 H   0  0  0  0  0  0  0  0  0  0  0  0
    7.4653   -0.1707   -1.1072 H   0  0  0  0  0  0  0  0  0  0  0  0
    8.6462   -1.4041   -0.8282 H   0  0  0  0  0  0  0  0  0  0  0  0
    6.6606   -3.8299    0.8021 H   0  0  0  0  0  0  0  0  0  0  0  0
    8.2305   -3.3360    0.2667 H   0  0  0  0  0  0  0  0  0  0  0  0
   -5.4284   -0.0061    1.5396 H   0  0  0  0  0  0  0  0  0  0  0  0
    5.4299   -0.0049   -1.5389 H   0  0  0  0  0  0  0  0  0  0  0  0
   -4.9338   -2.9730   -1.6168 H   0  0  0  0  0  0  0  0  0  0  0  0
    4.9338   -2.9727    1.6163 H   0  0  0  0  0  0  0  0  0  0  0  0
   -3.1224    0.5896    1.3184 H   0  0  0  0  0  0  0  0  0  0  0  0
    3.1235    0.5905   -1.3187 H   0  0  0  0  0  0  0  0  0  0  0  0
   -2.6231   -2.3283   -1.8269 H   0  0  0  0  0  0  0  0  0  0  0  0
    2.6230   -2.3281    1.8255 H   0  0  0  0  0  0  0  0  0  0  0  0
   -0.0021    6.3013    0.0012 H   0  0  0  0  0  0  0  0  0  0  0  0
   -7.5786   -2.9471    2.4507 H   0  0  0  0  0  0  0  0  0  0  0  0
   -6.3381   -1.7492    2.8224 H   0  0  0  0  0  0  0  0  0  0  0  0
   -8.0307   -1.4081    3.1973 H   0  0  0  0  0  0  0  0  0  0  0  0
   -8.3864   -1.5685   -1.9937 H   0  0  0  0  0  0  0  0  0  0  0  0
   -6.8012   -2.0052   -2.6320 H   0  0  0  0  0  0  0  0  0  0  0  0
   -8.1289   -3.1684   -2.7037 H   0  0  0  0  0  0  0  0  0  0  0  0
    7.5804   -2.9458   -2.4499 H   0  0  0  0  0  0  0  0  0  0  0  0
    6.3400   -1.7478   -2.8219 H   0  0  0  0  0  0  0  0  0  0  0  0
    8.0328   -1.4067   -3.1960 H   0  0  0  0  0  0  0  0  0  0  0  0
    8.3862   -1.5684    1.9952 H   0  0  0  0  0  0  0  0  0  0  0  0
    6.8007   -2.0052    2.6326 H   0  0  0  0  0  0  0  0  0  0  0  0
    8.1284   -3.1685    2.7045 H   0  0  0  0  0  0  0  0  0  0  0  0
  1 22  2  0  0  0  0
  2 23  2  0  0  0  0
  3 14  1  0  0  0  0
  3 18  1  0  0  0  0
  3 19  1  0  0  0  0
  4 15  1  0  0  0  0
  4 20  1  0  0  0  0
  4 21  1  0  0  0  0
  5  8  1  0  0  0  0
  5 16  1  0  0  0  0
  5 38  1  0  0  0  0
  6  9  1  0  0  0  0
  6 17  1  0  0  0  0
  6 39  1  0  0  0  0
  7 22  1  0  0  0  0
  7 23  1  0  0  0  0
  7 56  1  0  0  0  0
  8  9  2  0  0  0  0
  8 12  1  0  0  0  0
  9 13  1  0  0  0  0
 10 11  1  0  0  0  0
 10 12  2  0  0  0  0
 10 22  1  0  0  0  0
 11 13  2  0  0  0  0
 11 23  1  0  0  0  0
 12 36  1  0  0  0  0
 13 37  1  0  0  0  0
 14 24  2  0  0  0  0
 14 26  1  0  0  0  0
 15 25  2  0  0  0  0
 15 27  1  0  0  0  0
 16 28  2  0  0  0  0
 16 30  1  0  0  0  0
 17 29  2  0  0  0  0
 17 31  1  0  0  0  0
 18 32  1  0  0  0  0
 18 40  1  0  0  0  0
 18 41  1  0  0  0  0
 19 33  1  0  0  0  0
 19 42  1  0  0  0  0
 19 43  1  0  0  0  0
 20 34  1  0  0  0  0
 20 44  1  0  0  0  0
 20 45  1  0  0  0  0
 21 35  1  0  0  0  0
 21 46  1  0  0  0  0
 21 47  1  0  0  0  0
 24 28  1  0  0  0  0
 24 48  1  0  0  0  0
 25 29  1  0  0  0  0
 25 49  1  0  0  0  0
 26 30  2  0  0  0  0
 26 50  1  0  0  0  0
 27 31  2  0  0  0  0
 27 51  1  0  0  0  0
 28 52  1  0  0  0  0
 29 53  1  0  0  0  0
 30 54  1  0  0  0  0
 31 55  1  0  0  0  0
 32 57  1  0  0  0  0
 32 58  1  0  0  0  0
 32 59  1  0  0  0  0
 33 60  1  0  0  0  0
 33 61  1  0  0  0  0
 33 62  1  0  0  0  0
 34 63  1  0  0  0  0
 34 64  1  0  0  0  0
 34 65  1  0  0  0  0
 35 66  1  0  0  0  0
 35 67  1  0  0  0  0
 35 68  1  0  0  0  0
M  END
> <PUBCHEM_COMPOUND_CID>
10434923

> <PUBCHEM_CONFORMER_RMSD>
1

> <PUBCHEM_CONFORMER_DIVERSEORDER>
2
5
4
7
13
14
1
8
12
10
6
11
9
3

> <PUBCHEM_MMFF94_PARTIAL_CHARGES>
44
1 -0.57
10 0.09
11 0.09
12 -0.15
13 -0.15
14 0.1
15 0.1
16 0.1
17 0.1
18 0.37
19 0.37
2 -0.57
20 0.37
21 0.37
22 0.54
23 0.54
24 -0.15
25 -0.15
26 -0.15
27 -0.15
28 -0.15
29 -0.15
3 -0.84
30 -0.15
31 -0.15
36 0.15
37 0.15
38 0.4
39 0.4
4 -0.84
48 0.15
49 0.15
5 -0.6
50 0.15
51 0.15
52 0.15
53 0.15
54 0.15
55 0.15
56 0.37
6 -0.6
7 -0.49
8 0.1
9 0.1

> <PUBCHEM_EFFECTIVE_ROTOR_COUNT>
10.2

> <PUBCHEM_PHARMACOPHORE_FEATURES>
13
1 1 acceptor
1 2 acceptor
1 3 cation
1 4 cation
1 5 cation
1 5 donor
1 6 cation
1 6 donor
1 7 donor
5 7 10 11 22 23 rings
6 14 16 24 26 28 30 rings
6 15 17 25 27 29 31 rings
6 8 9 10 11 12 13 rings

> <PUBCHEM_HEAVY_ATOM_COUNT>
35

> <PUBCHEM_ATOM_DEF_STEREO_COUNT>
0

> <PUBCHEM_ATOM_UDEF_STEREO_COUNT>
0

> <PUBCHEM_BOND_DEF_STEREO_COUNT>
0

> <PUBCHEM_BOND_UDEF_STEREO_COUNT>
0

> <PUBCHEM_ISOTOPIC_ATOM_COUNT>
0

> <PUBCHEM_COMPONENT_COUNT>
1

> <PUBCHEM_CACTVS_TAUTO_COUNT>
17

> <PUBCHEM_CONFORMER_ID>
009F396B00000002

> <PUBCHEM_MMFF94_ENERGY>
150.0405

> <PUBCHEM_FEATURE_SELFOVERLAP>
66.071

> <PUBCHEM_SHAPE_FINGERPRINT>
10411042 1 18410570690911593573
10622 236 17751908130635411554
11062273 23 18195237815665622105
11297750 10 18334848429046066645
11991303 11 17682109981347343717
12107183 9 18342466924636362313
12645989 146 18411978101146825031
12788726 201 18261671455156440130
13248334 5 18051129490794952632
13540713 4 18266434607826117805
13631057 29 18261955142315419458
13690498 29 18187361017812013533
13692115 27 18343582936510267129
13785724 45 18341053003347066549
14347332 77 18337390436195214046
14400156 188 18115316695297812643
15021287 119 18342181098799810107
15064981 194 18124328112527091532
15538507 32 18337676421003779354
15927050 60 17692252250015768318
15968369 26 17682397305737006512
15980000 95 18411142445617427084
16087824 20 18122060911061026469
16990366 60 18262512705911048866
16991971 28 18341338867733238686
16992752 21 18410864231226769300
19246450 95 18269850714314260587
21049683 271 18187936126401566524
21781055 127 16413544240744585691
21796203 349 18120689969555974411
23559900 14 18192990642169732107
255183 451 18342173418633134341
3103668 31 18263077730913922853
32027 91 18263643030124537003
4409770 3 18119805812158219333
44880168 125 17346313753025862342
4516262 110 17835510902003031797
504843 32 17758109307322628309
5219985 9 18410576188469810410
5470011 282 17168148948927387542
58083652 198 18408320016896350259
5912855 24 18118965780757526658
6697151 62 18266153181010971063
6700243 42 17843429318436781692
9555976 147 17906719312566217058
9962374 69 18200869708019033863

> <PUBCHEM_SHAPE_MULTIPOLES>
683.64
22.96
6.39
1.58
0.02
13.29
0
-36.7
0
-0.01
0
0
-1.57
-0.91

> <PUBCHEM_SHAPE_SELFOVERLAP>
1472.948

> <PUBCHEM_SHAPE_VOLUME>
377.6

> <PUBCHEM_COORDINATE_TYPE>
2
5
10

$$$$
