3109350
  -OEChem-10062121533D

 48 52  0     0  0  0  0  0  0999 V2000
    1.5911    2.2505   -0.4647 O   0  0  0  0  0  0  0  0  0  0  0  0
   -1.7748    0.1123    1.8887 O   0  0  0  0  0  0  0  0  0  0  0  0
   -6.8628    0.7121    0.4055 O   0  0  0  0  0  0  0  0  0  0  0  0
    3.1041    0.4549   -0.0853 N   0  0  0  0  0  0  0  0  0  0  0  0
    2.8831   -0.9012   -0.0266 N   0  0  0  0  0  0  0  0  0  0  0  0
   -0.4431    0.1824   -0.7238 N   0  0  0  0  0  0  0  0  0  0  0  0
   -0.8900    1.2618   -0.2789 N   0  0  0  0  0  0  0  0  0  0  0  0
   -3.9925   -0.1675    2.2865 N   0  0  0  0  0  0  0  0  0  0  0  0
   -5.3029   -0.0187    1.9126 N   0  0  0  0  0  0  0  0  0  0  0  0
    1.5597   -1.1657   -0.2861 C   0  0  0  0  0  0  0  0  0  0  0  0
    0.8705   -0.0289   -0.4686 C   0  0  0  0  0  0  0  0  0  0  0  0
    1.8794    1.0711   -0.3475 C   0  0  0  0  0  0  0  0  0  0  0  0
    1.0666   -2.5467   -0.3501 C   0  0  0  0  0  0  0  0  0  0  0  0
    4.3818    1.0097    0.1446 C   0  0  0  0  0  0  0  0  0  0  0  0
   -3.2726    0.9172    0.2398 C   0  0  0  0  0  0  0  0  0  0  0  0
   -4.6059    1.0709   -0.1394 C   0  0  0  0  0  0  0  0  0  0  0  0
   -2.2500    1.3835   -0.5946 C   0  0  0  0  0  0  0  0  0  0  0  0
   -0.0051   -2.8788   -1.1876 C   0  0  0  0  0  0  0  0  0  0  0  0
    1.6647   -3.5473    0.4253 C   0  0  0  0  0  0  0  0  0  0  0  0
    4.5677    2.3995    0.1305 C   0  0  0  0  0  0  0  0  0  0  0  0
    5.4852    0.1797    0.3900 C   0  0  0  0  0  0  0  0  0  0  0  0
   -2.9358    0.2650    1.5196 C   0  0  0  0  0  0  0  0  0  0  0  0
   -4.9201    1.6925   -1.3537 C   0  0  0  0  0  0  0  0  0  0  0  0
   -2.5665    2.0019   -1.8046 C   0  0  0  0  0  0  0  0  0  0  0  0
   -5.6875    0.5804    0.7356 C   0  0  0  0  0  0  0  0  0  0  0  0
   -3.8987    2.1565   -2.1832 C   0  0  0  0  0  0  0  0  0  0  0  0
   -0.4715   -4.1920   -1.2491 C   0  0  0  0  0  0  0  0  0  0  0  0
    1.1982   -4.8604    0.3638 C   0  0  0  0  0  0  0  0  0  0  0  0
    5.8300    2.9478    0.3572 C   0  0  0  0  0  0  0  0  0  0  0  0
    6.7475    0.7281    0.6167 C   0  0  0  0  0  0  0  0  0  0  0  0
    0.1302   -5.1829   -0.4733 C   0  0  0  0  0  0  0  0  0  0  0  0
    6.9201    2.1122    0.6003 C   0  0  0  0  0  0  0  0  0  0  0  0
    3.5923   -1.5637   -0.3132 H   0  0  0  0  0  0  0  0  0  0  0  0
   -0.4838   -2.1421   -1.8265 H   0  0  0  0  0  0  0  0  0  0  0  0
    2.4937   -3.3242    1.0929 H   0  0  0  0  0  0  0  0  0  0  0  0
    3.7523    3.0902   -0.0530 H   0  0  0  0  0  0  0  0  0  0  0  0
    5.4005   -0.9025    0.4192 H   0  0  0  0  0  0  0  0  0  0  0  0
   -5.9510    1.8242   -1.6709 H   0  0  0  0  0  0  0  0  0  0  0  0
   -1.7819    2.3695   -2.4615 H   0  0  0  0  0  0  0  0  0  0  0  0
   -4.1425    2.6388   -3.1254 H   0  0  0  0  0  0  0  0  0  0  0  0
   -1.2994   -4.4445   -1.9051 H   0  0  0  0  0  0  0  0  0  0  0  0
    1.6655   -5.6319    0.9690 H   0  0  0  0  0  0  0  0  0  0  0  0
   -3.8391   -0.6251    3.1791 H   0  0  0  0  0  0  0  0  0  0  0  0
   -5.9903   -0.3809    2.5652 H   0  0  0  0  0  0  0  0  0  0  0  0
    5.9649    4.0255    0.3448 H   0  0  0  0  0  0  0  0  0  0  0  0
    7.5965    0.0780    0.8076 H   0  0  0  0  0  0  0  0  0  0  0  0
   -0.2322   -6.2055   -0.5219 H   0  0  0  0  0  0  0  0  0  0  0  0
    7.9028    2.5392    0.7773 H   0  0  0  0  0  0  0  0  0  0  0  0
  1 12  2  0  0  0  0
  2 22  2  0  0  0  0
  3 25  2  0  0  0  0
  4  5  1  0  0  0  0
  4 12  1  0  0  0  0
  4 14  1  0  0  0  0
  5 10  1  0  0  0  0
  5 33  1  0  0  0  0
  6  7  2  0  0  0  0
  6 11  1  0  0  0  0
  7 17  1  0  0  0  0
  8  9  1  0  0  0  0
  8 22  1  0  0  0  0
  8 43  1  0  0  0  0
  9 25  1  0  0  0  0
  9 44  1  0  0  0  0
 10 11  2  0  0  0  0
 10 13  1  0  0  0  0
 11 12  1  0  0  0  0
 13 18  2  0  0  0  0
 13 19  1  0  0  0  0
 14 20  2  0  0  0  0
 14 21  1  0  0  0  0
 15 16  2  0  0  0  0
 15 17  1  0  0  0  0
 15 22  1  0  0  0  0
 16 23  1  0  0  0  0
 16 25  1  0  0  0  0
 17 24  2  0  0  0  0
 18 27  1  0  0  0  0
 18 34  1  0  0  0  0
 19 28  2  0  0  0  0
 19 35  1  0  0  0  0
 20 29  1  0  0  0  0
 20 36  1  0  0  0  0
 21 30  2  0  0  0  0
 21 37  1  0  0  0  0
 23 26  2  0  0  0  0
 23 38  1  0  0  0  0
 24 26  1  0  0  0  0
 24 39  1  0  0  0  0
 26 40  1  0  0  0  0
 27 31  2  0  0  0  0
 27 41  1  0  0  0  0
 28 31  1  0  0  0  0
 28 42  1  0  0  0  0
 29 32  2  0  0  0  0
 29 45  1  0  0  0  0
 30 32  1  0  0  0  0
 30 46  1  0  0  0  0
 31 47  1  0  0  0  0
 32 48  1  0  0  0  0
M  END
> <PUBCHEM_COMPOUND_CID>
3109350

> <PUBCHEM_CONFORMER_RMSD>
0.8

> <PUBCHEM_CONFORMER_DIVERSEORDER>
1
10
6
3
9
8
12
13
7
4
2
5
11

> <PUBCHEM_MMFF94_PARTIAL_CHARGES>
48
1 -0.57
10 0.07
11 0.19
12 0.62
13 0.03
14 0.12
15 0.09
16 0.09
17 0.18
18 -0.15
19 -0.15
2 -0.57
20 -0.15
21 -0.15
22 0.54
23 -0.15
24 -0.15
25 0.54
26 -0.15
27 -0.15
28 -0.15
29 -0.15
3 -0.57
30 -0.15
31 -0.15
32 -0.15
33 0.4
34 0.15
35 0.15
36 0.15
37 0.15
38 0.15
39 0.15
4 -0.16
40 0.15
41 0.15
42 0.15
43 0.37
44 0.37
45 0.15
46 0.15
47 0.15
48 0.15
5 -0.52
6 -0.17
7 -0.18
8 -0.43
9 -0.43

> <PUBCHEM_EFFECTIVE_ROTOR_COUNT>
4

> <PUBCHEM_PHARMACOPHORE_FEATURES>
11
1 1 acceptor
1 2 acceptor
1 3 acceptor
1 5 donor
1 8 donor
1 9 donor
5 4 5 10 11 12 rings
6 13 18 19 27 28 31 rings
6 14 20 21 29 30 32 rings
6 15 16 17 23 24 26 rings
6 8 9 15 16 22 25 rings

> <PUBCHEM_HEAVY_ATOM_COUNT>
32

> <PUBCHEM_ATOM_DEF_STEREO_COUNT>
0

> <PUBCHEM_ATOM_UDEF_STEREO_COUNT>
0

> <PUBCHEM_BOND_DEF_STEREO_COUNT>
0

> <PUBCHEM_BOND_UDEF_STEREO_COUNT>
0

> <PUBCHEM_ISOTOPIC_ATOM_COUNT>
0

> <PUBCHEM_COMPONENT_COUNT>
1

> <PUBCHEM_CACTVS_TAUTO_COUNT>
12

> <PUBCHEM_CONFORMER_ID>
002F71E600000001

> <PUBCHEM_MMFF94_ENERGY>
113.5119

> <PUBCHEM_FEATURE_SELFOVERLAP>
57.398

> <PUBCHEM_SHAPE_FINGERPRINT>
10 15 18041276660420277072
10074138 170 18121204635787909586
11007060 377 18197485423849351116
11421498 54 17560523884849241417
11524674 6 18411983593439175434
11719270 70 18409163290580093896
11991303 11 18265059196753131566
12128747 34 16951117357942110474
12202916 173 17894909668356471211
12236239 1 17132116822970807965
12440605 4 18411411852021256234
12788726 201 17979332477271429558
13383668 1 17676195884722159019
13631057 29 17987223612294526183
13911987 19 18412820296024014085
140371 6 17969227741636292469
14068700 686 18262233296760834060
14790565 3 18410282623750836758
14866123 147 18338791347164023466
15183329 4 11959742563799453460
15219462 58 17980232741023384473
15775530 1 17394433712059089940
15927050 60 18411975884828331134
17138139 8 17485329526283010143
17913733 40 18411138017547420554
19315958 150 18339368462356969441
19319366 153 18272644628113812806
20505436 4 17632295653746975725
21033648 29 18340751724582837008
21781051 124 18114473280074702274
21796203 349 17693120481765791851
22223350 30 17982726673887560312
22224240 67 18341895216205374425
23559900 14 17902785263370550151
255183 313 18335693996895460780
3178227 256 18338798889026212714
38695281 34 18410004429970936302
4403749 210 18264483060680405425
469060 322 18261666082489904735
5104073 3 18042404634274019657
563151 74 18198926737865268977
59755656 520 18201439211711889518
6669772 16 18272091570209001206
6698420 124 18131079259691334232
7399639 24 18334578997441730621

> <PUBCHEM_SHAPE_MULTIPOLES>
611.05
14.71
5.31
1.54
6.07
10.54
-0.23
-16.1
-4.52
3.39
1.55
-2.75
-0.32
1.39

> <PUBCHEM_SHAPE_SELFOVERLAP>
1374.017

> <PUBCHEM_SHAPE_VOLUME>
318.1

> <PUBCHEM_COORDINATE_TYPE>
2
5
10

$$$$
