49830720
  -OEChem-10062121533D

 43 46  0     0  0  0  0  0  0999 V2000
   -2.4318    1.8011    2.5391 Cl  0  0  0  0  0  0  0  0  0  0  0  0
   -3.2722   -2.2189   -1.6657 O   0  0  0  0  0  0  0  0  0  0  0  0
   -4.8167    1.5865    0.7218 O   0  0  0  0  0  0  0  0  0  0  0  0
    2.3221   -0.9436    0.1821 N   0  0  0  0  0  0  0  0  0  0  0  0
   -0.9318   -2.2766   -0.1251 N   0  0  0  0  0  0  0  0  0  0  0  0
    0.9864   -0.9613   -0.0503 N   0  0  0  0  0  0  0  0  0  0  0  0
    4.3813   -0.2233    0.4009 N   0  0  0  0  0  0  0  0  0  0  0  0
    4.3674   -1.5768    0.6701 N   0  0  0  0  0  0  0  0  0  0  0  0
    3.1517    0.1378    0.1112 C   0  0  0  0  0  0  0  0  0  0  0  0
    3.1281   -1.9992    0.5363 C   0  0  0  0  0  0  0  0  0  0  0  0
    0.4213   -2.1392    0.0864 C   0  0  0  0  0  0  0  0  0  0  0  0
   -1.9081   -1.3081    0.0854 C   0  0  0  0  0  0  0  0  0  0  0  0
    2.7148    1.4690   -0.2333 C   0  0  0  0  0  0  0  0  0  0  0  0
    2.5165   -3.2580    0.6811 C   0  0  0  0  0  0  0  0  0  0  0  0
    1.2000   -3.3689    0.4710 C   0  0  0  0  0  0  0  0  0  0  0  0
   -3.0688   -1.2912   -0.6882 C   0  0  0  0  0  0  0  0  0  0  0  0
   -1.7191   -0.3489    1.0802 C   0  0  0  0  0  0  0  0  0  0  0  0
   -4.0402   -0.3149   -0.4669 C   0  0  0  0  0  0  0  0  0  0  0  0
   -3.8511    0.6443    0.5279 C   0  0  0  0  0  0  0  0  0  0  0  0
    3.2484    2.1108   -1.3509 C   0  0  0  0  0  0  0  0  0  0  0  0
    1.7589    2.1143    0.5511 C   0  0  0  0  0  0  0  0  0  0  0  0
   -2.6905    0.6274    1.3015 C   0  0  0  0  0  0  0  0  0  0  0  0
    2.8262    3.3979   -1.6841 C   0  0  0  0  0  0  0  0  0  0  0  0
    1.3365    3.4012    0.2180 C   0  0  0  0  0  0  0  0  0  0  0  0
    1.8703    4.0431   -0.8996 C   0  0  0  0  0  0  0  0  0  0  0  0
   -2.7968   -1.8983   -2.9714 C   0  0  0  0  0  0  0  0  0  0  0  0
   -4.7026    2.7939   -0.0284 C   0  0  0  0  0  0  0  0  0  0  0  0
   -1.2957   -3.1921   -0.3747 H   0  0  0  0  0  0  0  0  0  0  0  0
    3.1120   -4.1197    0.9596 H   0  0  0  0  0  0  0  0  0  0  0  0
    0.6774   -4.3126    0.5692 H   0  0  0  0  0  0  0  0  0  0  0  0
   -0.8349   -0.3632    1.7131 H   0  0  0  0  0  0  0  0  0  0  0  0
   -4.9453   -0.3027   -1.0692 H   0  0  0  0  0  0  0  0  0  0  0  0
    3.9935    1.6214   -1.9738 H   0  0  0  0  0  0  0  0  0  0  0  0
    1.3347    1.6337    1.4297 H   0  0  0  0  0  0  0  0  0  0  0  0
    3.2413    3.8976   -2.5545 H   0  0  0  0  0  0  0  0  0  0  0  0
    0.5924    3.9036    0.8292 H   0  0  0  0  0  0  0  0  0  0  0  0
    1.5413    5.0451   -1.1589 H   0  0  0  0  0  0  0  0  0  0  0  0
   -3.0166   -2.7412   -3.6323 H   0  0  0  0  0  0  0  0  0  0  0  0
   -1.7145   -1.7352   -2.9612 H   0  0  0  0  0  0  0  0  0  0  0  0
   -3.3066   -1.0096   -3.3567 H   0  0  0  0  0  0  0  0  0  0  0  0
   -3.7378    3.2792    0.1488 H   0  0  0  0  0  0  0  0  0  0  0  0
   -4.8266    2.5894   -1.0966 H   0  0  0  0  0  0  0  0  0  0  0  0
   -5.4984    3.4721    0.2915 H   0  0  0  0  0  0  0  0  0  0  0  0
  1 22  1  0  0  0  0
  2 16  1  0  0  0  0
  2 26  1  0  0  0  0
  3 19  1  0  0  0  0
  3 27  1  0  0  0  0
  4  6  1  0  0  0  0
  4  9  1  0  0  0  0
  4 10  1  0  0  0  0
  5 11  1  0  0  0  0
  5 12  1  0  0  0  0
  5 28  1  0  0  0  0
  6 11  2  0  0  0  0
  7  8  1  0  0  0  0
  7  9  2  0  0  0  0
  8 10  2  0  0  0  0
  9 13  1  0  0  0  0
 10 14  1  0  0  0  0
 11 15  1  0  0  0  0
 12 16  1  0  0  0  0
 12 17  2  0  0  0  0
 13 20  2  0  0  0  0
 13 21  1  0  0  0  0
 14 15  2  0  0  0  0
 14 29  1  0  0  0  0
 15 30  1  0  0  0  0
 16 18  2  0  0  0  0
 17 22  1  0  0  0  0
 17 31  1  0  0  0  0
 18 19  1  0  0  0  0
 18 32  1  0  0  0  0
 19 22  2  0  0  0  0
 20 23  1  0  0  0  0
 20 33  1  0  0  0  0
 21 24  2  0  0  0  0
 21 34  1  0  0  0  0
 23 25  2  0  0  0  0
 23 35  1  0  0  0  0
 24 25  1  0  0  0  0
 24 36  1  0  0  0  0
 25 37  1  0  0  0  0
 26 38  1  0  0  0  0
 26 39  1  0  0  0  0
 26 40  1  0  0  0  0
 27 41  1  0  0  0  0
 27 42  1  0  0  0  0
 27 43  1  0  0  0  0
M  END
> <PUBCHEM_COMPOUND_CID>
49830720

> <PUBCHEM_CONFORMER_RMSD>
0.8

> <PUBCHEM_CONFORMER_DIVERSEORDER>
2
31
50
15
18
47
14
36
19
6
56
35
32
37
24
25
23
55
3
11
20
28
29
51
8
49
44
22
17
27
42
39
5
26
54
13
12
7
41
43
9
33
16
48
53
4
38
30
52
21
46
1
34
45
10
40

> <PUBCHEM_MMFF94_PARTIAL_CHARGES>
37
1 -0.18
10 0.14
11 0.49
12 0.1
13 0.05
14 -0.11
15 -0.14
16 0.08
17 -0.15
18 -0.15
19 0.08
2 -0.36
20 -0.15
21 -0.15
22 0.18
23 -0.15
24 -0.15
25 -0.15
26 0.28
27 0.28
28 0.4
29 0.15
3 -0.36
30 0.15
31 0.15
32 0.15
33 0.15
34 0.15
35 0.15
36 0.15
37 0.15
4 0.51
5 -0.55
6 -0.65
7 -0.34
8 -0.34
9 0.13

> <PUBCHEM_EFFECTIVE_ROTOR_COUNT>
5

> <PUBCHEM_PHARMACOPHORE_FEATURES>
10
1 2 acceptor
1 3 acceptor
1 5 donor
3 4 7 9 cation
3 4 8 10 cation
3 5 6 11 cation
5 4 7 8 9 10 rings
6 12 16 17 18 19 22 rings
6 13 20 21 23 24 25 rings
6 4 6 10 11 14 15 rings

> <PUBCHEM_HEAVY_ATOM_COUNT>
27

> <PUBCHEM_ATOM_DEF_STEREO_COUNT>
0

> <PUBCHEM_ATOM_UDEF_STEREO_COUNT>
0

> <PUBCHEM_BOND_DEF_STEREO_COUNT>
0

> <PUBCHEM_BOND_UDEF_STEREO_COUNT>
0

> <PUBCHEM_ISOTOPIC_ATOM_COUNT>
0

> <PUBCHEM_COMPONENT_COUNT>
1

> <PUBCHEM_CACTVS_TAUTO_COUNT>
2

> <PUBCHEM_CONFORMER_ID>
02F85B4000000002

> <PUBCHEM_MMFF94_ENERGY>
102.8693

> <PUBCHEM_FEATURE_SELFOVERLAP>
53.361

> <PUBCHEM_SHAPE_FINGERPRINT>
10940486 97 18131067113313500438
11059048 146 18047206416121397684
11513181 2 17055559855431438309
11640471 11 18272381844998304555
12156800 1 11377584356946834808
12539773 59 18059579156434206477
12788726 201 17773895245075640833
13004483 165 17903065638856777890
13583140 156 18115886126409026699
14117953 113 17909830934018735989
14468879 13 17098596162430129415
14790565 3 18190470548644919828
151778 21 18188504582329111100
15210252 30 18114760235149926444
15276724 80 17691982466600213118
15475509 84 16961532842265811827
17980427 23 18200296810741408906
192875 21 18270388516295458402
20028762 73 16467245139531297324
20511986 3 18199733791514421944
20567600 299 18411414003535386416
20739085 24 18335700495392352962
21298829 104 18198342858040809473
2132832 1 18127383804782886087
21860390 5 18340772546293455974
21864079 5 18338808921357165829
22113638 7 18268427936750087745
22393880 68 18200040675739864156
22749437 52 18122057869315988104
23227448 37 18411981330708952103
23558518 356 18265611159526484602
238 59 18190457362472049256
340366 18 18129667378949458383
4409770 3 14596898792187079911
474 4 18407760352107958034
5048184 11 18193288604682093793
513202 73 17398677801020105098
9981440 41 17760639670071657824

> <PUBCHEM_SHAPE_MULTIPOLES>
520.87
8.95
5.05
1.76
4.12
1.93
0.68
2.5
0.39
-3.33
0.88
1.6
0.12
-3.55

> <PUBCHEM_SHAPE_SELFOVERLAP>
1137.72

> <PUBCHEM_SHAPE_VOLUME>
284.4

> <PUBCHEM_COORDINATE_TYPE>
2
5
10

$$$$
