49842778
  -OEChem-10052115143D

 48 49  0     1  0  0  0  0  0999 V2000
    0.5677   -1.7405    0.0034 O   0  0  0  0  0  0  0  0  0  0  0  0
   -4.6394    1.4759   -0.8401 O   0  0  0  0  0  0  0  0  0  0  0  0
   -1.9709   -2.4507   -0.8758 O   0  0  0  0  0  0  0  0  0  0  0  0
    4.8402    1.4909   -0.2015 O   0  0  0  0  0  0  0  0  0  0  0  0
   -0.0899   -1.7809    2.2261 O   0  0  0  0  0  0  0  0  0  0  0  0
    0.1180    2.4930    1.5142 C   0  0  0  0  0  0  0  0  0  0  0  0
    1.1134    1.9860    0.4693 C   0  0  0  0  0  0  0  0  0  0  0  0
   -0.7391    1.3634    2.1056 C   0  0  0  0  0  0  0  0  0  0  0  0
    2.1049    3.0696    0.0337 C   0  0  0  0  0  0  0  0  0  0  0  0
   -1.6132    0.6638    1.0894 C   0  0  0  0  0  0  0  0  0  0  0  0
    2.9597    2.6378   -1.1591 C   0  0  0  0  0  0  0  0  0  0  0  0
   -1.3489   -0.6204    0.5782 C   0  0  0  0  0  0  0  0  0  0  0  0
    1.6931   -2.6200    0.2391 C   0  0  2  0  0  0  0  0  0  0  0  0
   -2.7340    1.3533    0.5928 C   0  0  0  0  0  0  0  0  0  0  0  0
    2.7732   -2.3045   -0.8064 C   0  0  0  0  0  0  0  0  0  0  0  0
    3.7944    1.4136   -0.8412 C   0  0  0  0  0  0  0  0  0  0  0  0
   -2.1832   -1.1918   -0.3942 C   0  0  0  0  0  0  0  0  0  0  0  0
   -0.2263   -1.4426    1.0635 C   0  0  0  0  0  0  0  0  0  0  0  0
   -3.5617    0.7849   -0.3773 C   0  0  0  0  0  0  0  0  0  0  0  0
   -3.2854   -0.4862   -0.8711 C   0  0  0  0  0  0  0  0  0  0  0  0
    3.4231   -0.9786   -0.5241 C   0  0  0  0  0  0  0  0  0  0  0  0
    3.2379    0.1069   -1.2858 C   0  0  0  0  0  0  0  0  0  0  0  0
    1.2097   -4.0598    0.0923 C   0  0  0  0  0  0  0  0  0  0  0  0
   -5.4433    0.8370   -1.8308 C   0  0  0  0  0  0  0  0  0  0  0  0
   -0.5211    3.2639    1.0669 H   0  0  0  0  0  0  0  0  0  0  0  0
    0.6656    2.9731    2.3346 H   0  0  0  0  0  0  0  0  0  0  0  0
    1.6634    1.1394    0.8946 H   0  0  0  0  0  0  0  0  0  0  0  0
    0.5699    1.6206   -0.4098 H   0  0  0  0  0  0  0  0  0  0  0  0
   -0.0891    0.6572    2.6303 H   0  0  0  0  0  0  0  0  0  0  0  0
   -1.3894    1.7836    2.8844 H   0  0  0  0  0  0  0  0  0  0  0  0
    2.7528    3.3271    0.8805 H   0  0  0  0  0  0  0  0  0  0  0  0
    1.5582    3.9792   -0.2420 H   0  0  0  0  0  0  0  0  0  0  0  0
    3.6439    3.4444   -1.4468 H   0  0  0  0  0  0  0  0  0  0  0  0
    2.3279    2.4433   -2.0333 H   0  0  0  0  0  0  0  0  0  0  0  0
    2.0925   -2.4644    1.2496 H   0  0  0  0  0  0  0  0  0  0  0  0
   -2.9629    2.3505    0.9642 H   0  0  0  0  0  0  0  0  0  0  0  0
    3.5541   -3.0740   -0.7914 H   0  0  0  0  0  0  0  0  0  0  0  0
    2.3323   -2.3044   -1.8112 H   0  0  0  0  0  0  0  0  0  0  0  0
   -3.9000   -0.9743   -1.6200 H   0  0  0  0  0  0  0  0  0  0  0  0
    4.0319   -0.9221    0.3750 H   0  0  0  0  0  0  0  0  0  0  0  0
    2.5889    0.0933   -2.1536 H   0  0  0  0  0  0  0  0  0  0  0  0
    2.0292   -4.7702    0.2375 H   0  0  0  0  0  0  0  0  0  0  0  0
    0.4264   -4.2822    0.8246 H   0  0  0  0  0  0  0  0  0  0  0  0
    0.7704   -4.2262   -0.8975 H   0  0  0  0  0  0  0  0  0  0  0  0
   -2.6537   -2.6682   -1.5329 H   0  0  0  0  0  0  0  0  0  0  0  0
   -4.8793    0.6558   -2.7522 H   0  0  0  0  0  0  0  0  0  0  0  0
   -5.9118   -0.0741   -1.4433 H   0  0  0  0  0  0  0  0  0  0  0  0
   -6.2534    1.5288   -2.0841 H   0  0  0  0  0  0  0  0  0  0  0  0
  1 13  1  0  0  0  0
  1 18  1  0  0  0  0
  2 19  1  0  0  0  0
  2 24  1  0  0  0  0
  3 17  1  0  0  0  0
  3 45  1  0  0  0  0
  4 16  2  0  0  0  0
  5 18  2  0  0  0  0
  6  7  1  0  0  0  0
  6  8  1  0  0  0  0
  6 25  1  0  0  0  0
  6 26  1  0  0  0  0
  7  9  1  0  0  0  0
  7 27  1  0  0  0  0
  7 28  1  0  0  0  0
  8 10  1  0  0  0  0
  8 29  1  0  0  0  0
  8 30  1  0  0  0  0
  9 11  1  0  0  0  0
  9 31  1  0  0  0  0
  9 32  1  0  0  0  0
 10 12  2  0  0  0  0
 10 14  1  0  0  0  0
 11 16  1  0  0  0  0
 11 33  1  0  0  0  0
 11 34  1  0  0  0  0
 12 17  1  0  0  0  0
 12 18  1  0  0  0  0
 13 15  1  0  0  0  0
 13 23  1  0  0  0  0
 13 35  1  0  0  0  0
 14 19  2  0  0  0  0
 14 36  1  0  0  0  0
 15 21  1  0  0  0  0
 15 37  1  0  0  0  0
 15 38  1  0  0  0  0
 16 22  1  0  0  0  0
 17 20  2  0  0  0  0
 19 20  1  0  0  0  0
 20 39  1  0  0  0  0
 21 22  2  0  0  0  0
 21 40  1  0  0  0  0
 22 41  1  0  0  0  0
 23 42  1  0  0  0  0
 23 43  1  0  0  0  0
 23 44  1  0  0  0  0
 24 46  1  0  0  0  0
 24 47  1  0  0  0  0
 24 48  1  0  0  0  0
M  END
> <PUBCHEM_COMPOUND_CID>
49842778

> <PUBCHEM_CONFORMER_RMSD>
0.6

> <PUBCHEM_CONFORMER_DIVERSEORDER>
1
21
15
20
22
11
12
7
8
16
3
17
18
6
2
19
9
14
5
4
10
13

> <PUBCHEM_MMFF94_PARTIAL_CHARGES>
25
1 -0.43
10 -0.14
11 0.06
12 0.09
13 0.28
14 -0.15
15 0.14
16 0.49
17 0.08
18 0.63
19 0.08
2 -0.36
20 -0.15
21 -0.29
22 -0.14
24 0.28
3 -0.53
36 0.15
39 0.15
4 -0.57
40 0.15
41 0.15
45 0.45
5 -0.57
8 0.14

> <PUBCHEM_EFFECTIVE_ROTOR_COUNT>
2.6

> <PUBCHEM_PHARMACOPHORE_FEATURES>
5
1 2 acceptor
1 3 donor
1 4 acceptor
1 5 acceptor
6 10 12 14 17 19 20 rings

> <PUBCHEM_HEAVY_ATOM_COUNT>
24

> <PUBCHEM_ATOM_DEF_STEREO_COUNT>
1

> <PUBCHEM_ATOM_UDEF_STEREO_COUNT>
0

> <PUBCHEM_BOND_DEF_STEREO_COUNT>
1

> <PUBCHEM_BOND_UDEF_STEREO_COUNT>
0

> <PUBCHEM_ISOTOPIC_ATOM_COUNT>
0

> <PUBCHEM_COMPONENT_COUNT>
1

> <PUBCHEM_CACTVS_TAUTO_COUNT>
65

> <PUBCHEM_CONFORMER_ID>
02F88A5A00000001

> <PUBCHEM_MMFF94_ENERGY>
62.6819

> <PUBCHEM_FEATURE_SELFOVERLAP>
25.373

> <PUBCHEM_SHAPE_FINGERPRINT>
10675989 125 18410573955151133432
10756046 5 18341604949889564503
10764073 3 17759574058779102499
107951 10 17604147154720737224
11273773 38 17038935145722399285
11370993 70 18265052612304639380
11578080 2 17026318464504130129
12035759 4 18272934873666981873
12156800 1 16522119695163265808
12661589 4 15767209610479526045
12769317 202 18334848403169780492
12788726 201 17274274829031155369
14251757 17 17971181539354183277
14468879 13 17750243658502746437
14790565 3 17913221871150645969
14931854 50 18343306976329912276
15064986 96 12830579949300460944
15322687 12 18409721872599410613
17492 54 18412265008391910605
192875 21 18337674088509282354
19765921 60 18186802473973246651
20715895 44 18335411327358977916
22749437 52 18265345078318665444
22907989 373 17539712595057491660
23227448 37 18335704970320897119
23419403 2 17826550758119231729
23559900 14 17986670574751694664
238 59 18410299150442099978
2748010 2 16398306413288336170
3117164 225 9222964715843620895
474 4 18334860493798487698
6669772 16 17771607221107334985
7471813 234 18052810360784601342
9981440 41 18264207088131898866

> <PUBCHEM_SHAPE_MULTIPOLES>
464.56
8.07
4.12
1.64
4.01
1.84
0.45
-3.63
-5.63
-3.52
0.32
0.85
-0.39
-0.32

> <PUBCHEM_SHAPE_SELFOVERLAP>
961.88

> <PUBCHEM_SHAPE_VOLUME>
264

> <PUBCHEM_COORDINATE_TYPE>
2
5
10

$$$$
