22911602
  -OEChem-10062122033D

 62 67  0     0  0  0  0  0  0999 V2000
    0.0638   -3.9927   -0.2087 O   0  0  0  0  0  0  0  0  0  0  0  0
   -4.1597   -2.8025   -1.5130 O   0  0  0  0  0  0  0  0  0  0  0  0
    1.8706   -0.0914    0.7252 N   0  0  0  0  0  0  0  0  0  0  0  0
    5.7200    0.4333   -1.0911 N   0  0  0  0  0  0  0  0  0  0  0  0
   -2.1154   -3.7671   -0.9800 N   0  0  0  0  0  0  0  0  0  0  0  0
   -4.5052    1.2752    0.1004 N   0  0  0  0  0  0  0  0  0  0  0  0
    3.2486    0.3420    0.4718 C   0  0  0  0  0  0  0  0  0  0  0  0
    3.3797    1.1876   -0.8033 C   0  0  0  0  0  0  0  0  0  0  0  0
    4.2422   -0.8288    0.4427 C   0  0  0  0  0  0  0  0  0  0  0  0
    4.8337    1.6047   -1.0376 C   0  0  0  0  0  0  0  0  0  0  0  0
    5.6634   -0.3351    0.1605 C   0  0  0  0  0  0  0  0  0  0  0  0
    1.1093    0.2594    1.8173 C   0  0  0  0  0  0  0  0  0  0  0  0
    1.1548   -0.9108   -0.1058 C   0  0  0  0  0  0  0  0  0  0  0  0
    7.0944    0.8458   -1.3751 C   0  0  0  0  0  0  0  0  0  0  0  0
   -0.0893   -1.0970    0.4517 C   0  0  0  0  0  0  0  0  0  0  0  0
   -0.1325   -0.3621    1.6695 C   0  0  0  0  0  0  0  0  0  0  0  0
   -1.1219   -1.8973   -0.1296 C   0  0  0  0  0  0  0  0  0  0  0  0
    1.4220    1.0711    2.9137 C   0  0  0  0  0  0  0  0  0  0  0  0
    8.0105   -0.3577   -1.5181 C   0  0  0  0  0  0  0  0  0  0  0  0
   -1.1118   -0.1654    2.6632 C   0  0  0  0  0  0  0  0  0  0  0  0
   -2.3594   -1.5449   -0.5235 C   0  0  0  0  0  0  0  0  0  0  0  0
    0.4348    1.2517    3.8866 C   0  0  0  0  0  0  0  0  0  0  0  0
   -3.0133   -0.2757   -0.4433 C   0  0  0  0  0  0  0  0  0  0  0  0
   -0.9454   -3.3425   -0.4235 C   0  0  0  0  0  0  0  0  0  0  0  0
   -0.8133    0.6439    3.7654 C   0  0  0  0  0  0  0  0  0  0  0  0
   -3.0221   -2.7536   -1.0766 C   0  0  0  0  0  0  0  0  0  0  0  0
   -2.6103    0.9552   -1.0326 C   0  0  0  0  0  0  0  0  0  0  0  0
   -4.1814   -0.0469    0.2469 C   0  0  0  0  0  0  0  0  0  0  0  0
   -3.5634    1.9117   -0.6761 C   0  0  0  0  0  0  0  0  0  0  0  0
   -1.5229    1.3487   -1.8378 C   0  0  0  0  0  0  0  0  0  0  0  0
   -3.4829    3.2473   -1.0860 C   0  0  0  0  0  0  0  0  0  0  0  0
   -5.6726    1.8982    0.6861 C   0  0  0  0  0  0  0  0  0  0  0  0
   -1.4294    2.6812   -2.2553 C   0  0  0  0  0  0  0  0  0  0  0  0
   -2.3956    3.6144   -1.8840 C   0  0  0  0  0  0  0  0  0  0  0  0
    3.5387    0.9842    1.3105 H   0  0  0  0  0  0  0  0  0  0  0  0
    3.0210    0.6262   -1.6757 H   0  0  0  0  0  0  0  0  0  0  0  0
    2.7486    2.0817   -0.7271 H   0  0  0  0  0  0  0  0  0  0  0  0
    4.2214   -1.3614    1.4016 H   0  0  0  0  0  0  0  0  0  0  0  0
    3.9544   -1.5579   -0.3259 H   0  0  0  0  0  0  0  0  0  0  0  0
    5.1497    2.2989   -0.2478 H   0  0  0  0  0  0  0  0  0  0  0  0
    4.8808    2.1504   -1.9879 H   0  0  0  0  0  0  0  0  0  0  0  0
    6.2844   -1.2347    0.1089 H   0  0  0  0  0  0  0  0  0  0  0  0
    6.0217    0.2652    1.0072 H   0  0  0  0  0  0  0  0  0  0  0  0
    1.5840   -1.2928   -1.0231 H   0  0  0  0  0  0  0  0  0  0  0  0
    7.1149    1.3952   -2.3246 H   0  0  0  0  0  0  0  0  0  0  0  0
    7.4864    1.5189   -0.6022 H   0  0  0  0  0  0  0  0  0  0  0  0
    2.3863    1.5530    3.0273 H   0  0  0  0  0  0  0  0  0  0  0  0
    8.9593   -0.0423   -1.9667 H   0  0  0  0  0  0  0  0  0  0  0  0
    7.5790   -1.1220   -2.1735 H   0  0  0  0  0  0  0  0  0  0  0  0
    8.2588   -0.8129   -0.5544 H   0  0  0  0  0  0  0  0  0  0  0  0
   -2.0877   -0.6366    2.5927 H   0  0  0  0  0  0  0  0  0  0  0  0
    0.6451    1.8760    4.7513 H   0  0  0  0  0  0  0  0  0  0  0  0
   -1.5643    0.7977    4.5358 H   0  0  0  0  0  0  0  0  0  0  0  0
   -2.2898   -4.7184   -1.2835 H   0  0  0  0  0  0  0  0  0  0  0  0
   -4.8053   -0.7129    0.8292 H   0  0  0  0  0  0  0  0  0  0  0  0
   -0.7634    0.6360   -2.1454 H   0  0  0  0  0  0  0  0  0  0  0  0
   -4.2316    3.9786   -0.8005 H   0  0  0  0  0  0  0  0  0  0  0  0
   -6.2421    1.1550    1.2500 H   0  0  0  0  0  0  0  0  0  0  0  0
   -6.2892    2.3024   -0.1207 H   0  0  0  0  0  0  0  0  0  0  0  0
   -5.3387    2.6946    1.3561 H   0  0  0  0  0  0  0  0  0  0  0  0
   -0.5936    2.9899   -2.8777 H   0  0  0  0  0  0  0  0  0  0  0  0
   -2.3034    4.6441   -2.2198 H   0  0  0  0  0  0  0  0  0  0  0  0
  1 24  2  0  0  0  0
  2 26  2  0  0  0  0
  3  7  1  0  0  0  0
  3 12  1  0  0  0  0
  3 13  1  0  0  0  0
  4 10  1  0  0  0  0
  4 11  1  0  0  0  0
  4 14  1  0  0  0  0
  5 24  1  0  0  0  0
  5 26  1  0  0  0  0
  5 54  1  0  0  0  0
  6 28  1  0  0  0  0
  6 29  1  0  0  0  0
  6 32  1  0  0  0  0
  7  8  1  0  0  0  0
  7  9  1  0  0  0  0
  7 35  1  0  0  0  0
  8 10  1  0  0  0  0
  8 36  1  0  0  0  0
  8 37  1  0  0  0  0
  9 11  1  0  0  0  0
  9 38  1  0  0  0  0
  9 39  1  0  0  0  0
 10 40  1  0  0  0  0
 10 41  1  0  0  0  0
 11 42  1  0  0  0  0
 11 43  1  0  0  0  0
 12 16  1  0  0  0  0
 12 18  2  0  0  0  0
 13 15  2  0  0  0  0
 13 44  1  0  0  0  0
 14 19  1  0  0  0  0
 14 45  1  0  0  0  0
 14 46  1  0  0  0  0
 15 16  1  0  0  0  0
 15 17  1  0  0  0  0
 16 20  2  0  0  0  0
 17 21  2  0  0  0  0
 17 24  1  0  0  0  0
 18 22  1  0  0  0  0
 18 47  1  0  0  0  0
 19 48  1  0  0  0  0
 19 49  1  0  0  0  0
 19 50  1  0  0  0  0
 20 25  1  0  0  0  0
 20 51  1  0  0  0  0
 21 23  1  0  0  0  0
 21 26  1  0  0  0  0
 22 25  2  0  0  0  0
 22 52  1  0  0  0  0
 23 27  1  0  0  0  0
 23 28  2  0  0  0  0
 25 53  1  0  0  0  0
 27 29  1  0  0  0  0
 27 30  2  0  0  0  0
 28 55  1  0  0  0  0
 29 31  2  0  0  0  0
 30 33  1  0  0  0  0
 30 56  1  0  0  0  0
 31 34  1  0  0  0  0
 31 57  1  0  0  0  0
 32 58  1  0  0  0  0
 32 59  1  0  0  0  0
 32 60  1  0  0  0  0
 33 34  2  0  0  0  0
 33 61  1  0  0  0  0
 34 62  1  0  0  0  0
M  END
> <PUBCHEM_COMPOUND_CID>
22911602

> <PUBCHEM_CONFORMER_RMSD>
0.8

> <PUBCHEM_CONFORMER_DIVERSEORDER>
1
17
94
36
97
62
42
4
50
108
26
93
60
123
110
31
54
105
116
72
29
35
90
99
104
48
25
121
100
6
3
40
85
76
88
80
13
128
18
45
114
10
113
16
44
125
9
24
124
46
52
57
92
122
103
117
127
70
12
33
106
98
129
49
8
82
130
84
22
27
96
107
66
68
112
78
83
64
43
23
58
109
32
77
7
91
81
2
102
95
74
19
65
69
5
73
75
39
41
47
111
120
115
14
53
86
101
21
118
15
71
119
89
37
56
126
11
87
59
34
55
38
79
61
63
20
67
28
51
30

> <PUBCHEM_MMFF94_PARTIAL_CHARGES>
40
1 -0.57
10 0.27
11 0.27
12 -0.15
13 -0.3
14 0.27
15 -0.05
17 0.06
18 -0.15
2 -0.57
20 -0.15
21 0.06
22 -0.15
23 -0.05
24 0.62
25 -0.15
26 0.62
28 -0.3
29 -0.15
3 0.05
30 -0.15
31 -0.15
32 0.26
33 -0.15
34 -0.15
4 -0.81
44 0.15
47 0.15
5 -0.49
51 0.15
52 0.15
53 0.15
54 0.37
55 0.15
56 0.15
57 0.15
6 0.05
61 0.15
62 0.15
7 0.26

> <PUBCHEM_EFFECTIVE_ROTOR_COUNT>
5.4

> <PUBCHEM_PHARMACOPHORE_FEATURES>
12
1 1 acceptor
1 2 acceptor
1 3 cation
1 4 cation
1 5 donor
1 6 cation
5 3 12 13 15 16 rings
5 5 17 21 24 26 rings
5 6 23 27 28 29 rings
6 12 16 18 20 22 25 rings
6 27 29 30 31 33 34 rings
6 4 7 8 9 10 11 rings

> <PUBCHEM_HEAVY_ATOM_COUNT>
34

> <PUBCHEM_ATOM_DEF_STEREO_COUNT>
0

> <PUBCHEM_ATOM_UDEF_STEREO_COUNT>
0

> <PUBCHEM_BOND_DEF_STEREO_COUNT>
0

> <PUBCHEM_BOND_UDEF_STEREO_COUNT>
0

> <PUBCHEM_ISOTOPIC_ATOM_COUNT>
0

> <PUBCHEM_COMPONENT_COUNT>
1

> <PUBCHEM_CACTVS_TAUTO_COUNT>
3

> <PUBCHEM_CONFORMER_ID>
015D9A7200000001

> <PUBCHEM_MMFF94_ENERGY>
62.5912

> <PUBCHEM_FEATURE_SELFOVERLAP>
61.083

> <PUBCHEM_SHAPE_FINGERPRINT>
10165383 225 18271527499226468753
10577160 183 18262520287582867034
10674148 151 16056319414800955017
131258 43 17836085950193043279
13782708 43 17773871089562961375
14114206 34 17417522493710989905
14279260 333 17059506127808518990
14713325 29 18187652426584505539
14840074 17 18113332003905567149
14910302 57 18128525162498280718
14955137 171 17974006451815998495
15021287 119 17170930597533986122
15183329 4 18260826008551527822
15297060 5 18413103949387290541
15575132 122 17968369057730690165
15968369 153 17824562961350775548
19315092 285 11061593799207163929
19958102 18 18413384350380038990
21033650 10 18334855043891009224
21304303 282 17487070959443793752
21756936 100 17385444323711717968
21987440 362 17259293862896702192
23536364 44 17775571952583525082
244849 19 17171268138618159394
3610482 184 17676784132058749438
392239 28 16516269369838582713
44802255 64 18262534649426224598
484985 159 17274556398180771246
5252454 2 18270948043634412697
5265222 85 18340491166143564062
531348 171 18334016069448650110
550186 7 17677629591232064643
57527295 17 17417802912104334895
5951187 136 16597572516667998149
59755656 520 18130521742465132850
7288768 16 16298391227587918016

> <PUBCHEM_SHAPE_MULTIPOLES>
668.04
12.7
3.86
3.01
26.17
1.53
-4.12
-5
7.58
-5.38
3.12
-0.1
-1.02
-0.63

> <PUBCHEM_SHAPE_SELFOVERLAP>
1496.175

> <PUBCHEM_SHAPE_VOLUME>
357

> <PUBCHEM_COORDINATE_TYPE>
2
5
10

$$$$
