3662552
  -OEChem-10062121533D

 51 54  0     0  0  0  0  0  0999 V2000
   -0.0008    1.8178   -0.0760 O   0  0  0  0  0  0  0  0  0  0  0  0
   -6.6211   -0.4080   -0.0002 O   0  0  0  0  0  0  0  0  0  0  0  0
    5.8160   -1.7373    0.3699 O   0  0  0  0  0  0  0  0  0  0  0  0
   -3.0393    1.4504   -0.1041 N   0  0  0  0  0  0  0  0  0  0  0  0
   -3.1843   -0.9487    0.0761 N   0  0  0  0  0  0  0  0  0  0  0  0
   -2.3899   -2.0275    0.1675 N   0  0  0  0  0  0  0  0  0  0  0  0
   -1.1339   -1.5950    0.1490 N   0  0  0  0  0  0  0  0  0  0  0  0
    1.2527   -0.1086    0.0628 N   0  0  0  0  0  0  0  0  0  0  0  0
   -5.3029    0.0515   -0.0210 N   0  0  0  0  0  0  0  0  0  0  0  0
   -6.6694   -1.7997    0.1031 N   0  0  0  0  0  0  0  0  0  0  0  0
   -4.9221   -3.4413    0.2446 N   0  0  0  0  0  0  0  0  0  0  0  0
    2.4126    0.5915    0.0464 N   0  0  0  0  0  0  0  0  0  0  0  0
   -3.7014    3.6493    0.4163 C   0  0  0  0  0  0  0  0  0  0  0  0
   -4.2468    3.2848   -0.9526 C   0  0  0  0  0  0  0  0  0  0  0  0
   -3.3979    2.2884    1.0376 C   0  0  0  0  0  0  0  0  0  0  0  0
   -3.3712    2.1050   -1.3671 C   0  0  0  0  0  0  0  0  0  0  0  0
   -2.4645    0.2087   -0.0031 C   0  0  0  0  0  0  0  0  0  0  0  0
   -1.1603   -0.2320    0.0452 C   0  0  0  0  0  0  0  0  0  0  0  0
   -4.5864   -1.0555    0.0695 C   0  0  0  0  0  0  0  0  0  0  0  0
    0.0242    0.5681   -0.0026 C   0  0  0  0  0  0  0  0  0  0  0  0
   -5.3917   -2.1730    0.1447 C   0  0  0  0  0  0  0  0  0  0  0  0
    4.8264    0.4364    0.1491 C   0  0  0  0  0  0  0  0  0  0  0  0
    3.4719   -0.1438    0.1475 C   0  0  0  0  0  0  0  0  0  0  0  0
    5.9380   -0.3844    0.2598 C   0  0  0  0  0  0  0  0  0  0  0  0
    4.9569    1.8124    0.0389 C   0  0  0  0  0  0  0  0  0  0  0  0
    7.2116    0.1847    0.2605 C   0  0  0  0  0  0  0  0  0  0  0  0
    6.2306    2.3813    0.0396 C   0  0  0  0  0  0  0  0  0  0  0  0
    7.3578    1.5675    0.1504 C   0  0  0  0  0  0  0  0  0  0  0  0
    6.4322   -2.5276   -0.6445 C   0  0  0  0  0  0  0  0  0  0  0  0
    5.6532   -3.8155   -0.8075 C   0  0  0  0  0  0  0  0  0  0  0  0
   -2.7760    4.2280    0.3085 H   0  0  0  0  0  0  0  0  0  0  0  0
   -4.4047    4.2352    1.0142 H   0  0  0  0  0  0  0  0  0  0  0  0
   -4.1968    4.1126   -1.6653 H   0  0  0  0  0  0  0  0  0  0  0  0
   -5.2932    2.9684   -0.8673 H   0  0  0  0  0  0  0  0  0  0  0  0
   -4.2788    1.8940    1.5543 H   0  0  0  0  0  0  0  0  0  0  0  0
   -2.5777    2.3643    1.7596 H   0  0  0  0  0  0  0  0  0  0  0  0
   -2.4528    2.4589   -1.8492 H   0  0  0  0  0  0  0  0  0  0  0  0
   -3.8972    1.4419   -2.0616 H   0  0  0  0  0  0  0  0  0  0  0  0
    1.3038   -1.1204    0.1358 H   0  0  0  0  0  0  0  0  0  0  0  0
   -5.5460   -4.2406    0.2978 H   0  0  0  0  0  0  0  0  0  0  0  0
   -3.9323   -3.6660    0.2719 H   0  0  0  0  0  0  0  0  0  0  0  0
    3.3968   -1.2430    0.2378 H   0  0  0  0  0  0  0  0  0  0  0  0
    4.0983    2.4718   -0.0486 H   0  0  0  0  0  0  0  0  0  0  0  0
    8.0992   -0.4350    0.3551 H   0  0  0  0  0  0  0  0  0  0  0  0
    6.3448    3.4581   -0.0454 H   0  0  0  0  0  0  0  0  0  0  0  0
    8.3494    2.0108    0.1530 H   0  0  0  0  0  0  0  0  0  0  0  0
    7.4619   -2.7515   -0.3452 H   0  0  0  0  0  0  0  0  0  0  0  0
    6.4500   -1.9937   -1.6028 H   0  0  0  0  0  0  0  0  0  0  0  0
    4.6168   -3.6051   -1.0918 H   0  0  0  0  0  0  0  0  0  0  0  0
    5.6180   -4.3674    0.1376 H   0  0  0  0  0  0  0  0  0  0  0  0
    6.1066   -4.4528   -1.5718 H   0  0  0  0  0  0  0  0  0  0  0  0
  1 20  2  0  0  0  0
  2  9  1  0  0  0  0
  2 10  1  0  0  0  0
  3 24  1  0  0  0  0
  3 29  1  0  0  0  0
  4 15  1  0  0  0  0
  4 16  1  0  0  0  0
  4 17  1  0  0  0  0
  5  6  1  0  0  0  0
  5 17  1  0  0  0  0
  5 19  1  0  0  0  0
  6  7  2  0  0  0  0
  7 18  1  0  0  0  0
  8 12  1  0  0  0  0
  8 20  1  0  0  0  0
  8 39  1  0  0  0  0
  9 19  2  0  0  0  0
 10 21  2  0  0  0  0
 11 21  1  0  0  0  0
 11 40  1  0  0  0  0
 11 41  1  0  0  0  0
 12 23  2  3  0  0  0
 13 14  1  0  0  0  0
 13 15  1  0  0  0  0
 13 31  1  0  0  0  0
 13 32  1  0  0  0  0
 14 16  1  0  0  0  0
 14 33  1  0  0  0  0
 14 34  1  0  0  0  0
 15 35  1  0  0  0  0
 15 36  1  0  0  0  0
 16 37  1  0  0  0  0
 16 38  1  0  0  0  0
 17 18  2  0  0  0  0
 18 20  1  0  0  0  0
 19 21  1  0  0  0  0
 22 23  1  0  0  0  0
 22 24  1  0  0  0  0
 22 25  2  0  0  0  0
 23 42  1  0  0  0  0
 24 26  2  0  0  0  0
 25 27  1  0  0  0  0
 25 43  1  0  0  0  0
 26 28  1  0  0  0  0
 26 44  1  0  0  0  0
 27 28  2  0  0  0  0
 27 45  1  0  0  0  0
 28 46  1  0  0  0  0
 29 30  1  0  0  0  0
 29 47  1  0  0  0  0
 29 48  1  0  0  0  0
 30 49  1  0  0  0  0
 30 50  1  0  0  0  0
 30 51  1  0  0  0  0
M  END
> <PUBCHEM_COMPOUND_CID>
3662552

> <PUBCHEM_CONFORMER_RMSD>
1

> <PUBCHEM_CONFORMER_DIVERSEORDER>
1
37
31
12
36
27
20
17
23
10
7
38
28
3
30
33
22
2
8
13
24
16
25
26
5
14
15
6
18
34
9
4
19
32
11
21
29
35

> <PUBCHEM_MMFF94_PARTIAL_CHARGES>
35
1 -0.57
10 -0.41
11 -0.88
12 -0.51
15 0.37
16 0.37
17 -0.07
18 0.14
19 0.21
2 0.24
20 0.72
21 0.37
22 0.09
23 0.3
24 0.08
25 -0.15
26 -0.15
27 -0.15
28 -0.15
29 0.28
3 -0.36
39 0.37
4 -0.82
40 0.4
41 0.4
42 0.06
43 0.15
44 0.15
45 0.15
46 0.15
5 0.65
6 -0.42
7 -0.23
8 -0.37
9 -0.41

> <PUBCHEM_EFFECTIVE_ROTOR_COUNT>
9

> <PUBCHEM_PHARMACOPHORE_FEATURES>
12
1 1 acceptor
1 11 donor
1 12 acceptor
1 3 acceptor
1 4 cation
1 8 donor
3 10 11 21 cation
3 5 9 19 cation
5 2 9 10 19 21 rings
5 4 13 14 15 16 rings
5 5 6 7 17 18 rings
6 22 24 25 26 27 28 rings

> <PUBCHEM_HEAVY_ATOM_COUNT>
30

> <PUBCHEM_ATOM_DEF_STEREO_COUNT>
0

> <PUBCHEM_ATOM_UDEF_STEREO_COUNT>
0

> <PUBCHEM_BOND_DEF_STEREO_COUNT>
0

> <PUBCHEM_BOND_UDEF_STEREO_COUNT>
1

> <PUBCHEM_ISOTOPIC_ATOM_COUNT>
0

> <PUBCHEM_COMPONENT_COUNT>
1

> <PUBCHEM_CACTVS_TAUTO_COUNT>
4

> <PUBCHEM_CONFORMER_ID>
0037E2D800000001

> <PUBCHEM_MMFF94_ENERGY>
82.2617

> <PUBCHEM_FEATURE_SELFOVERLAP>
60.99

> <PUBCHEM_SHAPE_FINGERPRINT>
10050765 1 18337670789368107714
100830 39 18409445864937102640
10411042 1 18120936377042863523
10595046 47 18336265725899431824
10835480 77 18340480085407716364
11524674 6 16630249207359721903
12107183 9 17975689494568450024
12616971 3 14620507965055605688
13073987 5 18412544302000092280
13533116 47 18201719557576821250
1361 4 18411982498550419950
13782708 43 18202561782840080390
14118638 360 18408322198913770792
14347332 77 18410855503352355957
14933364 13 18410856581758503112
15131766 46 15694880488208478225
15183329 4 18411140229977895530
15419008 42 17912641307324658974
15439362 3 17690840065191219893
17844677 252 18410017645823040144
18608769 82 18339640156638203131
19958102 18 18335419045457582471
21130935 74 18343587347510843114
21236236 1 18410291402521973781
21279426 13 18267867190525832918
21315763 28 18408601474983348488
21315764 268 18411133671294374036
23559900 14 18339353197352382337
23569943 247 16879895354535194602
283562 15 18335417972596395091
335352 9 18337385037869534215
34797466 226 17845945134259185812
350125 39 18410574024344850713
4073 2 18114186371821905434
4098825 35 18412827958624750922
4144715 1 18408893919026906336
4197921 191 18334297591416929660
497634 4 18260826003470726365
5104073 3 18412256217242774080
9831232 110 18269560426033828214
9996256 80 18409166610515850368

> <PUBCHEM_SHAPE_MULTIPOLES>
554.95
22.05
4.15
0.79
21.2
0.67
0.12
5.09
0.01
-1.81
0.51
-0.25
-0.24
1.67

> <PUBCHEM_SHAPE_SELFOVERLAP>
1194.498

> <PUBCHEM_SHAPE_VOLUME>
305.5

> <PUBCHEM_COORDINATE_TYPE>
2
5
10

$$$$
