315880
  -OEChem-10052115193D

 32 35  0     0  0  0  0  0  0999 V2000
   -0.0415   -1.4823    1.4800 O   0  0  0  0  0  0  0  0  0  0  0  0
    2.2676   -0.9907    1.5651 N   0  0  0  0  0  0  0  0  0  0  0  0
   -3.1088   -1.5810   -1.0649 N   0  0  0  0  0  0  0  0  0  0  0  0
    1.1050   -0.1951   -0.2388 C   0  0  0  0  0  0  0  0  0  0  0  0
   -1.2964   -0.3628   -0.9061 C   0  0  0  0  0  0  0  0  0  0  0  0
    2.4979    0.2150   -0.3796 C   0  0  0  0  0  0  0  0  0  0  0  0
   -2.3213    0.3437   -0.2575 C   0  0  0  0  0  0  0  0  0  0  0  0
    3.1594   -0.2939    0.7420 C   0  0  0  0  0  0  0  0  0  0  0  0
    0.0795    0.0493   -1.0569 C   0  0  0  0  0  0  0  0  0  0  0  0
   -3.4661   -0.4480   -0.3694 C   0  0  0  0  0  0  0  0  0  0  0  0
    0.9737   -0.9800    1.0343 C   0  0  0  0  0  0  0  0  0  0  0  0
   -1.7811   -1.5331   -1.3955 C   0  0  0  0  0  0  0  0  0  0  0  0
    3.1841    0.9421   -1.3337 C   0  0  0  0  0  0  0  0  0  0  0  0
   -2.4124    1.5762    0.4194 C   0  0  0  0  0  0  0  0  0  0  0  0
    4.5105   -0.1019    0.9539 C   0  0  0  0  0  0  0  0  0  0  0  0
   -4.7027   -0.0672    0.1636 C   0  0  0  0  0  0  0  0  0  0  0  0
    4.5540    1.1487   -1.1386 C   0  0  0  0  0  0  0  0  0  0  0  0
    5.2107    0.6317   -0.0059 C   0  0  0  0  0  0  0  0  0  0  0  0
   -3.6429    1.9699    0.9579 C   0  0  0  0  0  0  0  0  0  0  0  0
   -4.7691    1.1594    0.8307 C   0  0  0  0  0  0  0  0  0  0  0  0
    0.2738    0.6305   -1.9570 H   0  0  0  0  0  0  0  0  0  0  0  0
   -1.3233   -2.3433   -1.9464 H   0  0  0  0  0  0  0  0  0  0  0  0
    2.5399   -1.4399    2.4315 H   0  0  0  0  0  0  0  0  0  0  0  0
   -3.7365   -2.3384   -1.2972 H   0  0  0  0  0  0  0  0  0  0  0  0
    2.6893    1.3455   -2.2103 H   0  0  0  0  0  0  0  0  0  0  0  0
   -1.5440    2.2199    0.5278 H   0  0  0  0  0  0  0  0  0  0  0  0
    5.0149   -0.5004    1.8267 H   0  0  0  0  0  0  0  0  0  0  0  0
   -5.5801   -0.6976    0.0652 H   0  0  0  0  0  0  0  0  0  0  0  0
    5.1212    1.7167   -1.8716 H   0  0  0  0  0  0  0  0  0  0  0  0
    6.2757    0.8071    0.1211 H   0  0  0  0  0  0  0  0  0  0  0  0
   -3.7191    2.9194    1.4811 H   0  0  0  0  0  0  0  0  0  0  0  0
   -5.7149    1.4847    1.2566 H   0  0  0  0  0  0  0  0  0  0  0  0
  1 11  2  0  0  0  0
  2  8  1  0  0  0  0
  2 11  1  0  0  0  0
  2 23  1  0  0  0  0
  3 10  1  0  0  0  0
  3 12  1  0  0  0  0
  3 24  1  0  0  0  0
  4  6  1  0  0  0  0
  4  9  2  3  0  0  0
  4 11  1  0  0  0  0
  5  7  1  0  0  0  0
  5  9  1  0  0  0  0
  5 12  2  0  0  0  0
  6  8  1  0  0  0  0
  6 13  2  0  0  0  0
  7 10  1  0  0  0  0
  7 14  2  0  0  0  0
  8 15  2  0  0  0  0
  9 21  1  0  0  0  0
 10 16  2  0  0  0  0
 12 22  1  0  0  0  0
 13 17  1  0  0  0  0
 13 25  1  0  0  0  0
 14 19  1  0  0  0  0
 14 26  1  0  0  0  0
 15 18  1  0  0  0  0
 15 27  1  0  0  0  0
 16 20  1  0  0  0  0
 16 28  1  0  0  0  0
 17 18  2  0  0  0  0
 17 29  1  0  0  0  0
 18 30  1  0  0  0  0
 19 20  2  0  0  0  0
 19 31  1  0  0  0  0
 20 32  1  0  0  0  0
M  END
> <PUBCHEM_COMPOUND_CID>
315880

> <PUBCHEM_CONFORMER_RMSD>
0.6

> <PUBCHEM_CONFORMER_DIVERSEORDER>
2
3
1
4

> <PUBCHEM_MMFF94_PARTIAL_CHARGES>
31
1 -0.57
10 -0.15
11 0.62
12 -0.3
13 -0.15
14 -0.15
15 -0.15
16 -0.15
17 -0.15
18 -0.15
19 -0.15
2 -0.55
20 -0.15
21 0.15
22 0.15
23 0.37
24 0.27
25 0.15
26 0.15
27 0.15
28 0.15
29 0.15
3 0.03
30 0.15
31 0.15
32 0.15
4 -0.01
5 -0.05
6 0.03
8 0.12
9 -0.1

> <PUBCHEM_EFFECTIVE_ROTOR_COUNT>
1.2

> <PUBCHEM_PHARMACOPHORE_FEATURES>
8
1 1 acceptor
1 2 donor
1 3 cation
1 3 donor
5 2 4 6 8 11 rings
5 3 5 7 10 12 rings
6 6 8 13 15 17 18 rings
6 7 10 14 16 19 20 rings

> <PUBCHEM_HEAVY_ATOM_COUNT>
20

> <PUBCHEM_ATOM_DEF_STEREO_COUNT>
0

> <PUBCHEM_ATOM_UDEF_STEREO_COUNT>
0

> <PUBCHEM_BOND_DEF_STEREO_COUNT>
0

> <PUBCHEM_BOND_UDEF_STEREO_COUNT>
1

> <PUBCHEM_ISOTOPIC_ATOM_COUNT>
0

> <PUBCHEM_COMPONENT_COUNT>
1

> <PUBCHEM_CACTVS_TAUTO_COUNT>
5

> <PUBCHEM_CONFORMER_ID>
0004D1E800000002

> <PUBCHEM_MMFF94_ENERGY>
61.1571

> <PUBCHEM_FEATURE_SELFOVERLAP>
40.778

> <PUBCHEM_SHAPE_FINGERPRINT>
10498660 4 17846498072047754329
11552529 35 17751089204503804579
11796584 16 10737289051890298137
12107183 9 17762335812443466298
12236239 1 18334855022009762951
12390115 104 17274280361375994913
12403259 415 16343980321481437035
12596602 18 18187088368882456161
12633257 1 15285941146897563805
12788726 201 17903926899948771654
12916748 109 18130793368759969621
13583140 156 17894914023395546557
13897977 58 18342177773893684189
13965767 371 17762357820241778953
14341114 328 18261118460826343345
14386348 63 15985105231991023812
15209294 21 18408322172516407901
15309172 13 17240481407485515418
16988056 13 15747831323024589781
17357779 13 14548741690096087698
18186145 218 17894629262531159462
200 152 17313376842743301863
204376 136 17240488039236689298
20645477 56 17846781806066076853
21033648 144 17750510866167533476
21033648 29 16056871425361838291
21033650 10 18127437625582646212
21065198 48 18261954055414224681
21065201 7 17489582394114473166
21682296 61 16662031544938984754
21756936 100 18261683652863339284
21792961 116 16486987215148710364
22079108 93 18040723609695904073
221357 26 14333126330645248257
22854114 59 17022904553349514940
23402539 116 18271519875010503134
23493267 7 17632576041427261122
23536379 177 18130790053926120326
23557571 272 17346314946440434028
23559900 14 16988568983469235284
23566358 27 18189897513322310474
26918003 58 16081369644204208517
38570 142 17752234866230500460
4340502 62 17603879879644424233
474 4 18041002881560250124
5104073 3 17241607411416092048
5161694 15 16200431372918848768
5281201 14 16630526271494475160
542803 24 18409450293163883804
59682541 52 13685453452943411729
59755656 520 18040441001185710258
633830 44 18259992573999542542
77492 1 18335132094555467367
7808743 9 18059862701691058169

> <PUBCHEM_SHAPE_MULTIPOLES>
395.76
10.7
1.57
1.43
2.65
0.16
0.22
3.87
0.04
-1.96
-0.06
1.17
-0.25
-1.29

> <PUBCHEM_SHAPE_SELFOVERLAP>
903.933

> <PUBCHEM_SHAPE_VOLUME>
206.9

> <PUBCHEM_COORDINATE_TYPE>
2
5
10

$$$$
