3089072
  -OEChem-10062121543D

 50 51  0     0  0  0  0  0  0999 V2000
   -0.9204    2.8146    1.6210 O   0  0  0  0  0  0  0  0  0  0  0  0
    1.4819   -0.7467   -1.2902 O   0  0  0  0  0  0  0  0  0  0  0  0
    0.5763    3.3209   -0.0677 N   0  0  0  0  0  0  0  0  0  0  0  0
    3.6209   -1.4232   -0.7292 N   0  0  0  0  0  0  0  0  0  0  0  0
   -1.4091    2.2932   -0.6151 N   0  0  0  0  0  0  0  0  0  0  0  0
    1.8329   -2.6778   -0.0025 N   0  0  0  0  0  0  0  0  0  0  0  0
   -4.5409    0.9678    0.8417 N   0  0  0  0  0  0  0  0  0  0  0  0
   -0.9356   -4.7958    1.2368 N   0  0  0  0  0  0  0  0  0  0  0  0
    3.3674    2.2183    0.1288 C   0  0  0  0  0  0  0  0  0  0  0  0
    4.3704    1.1948    0.6669 C   0  0  0  0  0  0  0  0  0  0  0  0
    2.6022    2.8954    1.2710 C   0  0  0  0  0  0  0  0  0  0  0  0
    5.1617    0.4793   -0.4342 C   0  0  0  0  0  0  0  0  0  0  0  0
    1.5834    3.9137    0.7686 C   0  0  0  0  0  0  0  0  0  0  0  0
    4.3175   -0.3558   -1.3924 C   0  0  0  0  0  0  0  0  0  0  0  0
   -0.6296    2.8025    0.4272 C   0  0  0  0  0  0  0  0  0  0  0  0
    2.2234   -1.5464   -0.7245 C   0  0  0  0  0  0  0  0  0  0  0  0
   -2.6849    1.6886   -0.5296 C   0  0  0  0  0  0  0  0  0  0  0  0
    0.5194   -3.1463    0.2335 C   0  0  0  0  0  0  0  0  0  0  0  0
   -3.3371    1.2274   -1.6677 C   0  0  0  0  0  0  0  0  0  0  0  0
   -0.5847   -2.4694   -0.2726 C   0  0  0  0  0  0  0  0  0  0  0  0
   -3.3237    1.5366    0.6904 C   0  0  0  0  0  0  0  0  0  0  0  0
    0.2923   -4.2943    0.9754 C   0  0  0  0  0  0  0  0  0  0  0  0
   -4.5907    0.6366   -1.5525 C   0  0  0  0  0  0  0  0  0  0  0  0
   -1.8641   -2.9544   -0.0248 C   0  0  0  0  0  0  0  0  0  0  0  0
   -5.1442    0.5316   -0.2867 C   0  0  0  0  0  0  0  0  0  0  0  0
   -1.9846   -4.1110    0.7286 C   0  0  0  0  0  0  0  0  0  0  0  0
    2.6553    1.7233   -0.5382 H   0  0  0  0  0  0  0  0  0  0  0  0
    3.8952    2.9756   -0.4629 H   0  0  0  0  0  0  0  0  0  0  0  0
    3.8491    0.4554    1.2867 H   0  0  0  0  0  0  0  0  0  0  0  0
    5.0832    1.7057    1.3262 H   0  0  0  0  0  0  0  0  0  0  0  0
    3.3117    3.4022    1.9358 H   0  0  0  0  0  0  0  0  0  0  0  0
    2.0905    2.1305    1.8682 H   0  0  0  0  0  0  0  0  0  0  0  0
    5.7241    1.2219   -1.0130 H   0  0  0  0  0  0  0  0  0  0  0  0
    5.9035   -0.1706    0.0471 H   0  0  0  0  0  0  0  0  0  0  0  0
    1.0992    4.4001    1.6224 H   0  0  0  0  0  0  0  0  0  0  0  0
    2.0806    4.6910    0.1786 H   0  0  0  0  0  0  0  0  0  0  0  0
    4.9798   -0.8299   -2.1254 H   0  0  0  0  0  0  0  0  0  0  0  0
    3.6203    0.2712   -1.9558 H   0  0  0  0  0  0  0  0  0  0  0  0
    0.7503    3.2723   -1.0668 H   0  0  0  0  0  0  0  0  0  0  0  0
    4.1719   -2.1462   -0.2769 H   0  0  0  0  0  0  0  0  0  0  0  0
   -1.0196    2.3602   -1.5520 H   0  0  0  0  0  0  0  0  0  0  0  0
    2.5764   -3.2375    0.4073 H   0  0  0  0  0  0  0  0  0  0  0  0
   -2.8790    1.3218   -2.6486 H   0  0  0  0  0  0  0  0  0  0  0  0
   -0.5227   -1.5649   -0.8619 H   0  0  0  0  0  0  0  0  0  0  0  0
   -2.9127    1.8560    1.6372 H   0  0  0  0  0  0  0  0  0  0  0  0
    1.1131   -4.8668    1.3970 H   0  0  0  0  0  0  0  0  0  0  0  0
   -5.1174    0.2694   -2.4258 H   0  0  0  0  0  0  0  0  0  0  0  0
   -2.7400   -2.4429   -0.4077 H   0  0  0  0  0  0  0  0  0  0  0  0
   -6.1193    0.0781   -0.1430 H   0  0  0  0  0  0  0  0  0  0  0  0
   -2.9606   -4.5299    0.9505 H   0  0  0  0  0  0  0  0  0  0  0  0
  1 15  2  0  0  0  0
  2 16  2  0  0  0  0
  3 13  1  0  0  0  0
  3 15  1  0  0  0  0
  3 39  1  0  0  0  0
  4 14  1  0  0  0  0
  4 16  1  0  0  0  0
  4 40  1  0  0  0  0
  5 15  1  0  0  0  0
  5 17  1  0  0  0  0
  5 41  1  0  0  0  0
  6 16  1  0  0  0  0
  6 18  1  0  0  0  0
  6 42  1  0  0  0  0
  7 21  1  0  0  0  0
  7 25  2  0  0  0  0
  8 22  1  0  0  0  0
  8 26  2  0  0  0  0
  9 10  1  0  0  0  0
  9 11  1  0  0  0  0
  9 27  1  0  0  0  0
  9 28  1  0  0  0  0
 10 12  1  0  0  0  0
 10 29  1  0  0  0  0
 10 30  1  0  0  0  0
 11 13  1  0  0  0  0
 11 31  1  0  0  0  0
 11 32  1  0  0  0  0
 12 14  1  0  0  0  0
 12 33  1  0  0  0  0
 12 34  1  0  0  0  0
 13 35  1  0  0  0  0
 13 36  1  0  0  0  0
 14 37  1  0  0  0  0
 14 38  1  0  0  0  0
 17 19  1  0  0  0  0
 17 21  2  0  0  0  0
 18 20  1  0  0  0  0
 18 22  2  0  0  0  0
 19 23  2  0  0  0  0
 19 43  1  0  0  0  0
 20 24  2  0  0  0  0
 20 44  1  0  0  0  0
 21 45  1  0  0  0  0
 22 46  1  0  0  0  0
 23 25  1  0  0  0  0
 23 47  1  0  0  0  0
 24 26  1  0  0  0  0
 24 48  1  0  0  0  0
 25 49  1  0  0  0  0
 26 50  1  0  0  0  0
M  END
> <PUBCHEM_COMPOUND_CID>
3089072

> <PUBCHEM_CONFORMER_RMSD>
1.4

> <PUBCHEM_CONFORMER_DIVERSEORDER>
1
18
4
40
13
66
98
144
58
6
24
139
32
65
111
73
141
119
96
47
2
112
70
21
123
25
99
89
138
102
124
55
30
121
114
42
43
142
36
117
147
68
69
100
28
135
60
92
109
77
105
126
140
44
12
35
50
33
145
85
17
76
72
143
38
64
122
75
106
108
93
148
90
133
5
97
16
26
78
7
41
34
79
131
74
101
129
87
120
23
127
86
91
137
46
71
22
49
52
125
103
10
37
81
146
84
53
29
116
94
115
82
67
110
11
56
57
51
83
59
31
48
63
107
134
95
88
128
3
80
132
19
130
9
54
39
113
14
8
62
20
61
136
104
27
118
45
15

> <PUBCHEM_MMFF94_PARTIAL_CHARGES>
34
1 -0.57
13 0.3
14 0.3
15 0.69
16 0.69
17 0.12
18 0.12
19 -0.15
2 -0.57
20 -0.15
21 0.16
22 0.16
23 -0.15
24 -0.15
25 0.16
26 0.16
3 -0.73
39 0.37
4 -0.73
40 0.37
41 0.37
42 0.37
43 0.15
44 0.15
45 0.15
46 0.15
47 0.15
48 0.15
49 0.15
5 -0.55
50 0.15
6 -0.55
7 -0.62
8 -0.62

> <PUBCHEM_EFFECTIVE_ROTOR_COUNT>
13

> <PUBCHEM_PHARMACOPHORE_FEATURES>
11
1 1 acceptor
1 2 acceptor
1 3 donor
1 4 donor
1 5 donor
1 6 donor
1 7 acceptor
1 8 acceptor
4 9 10 11 12 hydrophobe
6 7 17 19 21 23 25 rings
6 8 18 20 22 24 26 rings

> <PUBCHEM_HEAVY_ATOM_COUNT>
26

> <PUBCHEM_ATOM_DEF_STEREO_COUNT>
0

> <PUBCHEM_ATOM_UDEF_STEREO_COUNT>
0

> <PUBCHEM_BOND_DEF_STEREO_COUNT>
0

> <PUBCHEM_BOND_UDEF_STEREO_COUNT>
0

> <PUBCHEM_ISOTOPIC_ATOM_COUNT>
0

> <PUBCHEM_COMPONENT_COUNT>
1

> <PUBCHEM_CACTVS_TAUTO_COUNT>
6

> <PUBCHEM_CONFORMER_ID>
002F22B000000001

> <PUBCHEM_MMFF94_ENERGY>
50.1329

> <PUBCHEM_FEATURE_SELFOVERLAP>
55.923

> <PUBCHEM_SHAPE_FINGERPRINT>
10316853 100 18337677511460917553
108634 29 18343311344954808030
10864689 126 18339368440085528599
1100329 8 18411140255483941956
114674 6 18341885282241879176
12422481 6 17905910402251248075
13402501 40 18411703217958378645
13561361 72 18119810463253775483
15110567 62 18338237059499988881
17627616 140 18263071133105391482
19930381 70 18194120720462347841
20764821 26 18338801220459692072
238918 7 17479447284712684544
373842 8 17689163722318121459
392239 28 18340491075621982123
463206 1 18342739645430960796
5047190 48 16970545002208039113
508706 21 18192989537566441430
66674814 147 18412545392753273272
9777508 108 18264487454410967150

> <PUBCHEM_SHAPE_MULTIPOLES>
493.44
9.28
6.9
1.36
0.82
5.77
0.15
-4.72
2.33
-1.21
-3.14
-0.28
-0.22
1.99

> <PUBCHEM_SHAPE_SELFOVERLAP>
1010.356

> <PUBCHEM_SHAPE_VOLUME>
279.7

> <PUBCHEM_COORDINATE_TYPE>
2
5
10

$$$$
