49830964
  -OEChem-10052120443D

 35 37  0     0  0  0  0  0  0999 V2000
    6.3638   -1.6918   -0.9403 O   0  0  0  0  0  0  0  0  0  0  0  0
    4.1722   -0.2599    0.1470 N   0  0  0  0  0  0  0  0  0  0  0  0
    3.0064    1.8153    0.1335 N   0  0  0  0  0  0  0  0  0  0  0  0
   -5.5706   -1.6074   -0.0811 N   0  0  0  0  0  0  0  0  0  0  0  0
    0.5619    0.4196    0.0704 C   0  0  0  0  0  0  0  0  0  0  0  0
    0.5750    1.8297    0.0789 C   0  0  0  0  0  0  0  0  0  0  0  0
   -1.8694    0.4636    0.0159 C   0  0  0  0  0  0  0  0  0  0  0  0
   -0.6711   -0.2522    0.0386 C   0  0  0  0  0  0  0  0  0  0  0  0
    1.7801   -0.2693    0.0935 C   0  0  0  0  0  0  0  0  0  0  0  0
    2.9551    0.4662    0.1243 C   0  0  0  0  0  0  0  0  0  0  0  0
   -0.6369    2.5398    0.0556 C   0  0  0  0  0  0  0  0  0  0  0  0
   -1.8523    1.8563    0.0244 C   0  0  0  0  0  0  0  0  0  0  0  0
   -3.1321   -0.2424   -0.0173 C   0  0  0  0  0  0  0  0  0  0  0  0
    1.8193    2.4624    0.1104 C   0  0  0  0  0  0  0  0  0  0  0  0
    4.2181   -1.6856    0.1391 C   0  0  0  0  0  0  0  0  0  0  0  0
   -4.2358    0.3292   -0.6408 C   0  0  0  0  0  0  0  0  0  0  0  0
   -3.2461   -1.4956    0.5742 C   0  0  0  0  0  0  0  0  0  0  0  0
    5.6601   -2.1595    0.2035 C   0  0  0  0  0  0  0  0  0  0  0  0
   -5.4215   -0.3877   -0.6452 C   0  0  0  0  0  0  0  0  0  0  0  0
   -4.4762   -2.1308    0.5154 C   0  0  0  0  0  0  0  0  0  0  0  0
   -0.6596   -1.3397    0.0011 H   0  0  0  0  0  0  0  0  0  0  0  0
    1.7586   -1.3540    0.0849 H   0  0  0  0  0  0  0  0  0  0  0  0
   -0.6410    3.6274    0.0682 H   0  0  0  0  0  0  0  0  0  0  0  0
   -2.7605    2.4527    0.0373 H   0  0  0  0  0  0  0  0  0  0  0  0
    1.9004    3.5460    0.1184 H   0  0  0  0  0  0  0  0  0  0  0  0
    5.0247    0.2880    0.1657 H   0  0  0  0  0  0  0  0  0  0  0  0
    3.7685   -2.0716   -0.7838 H   0  0  0  0  0  0  0  0  0  0  0  0
    3.6856   -2.1032    1.0014 H   0  0  0  0  0  0  0  0  0  0  0  0
    5.7012   -3.2532    0.2133 H   0  0  0  0  0  0  0  0  0  0  0  0
    6.1621   -1.7777    1.0989 H   0  0  0  0  0  0  0  0  0  0  0  0
   -4.2088    1.2886   -1.1457 H   0  0  0  0  0  0  0  0  0  0  0  0
   -2.4357   -1.9858    1.1023 H   0  0  0  0  0  0  0  0  0  0  0  0
   -6.3099    0.0104   -1.1244 H   0  0  0  0  0  0  0  0  0  0  0  0
   -4.6199   -3.1066    0.9679 H   0  0  0  0  0  0  0  0  0  0  0  0
    7.2770   -2.0176   -0.8659 H   0  0  0  0  0  0  0  0  0  0  0  0
  1 18  1  0  0  0  0
  1 35  1  0  0  0  0
  2 10  1  0  0  0  0
  2 15  1  0  0  0  0
  2 26  1  0  0  0  0
  3 10  2  0  0  0  0
  3 14  1  0  0  0  0
  4 19  2  0  0  0  0
  4 20  1  0  0  0  0
  5  6  1  0  0  0  0
  5  8  1  0  0  0  0
  5  9  2  0  0  0  0
  6 11  1  0  0  0  0
  6 14  2  0  0  0  0
  7  8  2  0  0  0  0
  7 12  1  0  0  0  0
  7 13  1  0  0  0  0
  8 21  1  0  0  0  0
  9 10  1  0  0  0  0
  9 22  1  0  0  0  0
 11 12  2  0  0  0  0
 11 23  1  0  0  0  0
 12 24  1  0  0  0  0
 13 16  2  0  0  0  0
 13 17  1  0  0  0  0
 14 25  1  0  0  0  0
 15 18  1  0  0  0  0
 15 27  1  0  0  0  0
 15 28  1  0  0  0  0
 16 19  1  0  0  0  0
 16 31  1  0  0  0  0
 17 20  2  0  0  0  0
 17 32  1  0  0  0  0
 18 29  1  0  0  0  0
 18 30  1  0  0  0  0
 19 33  1  0  0  0  0
 20 34  1  0  0  0  0
M  END
> <PUBCHEM_COMPOUND_CID>
49830964

> <PUBCHEM_CONFORMER_RMSD>
0.6

> <PUBCHEM_CONFORMER_DIVERSEORDER>
2
11
6
17
16
3
15
10
9
8
14
4
13
12
7
1
5

> <PUBCHEM_MMFF94_PARTIAL_CHARGES>
27
1 -0.68
10 0.41
11 -0.15
12 -0.15
14 0.16
15 0.37
16 -0.15
17 -0.15
18 0.28
19 0.16
2 -0.87
20 0.16
21 0.15
22 0.15
23 0.15
24 0.15
25 0.15
26 0.4
3 -0.62
31 0.15
32 0.15
33 0.15
34 0.15
35 0.4
4 -0.62
8 -0.15
9 -0.15

> <PUBCHEM_EFFECTIVE_ROTOR_COUNT>
4

> <PUBCHEM_PHARMACOPHORE_FEATURES>
8
1 1 acceptor
1 1 donor
1 2 donor
1 4 acceptor
3 2 3 10 cation
6 3 5 6 9 10 14 rings
6 4 13 16 17 19 20 rings
6 5 6 7 8 11 12 rings

> <PUBCHEM_HEAVY_ATOM_COUNT>
20

> <PUBCHEM_ATOM_DEF_STEREO_COUNT>
0

> <PUBCHEM_ATOM_UDEF_STEREO_COUNT>
0

> <PUBCHEM_BOND_DEF_STEREO_COUNT>
0

> <PUBCHEM_BOND_UDEF_STEREO_COUNT>
0

> <PUBCHEM_ISOTOPIC_ATOM_COUNT>
0

> <PUBCHEM_COMPONENT_COUNT>
1

> <PUBCHEM_CACTVS_TAUTO_COUNT>
3

> <PUBCHEM_CONFORMER_ID>
02F85C3400000002

> <PUBCHEM_MMFF94_ENERGY>
69.3227

> <PUBCHEM_FEATURE_SELFOVERLAP>
40.626

> <PUBCHEM_SHAPE_FINGERPRINT>
10411042 1 18411138017869394608
10622 236 17557401474197295047
11796584 16 17749379412519843331
12032990 46 18410011052430925937
12107183 9 18270692948320941641
12403259 118 12679455417747276387
12555020 224 18336817663662487263
12760667 363 18342175544684227819
12916754 54 18411420609152746872
13134695 92 18058442274375693529
13140716 1 18343023250695704361
13288520 33 18411700950262943813
13533116 47 18200592613222506745
13540713 4 18267846359856202912
13740256 8 18410577271244667658
13862211 1 18342735230462803263
13955234 65 18126846238176251808
14123256 34 18341058453761019382
14508225 48 18334008371976173781
14790565 3 17256247566878746092
14866123 147 18196093240376056321
15042514 8 18268149764460854937
15188451 53 15984524720581072159
15196674 1 18409728495512833777
15352361 1 18410573968167014194
17492 89 18122343742772291579
18222031 100 18341889680430314834
193927 3 18272378546574132502
19784866 240 18413394219597108465
200 152 18201717388364888641
20028762 73 18131346440279126759
20281475 54 18410017645269249689
20374829 77 18335417941645400394
20403669 9 18341616988303281846
20645477 70 18335697290549833609
21033650 10 16660918881609950269
21130935 74 18198626721689054675
21267235 1 18409735058280773955
21279426 13 18334566937400390581
21682296 61 18130793304599808822
221490 88 18262240052749008809
22393880 68 17968363607416904939
23402539 116 18340482270796587621
23403322 49 18408603656367772867
23522609 53 18122942838616802412
23559900 14 18335413599438855913
25147074 1 18340225010956963080
2838139 119 8069737465215198090
2871803 45 18187358835377867561
3004659 81 18113615686052063274
312423 11 18411711988550921224
335352 9 18337952295190220557
3421961 26 18340766035307566624
4214541 1 18408318896152719285
465052 167 18272374187266918238
5104073 3 18273497866285383113
559249 180 18340484461736265105
59682541 35 18272638062374849178
59755656 215 18264486196122719159
76465 3 18410855443275418248
77188 2 18412544331606758984
7970288 3 18337948983554754922
8863177 126 18042980950355648387
9709674 26 18116715325553532387

> <PUBCHEM_SHAPE_MULTIPOLES>
390.78
12.89
2.77
0.71
5.19
0.59
-0.04
-11.98
-1.88
1.35
0.22
-0.08
-0.11
0.69

> <PUBCHEM_SHAPE_SELFOVERLAP>
857.464

> <PUBCHEM_SHAPE_VOLUME>
210.2

> <PUBCHEM_COORDINATE_TYPE>
2
5
10

$$$$
