12553292
  -OEChem-10062121563D

 22 23  0     0  0  0  0  0  0999 V2000
    0.4733   -2.1253    0.7126 Cl  0  0  0  0  0  0  0  0  0  0  0  0
    2.1781    2.4976   -0.4091 O   0  0  0  0  0  0  0  0  0  0  0  0
    3.5141   -1.8689    0.0521 O   0  0  0  0  0  0  0  0  0  0  0  0
   -0.2199    1.0769    0.3168 N   0  0  0  0  0  0  0  0  0  0  0  0
    3.2272    0.4219   -0.2722 N   0  0  0  0  0  0  0  0  0  0  0  0
    0.9891    0.4927    0.1691 C   0  0  0  0  0  0  0  0  0  0  0  0
   -1.4984    0.5220    0.1004 C   0  0  0  0  0  0  0  0  0  0  0  0
    1.3980   -0.7708    0.2975 C   0  0  0  0  0  0  0  0  0  0  0  0
    2.1769    1.2953   -0.2059 C   0  0  0  0  0  0  0  0  0  0  0  0
    2.8393   -0.8552    0.0195 C   0  0  0  0  0  0  0  0  0  0  0  0
   -2.5894    0.9720    0.8440 C   0  0  0  0  0  0  0  0  0  0  0  0
   -1.6717   -0.4775   -0.8572 C   0  0  0  0  0  0  0  0  0  0  0  0
   -3.8536    0.4227    0.6304 C   0  0  0  0  0  0  0  0  0  0  0  0
   -2.9360   -1.0268   -1.0709 C   0  0  0  0  0  0  0  0  0  0  0  0
   -4.0269   -0.5767   -0.3271 C   0  0  0  0  0  0  0  0  0  0  0  0
   -0.2126    2.0610    0.5646 H   0  0  0  0  0  0  0  0  0  0  0  0
    4.1759    0.6891   -0.5094 H   0  0  0  0  0  0  0  0  0  0  0  0
   -2.4663    1.7498    1.5934 H   0  0  0  0  0  0  0  0  0  0  0  0
   -0.8570   -0.8131   -1.4928 H   0  0  0  0  0  0  0  0  0  0  0  0
   -4.7031    0.7734    1.2091 H   0  0  0  0  0  0  0  0  0  0  0  0
   -3.0737   -1.7961   -1.8250 H   0  0  0  0  0  0  0  0  0  0  0  0
   -5.0117   -1.0024   -0.4956 H   0  0  0  0  0  0  0  0  0  0  0  0
  1  8  1  0  0  0  0
  2  9  2  0  0  0  0
  3 10  2  0  0  0  0
  4  6  1  0  0  0  0
  4  7  1  0  0  0  0
  4 16  1  0  0  0  0
  5  9  1  0  0  0  0
  5 10  1  0  0  0  0
  5 17  1  0  0  0  0
  6  8  2  0  0  0  0
  6  9  1  0  0  0  0
  7 11  2  0  0  0  0
  7 12  1  0  0  0  0
  8 10  1  0  0  0  0
 11 13  1  0  0  0  0
 11 18  1  0  0  0  0
 12 14  2  0  0  0  0
 12 19  1  0  0  0  0
 13 15  2  0  0  0  0
 13 20  1  0  0  0  0
 14 15  1  0  0  0  0
 14 21  1  0  0  0  0
 15 22  1  0  0  0  0
M  END
> <PUBCHEM_COMPOUND_CID>
12553292

> <PUBCHEM_CONFORMER_RMSD>
0.6

> <PUBCHEM_CONFORMER_DIVERSEORDER>
1
4
6
5
3
2

> <PUBCHEM_MMFF94_PARTIAL_CHARGES>
22
1 -0.14
10 0.62
11 -0.15
12 -0.15
13 -0.15
14 -0.15
15 -0.15
16 0.4
17 0.37
18 0.15
19 0.15
2 -0.57
20 0.15
21 0.15
22 0.15
3 -0.57
4 -0.6
5 -0.49
6 0.11
7 0.1
8 0.15
9 0.62

> <PUBCHEM_EFFECTIVE_ROTOR_COUNT>
2.2

> <PUBCHEM_PHARMACOPHORE_FEATURES>
7
1 2 acceptor
1 3 acceptor
1 4 cation
1 4 donor
1 5 donor
5 5 6 8 9 10 rings
6 7 11 12 13 14 15 rings

> <PUBCHEM_HEAVY_ATOM_COUNT>
15

> <PUBCHEM_ATOM_DEF_STEREO_COUNT>
0

> <PUBCHEM_ATOM_UDEF_STEREO_COUNT>
0

> <PUBCHEM_BOND_DEF_STEREO_COUNT>
0

> <PUBCHEM_BOND_UDEF_STEREO_COUNT>
0

> <PUBCHEM_ISOTOPIC_ATOM_COUNT>
0

> <PUBCHEM_COMPONENT_COUNT>
1

> <PUBCHEM_CACTVS_TAUTO_COUNT>
8

> <PUBCHEM_CONFORMER_ID>
00BF8C4C00000001

> <PUBCHEM_MMFF94_ENERGY>
44.522

> <PUBCHEM_FEATURE_SELFOVERLAP>
35.52

> <PUBCHEM_SHAPE_FINGERPRINT>
10616163 171 18129664230669988559
11471102 20 18334855004529271799
11578080 2 17985514854638911681
12932764 1 16950274118248891291
13221675 6 18412544275913809835
13380535 76 18264203802423472392
13581323 91 17203605973854881407
14144814 61 18202282502717953073
14250199 8 18409448111130489453
14251717 144 18335698355796785419
15279307 12 18343582958275494263
15375462 189 18339642239681485115
15442244 35 18341615850062893808
15536298 74 18272931630987486362
15669948 3 17488741310911165861
15775835 57 18343306984982824717
16752209 62 17703493429860677063
16945 1 18260259729117353802
18186145 218 18407758153089535447
19422 9 18272371988185406175
200 152 18271232868659182077
20279233 1 16805316717219678089
20645477 70 18409440380553620079
21634736 98 18341611572412682222
21730867 7 18113615702878335765
221490 88 18335147539152700114
22445834 79 18340487755754765131
2255824 54 18408324401978760054
23402539 116 18339355246183521066
23402655 69 18410856538276067357
23463225 33 18272089379142040239
23598291 2 18341902852657330693
2748010 2 18044670921054098338
474 4 18193274332658905908
57096353 35 18199465648427616389
581208 293 18336260232013729016
7364860 26 18272086132474091344
77492 1 18202285818432796513
81228 2 15444626766458802579
90525 40 17989207040686090127
9981440 41 17693080178161380080

> <PUBCHEM_SHAPE_MULTIPOLES>
288.86
6.81
1.96
0.89
2.25
0.02
0.03
-0.62
0.37
-1.54
-0.08
0.52
-0.1
-0.85

> <PUBCHEM_SHAPE_SELFOVERLAP>
620.933

> <PUBCHEM_SHAPE_VOLUME>
159.2

> <PUBCHEM_COORDINATE_TYPE>
2
5
10

$$$$
