11620908
  -OEChem-10052115143D

 63 66  0     0  0  0  0  0  0999 V2000
   -1.6117    2.7531   -1.5383 Cl  0  0  0  0  0  0  0  0  0  0  0  0
   -6.3515   -0.8202    3.0482 F   0  0  0  0  0  0  0  0  0  0  0  0
   -4.1968   -1.0060    2.8859 F   0  0  0  0  0  0  0  0  0  0  0  0
   -5.1237    0.9600    2.8205 F   0  0  0  0  0  0  0  0  0  0  0  0
    1.6056    4.7931   -1.0264 O   0  0  0  0  0  0  0  0  0  0  0  0
    3.5050    2.6455   -1.3397 O   0  0  0  0  0  0  0  0  0  0  0  0
   -3.4401    0.4353   -2.1084 O   0  0  0  0  0  0  0  0  0  0  0  0
    4.0475   -1.6455    1.2021 N   0  0  0  0  0  0  0  0  0  0  0  0
    4.2784    2.0918    0.7813 N   0  0  0  0  0  0  0  0  0  0  0  0
    1.7444   -1.0265   -0.7142 N   0  0  0  0  0  0  0  0  0  0  0  0
    3.6137   -4.7949   -0.3153 N   0  0  0  0  0  0  0  0  0  0  0  0
    1.9616   -3.3209   -1.3256 N   0  0  0  0  0  0  0  0  0  0  0  0
    2.1042    4.8321    0.3119 C   0  0  0  0  0  0  0  0  0  0  0  0
    3.7554   -0.2334    1.4306 C   0  0  0  0  0  0  0  0  0  0  0  0
    3.5709    4.3661    0.3354 C   0  0  0  0  0  0  0  0  0  0  0  0
    4.5593    0.6972    0.5291 C   0  0  0  0  0  0  0  0  0  0  0  0
    3.4113   -2.4783    0.3177 C   0  0  0  0  0  0  0  0  0  0  0  0
    3.7730    2.9505   -0.1793 C   0  0  0  0  0  0  0  0  0  0  0  0
    4.0076   -3.7309    0.4272 C   0  0  0  0  0  0  0  0  0  0  0  0
    5.0282   -2.3376    1.8673 C   0  0  0  0  0  0  0  0  0  0  0  0
    1.1984    3.9483    1.1709 C   0  0  0  0  0  0  0  0  0  0  0  0
    2.0168    6.2839    0.7955 C   0  0  0  0  0  0  0  0  0  0  0  0
    2.3724   -2.2763   -0.5742 C   0  0  0  0  0  0  0  0  0  0  0  0
    5.0265   -3.6361    1.4060 C   0  0  0  0  0  0  0  0  0  0  0  0
    0.4311   -0.6478   -1.0668 C   0  0  0  0  0  0  0  0  0  0  0  0
    2.5984   -4.5005   -1.1525 C   0  0  0  0  0  0  0  0  0  0  0  0
    0.0860    0.7025   -1.1252 C   0  0  0  0  0  0  0  0  0  0  0  0
   -0.5215   -1.6245   -1.3573 C   0  0  0  0  0  0  0  0  0  0  0  0
   -2.1645    0.0995   -1.7645 C   0  0  0  0  0  0  0  0  0  0  0  0
   -1.2118    1.0761   -1.4741 C   0  0  0  0  0  0  0  0  0  0  0  0
   -1.8193   -1.2507   -1.7061 C   0  0  0  0  0  0  0  0  0  0  0  0
   -4.4650   -0.0285   -1.3026 C   0  0  0  0  0  0  0  0  0  0  0  0
   -4.3535    0.0552    0.0853 C   0  0  0  0  0  0  0  0  0  0  0  0
   -5.3864   -0.4132    0.8974 C   0  0  0  0  0  0  0  0  0  0  0  0
   -5.6094   -0.5804   -1.8783 C   0  0  0  0  0  0  0  0  0  0  0  0
   -6.5308   -0.9651    0.3216 C   0  0  0  0  0  0  0  0  0  0  0  0
   -6.6422   -1.0487   -1.0663 C   0  0  0  0  0  0  0  0  0  0  0  0
   -5.2675   -0.3243    2.3811 C   0  0  0  0  0  0  0  0  0  0  0  0
    2.6764   -0.0662    1.4030 H   0  0  0  0  0  0  0  0  0  0  0  0
    4.0295   -0.0320    2.4758 H   0  0  0  0  0  0  0  0  0  0  0  0
    3.9799    4.4670    1.3477 H   0  0  0  0  0  0  0  0  0  0  0  0
    4.1765    5.0087   -0.3174 H   0  0  0  0  0  0  0  0  0  0  0  0
    4.3891    0.4662   -0.5276 H   0  0  0  0  0  0  0  0  0  0  0  0
    5.6312    0.5587    0.7125 H   0  0  0  0  0  0  0  0  0  0  0  0
    4.4986    2.4501    1.7057 H   0  0  0  0  0  0  0  0  0  0  0  0
    5.6480   -1.8541    2.6105 H   0  0  0  0  0  0  0  0  0  0  0  0
    0.1584    4.2920    1.1293 H   0  0  0  0  0  0  0  0  0  0  0  0
    1.5186    3.9482    2.2181 H   0  0  0  0  0  0  0  0  0  0  0  0
    1.1934    2.9144    0.8163 H   0  0  0  0  0  0  0  0  0  0  0  0
    0.9850    6.6515    0.7529 H   0  0  0  0  0  0  0  0  0  0  0  0
    2.3788    6.3895    1.8235 H   0  0  0  0  0  0  0  0  0  0  0  0
    2.6063    6.9444    0.1495 H   0  0  0  0  0  0  0  0  0  0  0  0
    5.6879   -4.4234    1.7400 H   0  0  0  0  0  0  0  0  0  0  0  0
    0.6837    5.1028   -1.0164 H   0  0  0  0  0  0  0  0  0  0  0  0
    2.3259   -0.2313   -0.4904 H   0  0  0  0  0  0  0  0  0  0  0  0
    2.2449   -5.3189   -1.7700 H   0  0  0  0  0  0  0  0  0  0  0  0
    0.8338    1.4610   -0.9118 H   0  0  0  0  0  0  0  0  0  0  0  0
   -0.3154   -2.6865   -1.3055 H   0  0  0  0  0  0  0  0  0  0  0  0
   -2.5470   -2.0250   -1.9351 H   0  0  0  0  0  0  0  0  0  0  0  0
   -3.4768    0.4977    0.5516 H   0  0  0  0  0  0  0  0  0  0  0  0
   -5.7011   -0.6485   -2.9588 H   0  0  0  0  0  0  0  0  0  0  0  0
   -7.3458   -1.3354    0.9372 H   0  0  0  0  0  0  0  0  0  0  0  0
   -7.5330   -1.4787   -1.5149 H   0  0  0  0  0  0  0  0  0  0  0  0
  1 30  1  0  0  0  0
  2 38  1  0  0  0  0
  3 38  1  0  0  0  0
  4 38  1  0  0  0  0
  5 13  1  0  0  0  0
  5 54  1  0  0  0  0
  6 18  2  0  0  0  0
  7 29  1  0  0  0  0
  7 32  1  0  0  0  0
  8 14  1  0  0  0  0
  8 17  1  0  0  0  0
  8 20  1  0  0  0  0
  9 16  1  0  0  0  0
  9 18  1  0  0  0  0
  9 45  1  0  0  0  0
 10 23  1  0  0  0  0
 10 25  1  0  0  0  0
 10 55  1  0  0  0  0
 11 19  1  0  0  0  0
 11 26  2  0  0  0  0
 12 23  2  0  0  0  0
 12 26  1  0  0  0  0
 13 15  1  0  0  0  0
 13 21  1  0  0  0  0
 13 22  1  0  0  0  0
 14 16  1  0  0  0  0
 14 39  1  0  0  0  0
 14 40  1  0  0  0  0
 15 18  1  0  0  0  0
 15 41  1  0  0  0  0
 15 42  1  0  0  0  0
 16 43  1  0  0  0  0
 16 44  1  0  0  0  0
 17 19  2  0  0  0  0
 17 23  1  0  0  0  0
 19 24  1  0  0  0  0
 20 24  2  0  0  0  0
 20 46  1  0  0  0  0
 21 47  1  0  0  0  0
 21 48  1  0  0  0  0
 21 49  1  0  0  0  0
 22 50  1  0  0  0  0
 22 51  1  0  0  0  0
 22 52  1  0  0  0  0
 24 53  1  0  0  0  0
 25 27  2  0  0  0  0
 25 28  1  0  0  0  0
 26 56  1  0  0  0  0
 27 30  1  0  0  0  0
 27 57  1  0  0  0  0
 28 31  2  0  0  0  0
 28 58  1  0  0  0  0
 29 30  2  0  0  0  0
 29 31  1  0  0  0  0
 31 59  1  0  0  0  0
 32 33  1  0  0  0  0
 32 35  2  0  0  0  0
 33 34  2  0  0  0  0
 33 60  1  0  0  0  0
 34 36  1  0  0  0  0
 34 38  1  0  0  0  0
 35 37  1  0  0  0  0
 35 61  1  0  0  0  0
 36 37  2  0  0  0  0
 36 62  1  0  0  0  0
 37 63  1  0  0  0  0
M  END
> <PUBCHEM_COMPOUND_CID>
11620908

> <PUBCHEM_CONFORMER_RMSD>
1.2

> <PUBCHEM_CONFORMER_DIVERSEORDER>
1
94
37
181
79
83
162
198
172
205
91
160
220
46
128
129
145
61
49
173
197
123
232
33
151
210
136
132
68
82
163
47
138
168
73
99
199
238
180
42
116
104
117
146
114
38
175
119
139
48
144
192
239
217
229
53
244
182
245
171
208
235
59
40
170
113
100
223
204
130
90
44
233
51
183
17
147
149
36
85
89
62
174
242
167
121
178
165
78
203
201
186
134
96
107
64
55
98
11
122
5
240
195
140
169
86
207
3
157
158
164
57
176
110
111
131
120
126
222
115
25
179
143
234
184
216
77
16
191
212
156
45
224
63
26
43
209
190
35
152
20
148
231
218
241
196
135
202
81
92
39
161
226
185
188
88
215
159
194
12
213
7
108
214
118
206
112
124
211
246
4
97
71
22
133
69
32
50
24
227
41
28
87
84
189
8
30
193
200
105
243
14
60
56
80
67
75
10
142
127
29
225
54
6
219
153
70
221
31
155
65
15
93
237
137
101
228
23
154
9
58
236
76
34
102
13
106
52
27
166
109
19
103
72
141
125
150
177
74
187
18
230
95
21
2
66

> <PUBCHEM_MMFF94_PARTIAL_CHARGES>
49
1 -0.18
10 -0.6
11 -0.57
12 -0.62
13 0.28
14 0.26
15 0.06
16 0.3
17 -0.15
18 0.57
19 0.26
2 -0.34
20 -0.3
23 0.41
24 -0.15
25 0.1
26 0.47
27 -0.15
28 -0.15
29 0.08
3 -0.34
30 0.18
31 -0.15
32 0.08
33 -0.15
34 -0.14
35 -0.15
36 -0.15
37 -0.15
38 1.16
4 -0.34
45 0.37
46 0.15
5 -0.68
53 0.15
54 0.4
55 0.4
56 0.15
57 0.15
58 0.15
59 0.15
6 -0.57
60 0.15
61 0.15
62 0.15
63 0.15
7 -0.17
8 0.05
9 -0.73

> <PUBCHEM_EFFECTIVE_ROTOR_COUNT>
11

> <PUBCHEM_PHARMACOPHORE_FEATURES>
14
1 10 donor
1 5 acceptor
1 5 donor
1 6 acceptor
1 7 acceptor
1 8 cation
1 9 donor
3 10 12 23 cation
3 11 12 26 cation
3 13 21 22 hydrophobe
5 8 17 19 20 24 rings
6 11 12 17 19 23 26 rings
6 25 27 28 29 30 31 rings
6 32 33 34 35 36 37 rings

> <PUBCHEM_HEAVY_ATOM_COUNT>
38

> <PUBCHEM_ATOM_DEF_STEREO_COUNT>
0

> <PUBCHEM_ATOM_UDEF_STEREO_COUNT>
0

> <PUBCHEM_BOND_DEF_STEREO_COUNT>
0

> <PUBCHEM_BOND_UDEF_STEREO_COUNT>
0

> <PUBCHEM_ISOTOPIC_ATOM_COUNT>
0

> <PUBCHEM_COMPONENT_COUNT>
1

> <PUBCHEM_CACTVS_TAUTO_COUNT>
6

> <PUBCHEM_CONFORMER_ID>
00B1522C00000001

> <PUBCHEM_MMFF94_ENERGY>
100.3905

> <PUBCHEM_FEATURE_SELFOVERLAP>
71.279

> <PUBCHEM_SHAPE_FINGERPRINT>
11014199 57 18051965923454708260
11488393 25 18335699455303463361
12440605 4 17907282601110553831
14790565 3 17907002238445437710
15351339 4 13877422324717288678
16096371 109 18264770037906133845
161222 619 18261392312056820618
19319366 153 18055625368149953884
19611394 137 18187642471393781938
21792938 324 18193289490411000593
21792965 131 17329147383250834727
21796203 349 18338532853855648254
22440779 20 16972850167159331975
394071 54 18341897410886157638
4015057 19 18050255151865543333
4435113 14 17968089816179164325
86090 222 17458349632450797139

> <PUBCHEM_SHAPE_MULTIPOLES>
719.56
15.02
7.55
2.43
21.42
8.47
-1.62
-8.09
-7.65
-16.58
-0.21
4.07
-0.52
-0.23

> <PUBCHEM_SHAPE_SELFOVERLAP>
1547.337

> <PUBCHEM_SHAPE_VOLUME>
400.4

> <PUBCHEM_COORDINATE_TYPE>
2
5
10

$$$$
