11846126
  -OEChem-10052120443D

 37 38  0     0  0  0  0  0  0999 V2000
    2.8576    1.8843    0.0233 O   0  0  0  0  0  0  0  0  0  0  0  0
   -1.1370   -2.2166   -0.9890 O   0  0  0  0  0  0  0  0  0  0  0  0
   -1.3766    0.0773   -1.2286 N   0  0  0  0  0  0  0  0  0  0  0  0
    1.1586    0.3914   -0.4319 N   0  0  0  0  0  0  0  0  0  0  0  0
    3.6455   -2.8524    0.5686 N   0  0  0  0  0  0  0  0  0  0  0  0
   -4.9958   -0.9841    1.2002 N   0  0  0  0  0  0  0  0  0  0  0  0
    5.7291    0.0604    1.0612 N   0  0  0  0  0  0  0  0  0  0  0  0
   -2.7594    0.0585   -1.6482 C   0  0  0  0  0  0  0  0  0  0  0  0
    0.7311   -0.8898   -0.4905 C   0  0  0  0  0  0  0  0  0  0  0  0
   -3.7015    0.1477   -0.4826 C   0  0  0  0  0  0  0  0  0  0  0  0
   -0.6436   -1.0759   -0.9217 C   0  0  0  0  0  0  0  0  0  0  0  0
    2.8257   -1.7504    0.2367 C   0  0  0  0  0  0  0  0  0  0  0  0
    1.5169   -1.9852   -0.1702 C   0  0  0  0  0  0  0  0  0  0  0  0
    2.4361    0.5804   -0.0321 C   0  0  0  0  0  0  0  0  0  0  0  0
    3.3019   -0.4461    0.3098 C   0  0  0  0  0  0  0  0  0  0  0  0
   -4.1332    1.3781   -0.0206 C   0  0  0  0  0  0  0  0  0  0  0  0
   -4.1493   -0.9945    0.1461 C   0  0  0  0  0  0  0  0  0  0  0  0
    1.9093    2.8785   -0.3432 C   0  0  0  0  0  0  0  0  0  0  0  0
   -5.0046    1.4295    1.0618 C   0  0  0  0  0  0  0  0  0  0  0  0
    2.5483    4.2440   -0.2056 C   0  0  0  0  0  0  0  0  0  0  0  0
   -5.4025    0.2309    1.6316 C   0  0  0  0  0  0  0  0  0  0  0  0
    4.6435   -0.1662    0.7250 C   0  0  0  0  0  0  0  0  0  0  0  0
   -2.9530   -0.8527   -2.2262 H   0  0  0  0  0  0  0  0  0  0  0  0
   -2.9084    0.9048   -2.3284 H   0  0  0  0  0  0  0  0  0  0  0  0
   -0.9242    0.9824   -1.1344 H   0  0  0  0  0  0  0  0  0  0  0  0
    1.1340   -2.9993   -0.2312 H   0  0  0  0  0  0  0  0  0  0  0  0
   -3.8019    2.3013   -0.4871 H   0  0  0  0  0  0  0  0  0  0  0  0
   -3.8438   -1.9838   -0.1782 H   0  0  0  0  0  0  0  0  0  0  0  0
    1.5943    2.7359   -1.3840 H   0  0  0  0  0  0  0  0  0  0  0  0
    1.0334    2.8294    0.3152 H   0  0  0  0  0  0  0  0  0  0  0  0
   -5.3605    2.3779    1.4476 H   0  0  0  0  0  0  0  0  0  0  0  0
    4.6014   -2.7165    0.8671 H   0  0  0  0  0  0  0  0  0  0  0  0
    3.2734   -3.7910    0.5059 H   0  0  0  0  0  0  0  0  0  0  0  0
    1.8448    5.0349   -0.4806 H   0  0  0  0  0  0  0  0  0  0  0  0
    2.8831    4.4112    0.8235 H   0  0  0  0  0  0  0  0  0  0  0  0
    3.4341    4.3213   -0.8447 H   0  0  0  0  0  0  0  0  0  0  0  0
   -6.0810    0.2167    2.4783 H   0  0  0  0  0  0  0  0  0  0  0  0
  1 14  1  0  0  0  0
  1 18  1  0  0  0  0
  2 11  2  0  0  0  0
  3  8  1  0  0  0  0
  3 11  1  0  0  0  0
  3 25  1  0  0  0  0
  4  9  2  0  0  0  0
  4 14  1  0  0  0  0
  5 12  1  0  0  0  0
  5 32  1  0  0  0  0
  5 33  1  0  0  0  0
  6 17  1  0  0  0  0
  6 21  2  0  0  0  0
  7 22  3  0  0  0  0
  8 10  1  0  0  0  0
  8 23  1  0  0  0  0
  8 24  1  0  0  0  0
  9 11  1  0  0  0  0
  9 13  1  0  0  0  0
 10 16  1  0  0  0  0
 10 17  2  0  0  0  0
 12 13  2  0  0  0  0
 12 15  1  0  0  0  0
 13 26  1  0  0  0  0
 14 15  2  0  0  0  0
 15 22  1  0  0  0  0
 16 19  2  0  0  0  0
 16 27  1  0  0  0  0
 17 28  1  0  0  0  0
 18 20  1  0  0  0  0
 18 29  1  0  0  0  0
 18 30  1  0  0  0  0
 19 21  1  0  0  0  0
 19 31  1  0  0  0  0
 20 34  1  0  0  0  0
 20 35  1  0  0  0  0
 20 36  1  0  0  0  0
 21 37  1  0  0  0  0
M  END
> <PUBCHEM_COMPOUND_CID>
11846126

> <PUBCHEM_CONFORMER_RMSD>
0.8

> <PUBCHEM_CONFORMER_DIVERSEORDER>
1
51
17
10
24
79
69
70
81
56
80
6
12
63
37
15
77
82
57
48
3
73
44
65
47
59
11
61
66
67
7
21
20
55
62
22
58
25
30
76
42
72
60
23
29
38
32
8
54
68
4
46
52
5
2
36
28
78
39
84
9
40
27
41
74
64
31
13
18
34
53
14
26
16
50
49
33
45
19
43
85
35
71
83
75

> <PUBCHEM_MMFF94_PARTIAL_CHARGES>
29
1 -0.36
10 -0.14
11 0.54
12 0.1
13 -0.15
14 0.39
15 0.07
16 -0.15
17 0.16
18 0.28
19 -0.15
2 -0.57
21 0.16
22 0.48
25 0.37
26 0.15
27 0.15
28 0.15
3 -0.73
31 0.15
32 0.4
33 0.4
37 0.15
4 -0.62
5 -0.9
6 -0.62
7 -0.56
8 0.44
9 0.4

> <PUBCHEM_EFFECTIVE_ROTOR_COUNT>
6

> <PUBCHEM_PHARMACOPHORE_FEATURES>
10
1 1 acceptor
1 2 acceptor
1 3 donor
1 4 acceptor
1 5 cation
1 5 donor
1 6 acceptor
1 7 acceptor
6 4 9 12 13 14 15 rings
6 6 10 16 17 19 21 rings

> <PUBCHEM_HEAVY_ATOM_COUNT>
22

> <PUBCHEM_ATOM_DEF_STEREO_COUNT>
0

> <PUBCHEM_ATOM_UDEF_STEREO_COUNT>
0

> <PUBCHEM_BOND_DEF_STEREO_COUNT>
0

> <PUBCHEM_BOND_UDEF_STEREO_COUNT>
0

> <PUBCHEM_ISOTOPIC_ATOM_COUNT>
0

> <PUBCHEM_COMPONENT_COUNT>
1

> <PUBCHEM_CACTVS_TAUTO_COUNT>
4

> <PUBCHEM_CONFORMER_ID>
00B4C1EE00000001

> <PUBCHEM_MMFF94_ENERGY>
61.1489

> <PUBCHEM_FEATURE_SELFOVERLAP>
50.797

> <PUBCHEM_SHAPE_FINGERPRINT>
10354089 29 18413390925499760162
10498660 4 14045458874683061691
10906281 52 18338517556189156272
11045977 3 18113623352874622323
11370993 144 18261396577507789563
11545043 162 16805595950149724261
11552529 35 18267585883069456987
12390115 104 17760939832462272092
12403259 118 18343582937127575433
12507557 5 18410571769439190185
12633257 1 18187366549439909259
12670546 177 10735875050167170867
13140716 1 18265046023861347140
13583140 156 18040983034664146367
14341114 176 18339367361937902307
14790565 3 18336828718913744308
14849402 71 18263648540546796796
14950920 106 18187372060236430153
14955137 171 18409172091332021926
15003188 33 10015048416926317491
15081414 286 18412822461457112500
15188451 53 17240771718164931427
15238133 3 18335711520145964932
15475509 8 18201454566858627324
15842332 3 17987221395510918991
1601671 61 18413102862644409350
18785283 64 18115591581578016420
20739085 24 18270405966942708942
21665062 11 18411417285090470988
235170 7 12103557551173088497
3472631 163 15841544180875409537
38570 142 18122647186332642084
474 4 18342736312773137895
49207404 50 18115595983808211625
5104073 3 18264486359125358659
602551 16 16370733620891263635
7495541 125 17022901259626550860
960060 61 8718828657019305067

> <PUBCHEM_SHAPE_MULTIPOLES>
416.11
12.09
3.25
1.23
7.37
3.15
-0.01
0.85
-6.22
-4
0.22
1.27
-0.11
-0.76

> <PUBCHEM_SHAPE_SELFOVERLAP>
883.781

> <PUBCHEM_SHAPE_VOLUME>
228.4

> <PUBCHEM_COORDINATE_TYPE>
2
5
10

$$$$
