49830970
  -OEChem-10052115193D

 33 34  0     0  0  0  0  0  0999 V2000
   -1.9304    2.7531   -1.1041 O   0  0  0  0  0  0  0  0  0  0  0  0
   -0.3721    0.0863   -0.0154 N   0  0  0  0  0  0  0  0  0  0  0  0
    0.8421    0.7009   -0.0188 N   0  0  0  0  0  0  0  0  0  0  0  0
   -1.3146   -2.1294    0.0117 N   0  0  0  0  0  0  0  0  0  0  0  0
   -1.9274    2.6870    1.2040 N   0  0  0  0  0  0  0  0  0  0  0  0
    3.1661    0.0062    0.0006 C   0  0  0  0  0  0  0  0  0  0  0  0
    1.7246   -0.2964   -0.0013 C   0  0  0  0  0  0  0  0  0  0  0  0
    3.8923   -0.6028   -1.2474 C   0  0  0  0  0  0  0  0  0  0  0  0
    3.8825   -0.5700    1.2696 C   0  0  0  0  0  0  0  0  0  0  0  0
    3.5510    1.5311   -0.0178 C   0  0  0  0  0  0  0  0  0  0  0  0
    1.1192   -1.5588    0.0136 C   0  0  0  0  0  0  0  0  0  0  0  0
   -0.2328   -1.3020    0.0045 C   0  0  0  0  0  0  0  0  0  0  0  0
   -1.6365    0.6775   -0.0284 C   0  0  0  0  0  0  0  0  0  0  0  0
   -2.4859   -1.5627   -0.0026 C   0  0  0  0  0  0  0  0  0  0  0  0
   -2.7356   -0.0885   -0.0231 C   0  0  0  0  0  0  0  0  0  0  0  0
   -1.8441    2.1289   -0.0496 C   0  0  0  0  0  0  0  0  0  0  0  0
   -3.6983   -2.4604    0.0047 C   0  0  0  0  0  0  0  0  0  0  0  0
    3.4655   -0.2057   -2.1758 H   0  0  0  0  0  0  0  0  0  0  0  0
    3.7842   -1.6932   -1.2738 H   0  0  0  0  0  0  0  0  0  0  0  0
    4.9644   -0.3758   -1.2407 H   0  0  0  0  0  0  0  0  0  0  0  0
    4.9546   -0.3430    1.2654 H   0  0  0  0  0  0  0  0  0  0  0  0
    3.4485   -0.1489    2.1840 H   0  0  0  0  0  0  0  0  0  0  0  0
    3.7742   -1.6593    1.3235 H   0  0  0  0  0  0  0  0  0  0  0  0
    4.6376    1.6744   -0.0153 H   0  0  0  0  0  0  0  0  0  0  0  0
    3.1496    2.0236   -0.9112 H   0  0  0  0  0  0  0  0  0  0  0  0
    3.1424    2.0467    0.8591 H   0  0  0  0  0  0  0  0  0  0  0  0
    1.5874   -2.5327    0.0292 H   0  0  0  0  0  0  0  0  0  0  0  0
   -3.7480    0.2936   -0.0332 H   0  0  0  0  0  0  0  0  0  0  0  0
   -3.6687   -3.1129   -0.8729 H   0  0  0  0  0  0  0  0  0  0  0  0
   -4.6269   -1.8846   -0.0152 H   0  0  0  0  0  0  0  0  0  0  0  0
   -3.6842   -3.0772    0.9080 H   0  0  0  0  0  0  0  0  0  0  0  0
   -2.0706    3.6846    1.3213 H   0  0  0  0  0  0  0  0  0  0  0  0
   -1.8499    2.1368    2.0539 H   0  0  0  0  0  0  0  0  0  0  0  0
  1 16  2  0  0  0  0
  2  3  1  0  0  0  0
  2 12  1  0  0  0  0
  2 13  1  0  0  0  0
  3  7  2  0  0  0  0
  4 12  1  0  0  0  0
  4 14  2  0  0  0  0
  5 16  1  0  0  0  0
  5 32  1  0  0  0  0
  5 33  1  0  0  0  0
  6  7  1  0  0  0  0
  6  8  1  0  0  0  0
  6  9  1  0  0  0  0
  6 10  1  0  0  0  0
  7 11  1  0  0  0  0
  8 18  1  0  0  0  0
  8 19  1  0  0  0  0
  8 20  1  0  0  0  0
  9 21  1  0  0  0  0
  9 22  1  0  0  0  0
  9 23  1  0  0  0  0
 10 24  1  0  0  0  0
 10 25  1  0  0  0  0
 10 26  1  0  0  0  0
 11 12  2  0  0  0  0
 11 27  1  0  0  0  0
 13 15  2  0  0  0  0
 13 16  1  0  0  0  0
 14 15  1  0  0  0  0
 14 17  1  0  0  0  0
 15 28  1  0  0  0  0
 17 29  1  0  0  0  0
 17 30  1  0  0  0  0
 17 31  1  0  0  0  0
M  END
> <PUBCHEM_COMPOUND_CID>
49830970

> <PUBCHEM_CONFORMER_RMSD>
0.6

> <PUBCHEM_CONFORMER_DIVERSEORDER>
1
3
2
4

> <PUBCHEM_MMFF94_PARTIAL_CHARGES>
18
1 -0.57
11 -0.15
12 -0.03
13 -0.02
14 0.37
15 -0.14
16 0.62
17 0.06
2 0.6
27 0.15
28 0.15
3 -0.71
32 0.37
33 0.37
4 -0.58
5 -0.8
6 0.18
7 0.11

> <PUBCHEM_EFFECTIVE_ROTOR_COUNT>
2

> <PUBCHEM_PHARMACOPHORE_FEATURES>
7
1 1 acceptor
1 3 acceptor
1 4 acceptor
1 5 donor
4 6 8 9 10 hydrophobe
5 2 3 7 11 12 rings
6 2 4 12 13 14 15 rings

> <PUBCHEM_HEAVY_ATOM_COUNT>
17

> <PUBCHEM_ATOM_DEF_STEREO_COUNT>
0

> <PUBCHEM_ATOM_UDEF_STEREO_COUNT>
0

> <PUBCHEM_BOND_DEF_STEREO_COUNT>
0

> <PUBCHEM_BOND_UDEF_STEREO_COUNT>
0

> <PUBCHEM_ISOTOPIC_ATOM_COUNT>
0

> <PUBCHEM_COMPONENT_COUNT>
1

> <PUBCHEM_CACTVS_TAUTO_COUNT>
2

> <PUBCHEM_CONFORMER_ID>
02F85C3A00000001

> <PUBCHEM_MMFF94_ENERGY>
47.1674

> <PUBCHEM_FEATURE_SELFOVERLAP>
35.648

> <PUBCHEM_SHAPE_FINGERPRINT>
10498660 4 18335700576326617268
10608611 8 18413669106568799156
10922523 26 18131635560808443358
11132069 177 18343584057533706619
12032990 46 18267028438857719231
12403259 226 18341609347777566426
12491281 212 18263372408123390768
13140716 1 18266741466275001099
13380535 21 18196102040252095646
14178342 30 18338222757606923322
14614273 12 18263076635258736453
15442244 35 18263639581165305098
16945 1 18410573980867325678
1741750 31 18198902504894633401
18186145 218 18128820733710793536
19049666 15 17988081080654979794
20510252 161 18341332279178884314
20871998 184 18273216421637083159
21029758 11 18197211667102892583
21029758 27 18118692247454998583
21296965 67 18266458904914248183
21501502 16 18335702672487201562
21524375 3 17899979335434744449
22182937 141 18129106636424545849
2334 1 17906452482346433107
23402539 116 18270672190512027479
23419403 2 17980169179781421581
23557571 272 18270693055051279134
23559900 14 18271525300155772902
23598291 2 17822010870439958966
2748010 2 18343016670789222284
312423 11 18114472223043125610
5104073 3 18410855498957143122
6049 1 18060143137237618832
68521 5 18408885165936350111
6992083 37 18041562416998892348
7097593 13 17753031822818021354
74978 22 18339361851679445160
7615 1 17967810535935503316
77492 1 17676207953279111854
81228 2 18336840761394822115
84936 182 17261854573590024601
9709674 26 18271243820319943534

> <PUBCHEM_SHAPE_MULTIPOLES>
324.06
6.81
2.83
0.92
4.32
1.41
0.03
-1.46
0
-3.14
0.02
0.55
0.2
-0.01

> <PUBCHEM_SHAPE_SELFOVERLAP>
687.221

> <PUBCHEM_SHAPE_VOLUME>
184

> <PUBCHEM_COORDINATE_TYPE>
2
5
10

$$$$
