449054
  -OEChem-10052115143D

 35 38  0     0  0  0  0  0  0999 V2000
   -3.0270    1.9969    0.4802 N   0  0  0  0  0  0  0  0  0  0  0  0
    1.1271    0.8190    0.7553 N   0  0  0  0  0  0  0  0  0  0  0  0
   -2.5648    3.2556    0.5704 N   0  0  0  0  0  0  0  0  0  0  0  0
   -1.3480   -1.1503    0.3367 N   0  0  0  0  0  0  0  0  0  0  0  0
    4.0412   -0.4217   -1.0667 N   0  0  0  0  0  0  0  0  0  0  0  0
   -0.9005    1.7879    0.0378 C   0  0  0  0  0  0  0  0  0  0  0  0
   -2.0689    1.0791    0.1632 C   0  0  0  0  0  0  0  0  0  0  0  0
    0.3750    1.2197   -0.2912 C   0  0  0  0  0  0  0  0  0  0  0  0
   -2.3689   -0.3248    0.0207 C   0  0  0  0  0  0  0  0  0  0  0  0
   -1.2640    3.1211    0.2988 C   0  0  0  0  0  0  0  0  0  0  0  0
    0.7735    1.1070   -1.6051 C   0  0  0  0  0  0  0  0  0  0  0  0
    2.3340    0.2782    0.4966 C   0  0  0  0  0  0  0  0  0  0  0  0
    2.8341    0.1185   -0.8078 C   0  0  0  0  0  0  0  0  0  0  0  0
    2.0212    0.5475   -1.8501 C   0  0  0  0  0  0  0  0  0  0  0  0
   -3.6134   -0.7519   -0.4076 C   0  0  0  0  0  0  0  0  0  0  0  0
   -1.5912   -2.4746    0.2158 C   0  0  0  0  0  0  0  0  0  0  0  0
    3.1469   -0.1513    1.5386 C   0  0  0  0  0  0  0  0  0  0  0  0
   -3.8253   -2.1216   -0.5193 C   0  0  0  0  0  0  0  0  0  0  0  0
   -2.8001   -3.0062   -0.2035 C   0  0  0  0  0  0  0  0  0  0  0  0
    4.3947   -0.7105    1.2934 C   0  0  0  0  0  0  0  0  0  0  0  0
   -0.4691   -3.3947    0.5642 C   0  0  0  0  0  0  0  0  0  0  0  0
    4.7935   -0.8228   -0.0204 C   0  0  0  0  0  0  0  0  0  0  0  0
   -0.6394    4.0033    0.3037 H   0  0  0  0  0  0  0  0  0  0  0  0
    0.1506    1.4364   -2.4301 H   0  0  0  0  0  0  0  0  0  0  0  0
   -4.0119    1.8421    0.6574 H   0  0  0  0  0  0  0  0  0  0  0  0
    2.3592    0.4471   -2.8795 H   0  0  0  0  0  0  0  0  0  0  0  0
   -4.4138   -0.0662   -0.6646 H   0  0  0  0  0  0  0  0  0  0  0  0
    2.8086   -0.0518    2.5679 H   0  0  0  0  0  0  0  0  0  0  0  0
   -4.7869   -2.4991   -0.8540 H   0  0  0  0  0  0  0  0  0  0  0  0
   -2.9534   -4.0768   -0.2870 H   0  0  0  0  0  0  0  0  0  0  0  0
    5.0285   -1.0452    2.1059 H   0  0  0  0  0  0  0  0  0  0  0  0
    0.4194   -2.8323    0.8700 H   0  0  0  0  0  0  0  0  0  0  0  0
   -0.7566   -4.0492    1.3931 H   0  0  0  0  0  0  0  0  0  0  0  0
   -0.1978   -4.0090   -0.3002 H   0  0  0  0  0  0  0  0  0  0  0  0
    5.7561   -1.2507   -0.2785 H   0  0  0  0  0  0  0  0  0  0  0  0
  1  3  1  0  0  0  0
  1  7  1  0  0  0  0
  1 25  1  0  0  0  0
  2  8  2  0  0  0  0
  2 12  1  0  0  0  0
  3 10  2  0  0  0  0
  4  9  1  0  0  0  0
  4 16  2  0  0  0  0
  5 13  1  0  0  0  0
  5 22  2  0  0  0  0
  6  7  2  0  0  0  0
  6  8  1  0  0  0  0
  6 10  1  0  0  0  0
  7  9  1  0  0  0  0
  8 11  1  0  0  0  0
  9 15  2  0  0  0  0
 10 23  1  0  0  0  0
 11 14  2  0  0  0  0
 11 24  1  0  0  0  0
 12 13  2  0  0  0  0
 12 17  1  0  0  0  0
 13 14  1  0  0  0  0
 14 26  1  0  0  0  0
 15 18  1  0  0  0  0
 15 27  1  0  0  0  0
 16 19  1  0  0  0  0
 16 21  1  0  0  0  0
 17 20  2  0  0  0  0
 17 28  1  0  0  0  0
 18 19  2  0  0  0  0
 18 29  1  0  0  0  0
 19 30  1  0  0  0  0
 20 22  1  0  0  0  0
 20 31  1  0  0  0  0
 21 32  1  0  0  0  0
 21 33  1  0  0  0  0
 21 34  1  0  0  0  0
 22 35  1  0  0  0  0
M  END
> <PUBCHEM_COMPOUND_CID>
449054

> <PUBCHEM_CONFORMER_RMSD>
0.6

> <PUBCHEM_CONFORMER_DIVERSEORDER>
2
21
24
3
16
22
10
28
11
9
26
18
5
25
14
27
6
7
17
23
20
4
12
8
19
15
1
13

> <PUBCHEM_MMFF94_PARTIAL_CHARGES>
32
1 0.3
10 0.14
11 -0.15
12 0.31
13 0.31
14 -0.15
15 -0.15
16 0.17
17 -0.15
18 -0.15
19 -0.15
2 -0.62
20 -0.15
21 0.14
22 0.16
23 0.15
24 0.15
25 0.27
26 0.15
27 0.15
28 0.15
29 0.15
3 -0.71
30 0.15
31 0.15
35 0.15
4 -0.62
5 -0.62
6 -0.05
7 -0.2
8 0.36
9 0.36

> <PUBCHEM_EFFECTIVE_ROTOR_COUNT>
2

> <PUBCHEM_PHARMACOPHORE_FEATURES>
9
1 1 donor
1 2 acceptor
1 3 acceptor
1 4 acceptor
1 5 acceptor
5 1 3 6 7 10 rings
6 2 8 11 12 13 14 rings
6 4 9 15 16 18 19 rings
6 5 12 13 17 20 22 rings

> <PUBCHEM_HEAVY_ATOM_COUNT>
22

> <PUBCHEM_ATOM_DEF_STEREO_COUNT>
0

> <PUBCHEM_ATOM_UDEF_STEREO_COUNT>
0

> <PUBCHEM_BOND_DEF_STEREO_COUNT>
0

> <PUBCHEM_BOND_UDEF_STEREO_COUNT>
0

> <PUBCHEM_ISOTOPIC_ATOM_COUNT>
0

> <PUBCHEM_COMPONENT_COUNT>
1

> <PUBCHEM_CACTVS_TAUTO_COUNT>
5

> <PUBCHEM_CONFORMER_ID>
0006DA1E00000002

> <PUBCHEM_MMFF94_ENERGY>
58.8506

> <PUBCHEM_FEATURE_SELFOVERLAP>
45.71

> <PUBCHEM_SHAPE_FINGERPRINT>
10319926 262 18198882774880454266
104564 63 18409730651164546818
10616163 171 18411139117323311910
114674 6 16388751657090813451
11582403 64 16549122639531458552
12236239 1 17822581512073347256
12363563 72 18198344150809601807
12500047 106 18268710498437751356
12553582 1 18194979645175820479
12633257 1 18060146439550726336
12788726 201 18338249257064281917
13004483 165 18268134530184994971
13009979 54 18187652435337502438
13140716 1 18339928237722826193
13583140 156 17560223753135995866
14081887 123 18343012272985479842
14178342 30 18339643317612599236
16752209 62 18335695040335195075
17977361 122 18335415781477609315
20600515 1 18343303682348750609
20832881 197 18265613380963417127
20905425 154 18271250408710312735
21452121 199 18123185968072032413
21634736 98 18042692874050288430
22112679 90 18041007210950763492
23184049 29 18339078327502460313
23419403 2 17542458007025844476
23557571 272 18059863843608675684
23559900 14 18342737438286989748
23728640 28 18336835199412173963
3004659 81 18115020926020593542
3027735 51 18341605976323788871
3797600 57 12748986497146698919
463206 1 18121209042119088119
602551 16 18412261706105326802
6992083 37 18041001696001550940
7064713 232 18121202200472595154
81228 2 18200330895538586025
90525 40 18115034004227378737
9709674 26 18200880586801338342
9862522 239 17607522427890939269

> <PUBCHEM_SHAPE_MULTIPOLES>
427.84
7.71
3.62
1.26
5.56
0.04
0.29
3.48
-0.35
-4.56
-0.68
1.24
-0.15
-0.95

> <PUBCHEM_SHAPE_SELFOVERLAP>
968.084

> <PUBCHEM_SHAPE_VOLUME>
223

> <PUBCHEM_COORDINATE_TYPE>
2
5
10

$$$$
