10043994
  -OEChem-10062122043D

 44 47  0     0  0  0  0  0  0999 V2000
    0.5763    4.5901    0.5617 O   0  0  0  0  0  0  0  0  0  0  0  0
   -3.7599    3.4482   -0.5447 O   0  0  0  0  0  0  0  0  0  0  0  0
    6.6054   -0.8316   -0.4535 O   0  0  0  0  0  0  0  0  0  0  0  0
    1.1016   -0.7899    0.3424 N   0  0  0  0  0  0  0  0  0  0  0  0
   -1.5654   -1.4917   -0.3404 N   0  0  0  0  0  0  0  0  0  0  0  0
   -1.6951    4.4110    0.0092 N   0  0  0  0  0  0  0  0  0  0  0  0
   -0.4950    2.5027    0.1724 C   0  0  0  0  0  0  0  0  0  0  0  0
   -1.7983    2.1596   -0.1612 C   0  0  0  0  0  0  0  0  0  0  0  0
    0.1190    0.2148    0.1719 C   0  0  0  0  0  0  0  0  0  0  0  0
   -1.2048   -0.1336   -0.1671 C   0  0  0  0  0  0  0  0  0  0  0  0
    0.4887    1.5516    0.3463 C   0  0  0  0  0  0  0  0  0  0  0  0
   -2.1856    0.8476   -0.3383 C   0  0  0  0  0  0  0  0  0  0  0  0
   -0.4256    3.9594    0.2832 C   0  0  0  0  0  0  0  0  0  0  0  0
   -2.5771    3.3931   -0.2673 C   0  0  0  0  0  0  0  0  0  0  0  0
    2.4920   -0.8009    0.1414 C   0  0  0  0  0  0  0  0  0  0  0  0
   -2.7699   -2.1862   -0.1398 C   0  0  0  0  0  0  0  0  0  0  0  0
    3.3085   -1.6257    0.9199 C   0  0  0  0  0  0  0  0  0  0  0  0
    3.0668    0.0140   -0.8380 C   0  0  0  0  0  0  0  0  0  0  0  0
   -3.0755   -3.3045   -0.9207 C   0  0  0  0  0  0  0  0  0  0  0  0
   -3.6704   -1.7629    0.8420 C   0  0  0  0  0  0  0  0  0  0  0  0
    4.6890   -1.6355    0.7208 C   0  0  0  0  0  0  0  0  0  0  0  0
    4.4474    0.0040   -1.0372 C   0  0  0  0  0  0  0  0  0  0  0  0
    5.2586   -0.8209   -0.2579 C   0  0  0  0  0  0  0  0  0  0  0  0
   -4.2719   -3.9936   -0.7218 C   0  0  0  0  0  0  0  0  0  0  0  0
   -4.8666   -2.4522    1.0409 C   0  0  0  0  0  0  0  0  0  0  0  0
   -5.1673   -3.5676    0.2589 C   0  0  0  0  0  0  0  0  0  0  0  0
    7.3753   -1.6994    0.3771 C   0  0  0  0  0  0  0  0  0  0  0  0
    1.4920    1.8490    0.6292 H   0  0  0  0  0  0  0  0  0  0  0  0
   -3.2054    0.6126   -0.6209 H   0  0  0  0  0  0  0  0  0  0  0  0
    0.7293   -1.6632    0.7044 H   0  0  0  0  0  0  0  0  0  0  0  0
   -0.8119   -2.0675   -0.7046 H   0  0  0  0  0  0  0  0  0  0  0  0
   -1.9537    5.3914    0.0109 H   0  0  0  0  0  0  0  0  0  0  0  0
    2.8766   -2.2645    1.6864 H   0  0  0  0  0  0  0  0  0  0  0  0
    2.4586    0.6492   -1.4764 H   0  0  0  0  0  0  0  0  0  0  0  0
   -2.3867   -3.6467   -1.6892 H   0  0  0  0  0  0  0  0  0  0  0  0
   -3.4533   -0.9122    1.4823 H   0  0  0  0  0  0  0  0  0  0  0  0
    5.2599   -2.2995    1.3609 H   0  0  0  0  0  0  0  0  0  0  0  0
    4.8849    0.6368   -1.8046 H   0  0  0  0  0  0  0  0  0  0  0  0
   -4.5061   -4.8621   -1.3304 H   0  0  0  0  0  0  0  0  0  0  0  0
   -5.5617   -2.1240    1.8082 H   0  0  0  0  0  0  0  0  0  0  0  0
   -6.0982   -4.1050    0.4148 H   0  0  0  0  0  0  0  0  0  0  0  0
    7.1149   -2.7504    0.2117 H   0  0  0  0  0  0  0  0  0  0  0  0
    7.3032   -1.4150    1.4323 H   0  0  0  0  0  0  0  0  0  0  0  0
    8.4237   -1.5802    0.0849 H   0  0  0  0  0  0  0  0  0  0  0  0
  1 13  2  0  0  0  0
  2 14  2  0  0  0  0
  3 23  1  0  0  0  0
  3 27  1  0  0  0  0
  4  9  1  0  0  0  0
  4 15  1  0  0  0  0
  4 30  1  0  0  0  0
  5 10  1  0  0  0  0
  5 16  1  0  0  0  0
  5 31  1  0  0  0  0
  6 13  1  0  0  0  0
  6 14  1  0  0  0  0
  6 32  1  0  0  0  0
  7  8  1  0  0  0  0
  7 11  2  0  0  0  0
  7 13  1  0  0  0  0
  8 12  2  0  0  0  0
  8 14  1  0  0  0  0
  9 10  2  0  0  0  0
  9 11  1  0  0  0  0
 10 12  1  0  0  0  0
 11 28  1  0  0  0  0
 12 29  1  0  0  0  0
 15 17  2  0  0  0  0
 15 18  1  0  0  0  0
 16 19  2  0  0  0  0
 16 20  1  0  0  0  0
 17 21  1  0  0  0  0
 17 33  1  0  0  0  0
 18 22  2  0  0  0  0
 18 34  1  0  0  0  0
 19 24  1  0  0  0  0
 19 35  1  0  0  0  0
 20 25  2  0  0  0  0
 20 36  1  0  0  0  0
 21 23  2  0  0  0  0
 21 37  1  0  0  0  0
 22 23  1  0  0  0  0
 22 38  1  0  0  0  0
 24 26  2  0  0  0  0
 24 39  1  0  0  0  0
 25 26  1  0  0  0  0
 25 40  1  0  0  0  0
 26 41  1  0  0  0  0
 27 42  1  0  0  0  0
 27 43  1  0  0  0  0
 27 44  1  0  0  0  0
M  END
> <PUBCHEM_COMPOUND_CID>
10043994

> <PUBCHEM_CONFORMER_RMSD>
0.8

> <PUBCHEM_CONFORMER_DIVERSEORDER>
1
26
32
36
24
20
23
17
2
14
9
22
18
4
10
13
25
19
3
21
5
6
30
15
7
35
8
31
29
33
34
16
37
38
11
12
27
28

> <PUBCHEM_MMFF94_PARTIAL_CHARGES>
41
1 -0.57
10 0.1
11 -0.15
12 -0.15
13 0.54
14 0.54
15 0.1
16 0.1
17 -0.15
18 -0.15
19 -0.15
2 -0.57
20 -0.15
21 -0.15
22 -0.15
23 0.08
24 -0.15
25 -0.15
26 -0.15
27 0.28
28 0.15
29 0.15
3 -0.36
30 0.4
31 0.4
32 0.37
33 0.15
34 0.15
35 0.15
36 0.15
37 0.15
38 0.15
39 0.15
4 -0.6
40 0.15
41 0.15
5 -0.6
6 -0.49
7 0.09
8 0.09
9 0.1

> <PUBCHEM_EFFECTIVE_ROTOR_COUNT>
5.2

> <PUBCHEM_PHARMACOPHORE_FEATURES>
12
1 1 acceptor
1 2 acceptor
1 3 acceptor
1 4 cation
1 4 donor
1 5 cation
1 5 donor
1 6 donor
5 6 7 8 13 14 rings
6 15 17 18 21 22 23 rings
6 16 19 20 24 25 26 rings
6 7 8 9 10 11 12 rings

> <PUBCHEM_HEAVY_ATOM_COUNT>
27

> <PUBCHEM_ATOM_DEF_STEREO_COUNT>
0

> <PUBCHEM_ATOM_UDEF_STEREO_COUNT>
0

> <PUBCHEM_BOND_DEF_STEREO_COUNT>
0

> <PUBCHEM_BOND_UDEF_STEREO_COUNT>
0

> <PUBCHEM_ISOTOPIC_ATOM_COUNT>
0

> <PUBCHEM_COMPONENT_COUNT>
1

> <PUBCHEM_CACTVS_TAUTO_COUNT>
32

> <PUBCHEM_CONFORMER_ID>
0099425A00000001

> <PUBCHEM_MMFF94_ENERGY>
119.0132

> <PUBCHEM_FEATURE_SELFOVERLAP>
60.995

> <PUBCHEM_SHAPE_FINGERPRINT>
10411042 1 18338797939384843895
10622 236 17896584129871422978
1100329 8 18410293597630213153
11056379 131 18339086995195032046
11135609 149 17909525583566545863
12107183 9 18270416000640713451
12166972 35 17749110045425413150
12553582 1 18338790238392697491
12788726 201 18262815032937786454
13140716 1 18413388735077307297
13590594 115 18337680831639559811
13631057 29 18335419071844512354
138480 1 15745005573787066095
13911987 19 17975400331532682181
13955234 65 17547578536135102515
14251757 5 18335693911054247709
14347332 77 18410014317276549126
14674994 50 17489007341465120343
14844126 61 18337108977665214883
15042514 8 18410859815525660811
15064981 194 18267038180271139500
15876981 60 18334863809618573716
15968369 26 17251734054286559910
16087824 20 18337953378028549893
16992752 21 18338527430002680102
17492 89 18410014291633378350
1813 80 18198919178179534479
19427546 20 18335422335708135396
20101258 96 18411419535547806625
20505436 4 17607814898305090136
21049683 271 17900551373517612151
2132832 1 18114466746996773068
21478907 32 18338236067567972965
21796203 349 17903956505163397475
22950370 63 18338804536301798647
23559900 14 18050844726600981931
255183 451 18054510485187699463
283562 15 18261110764192578378
3421961 26 18051413165136861915
4409770 3 18335980862277751925
463206 1 18190463963822043810
469060 322 18341347638114226378
5171179 24 18269550701394075865
5309563 4 18339076115763647063
5969126 39 18411134762215781342
6058803 2 18042691607573025602
6700243 42 17914649157427951556
70251023 43 18264207100737089235
7164475 11 18409173199386364910
77188 2 18266740375527504349
7970288 3 18339359794095939190
79837 15 17907299853813859203
9981440 41 17760651360904643665

> <PUBCHEM_SHAPE_MULTIPOLES>
523.1
12.91
6.29
0.91
19.19
6.63
0
-16.72
0.2
-9.09
0.04
0
-0.36
-0.2

> <PUBCHEM_SHAPE_SELFOVERLAP>
1162.311

> <PUBCHEM_SHAPE_VOLUME>
279.7

> <PUBCHEM_COORDINATE_TYPE>
2
5
10

$$$$
