135441202
  -OEChem-10062122013D

 67 71  0     0  0  0  0  0  0999 V2000
   -1.2343    3.3767    0.7951 Cl  0  0  0  0  0  0  0  0  0  0  0  0
   -9.2424    1.6280   -1.5526 F   0  0  0  0  0  0  0  0  0  0  0  0
    3.7089   -3.1282   -2.0168 O   0  0  0  0  0  0  0  0  0  0  0  0
   -5.6207   -0.0956   -0.3057 N   0  0  0  0  0  0  0  0  0  0  0  0
    1.5332   -0.8410   -0.6693 N   0  0  0  0  0  0  0  0  0  0  0  0
    2.3938   -1.9821    1.0328 N   0  0  0  0  0  0  0  0  0  0  0  0
    4.2952    0.9645    0.4267 N   0  0  0  0  0  0  0  0  0  0  0  0
    5.5756   -1.8344   -2.3639 N   0  0  0  0  0  0  0  0  0  0  0  0
    2.6083    3.4120    0.7007 N   0  0  0  0  0  0  0  0  0  0  0  0
    2.4063    3.7964   -0.5711 N   0  0  0  0  0  0  0  0  0  0  0  0
   -3.2153   -1.1857    0.9667 C   0  0  0  0  0  0  0  0  0  0  0  0
   -3.8563   -1.8312   -0.2717 C   0  0  0  0  0  0  0  0  0  0  0  0
   -3.5681    0.3090    1.0173 C   0  0  0  0  0  0  0  0  0  0  0  0
   -5.3585   -1.5412   -0.3297 C   0  0  0  0  0  0  0  0  0  0  0  0
   -5.0805    0.5226    0.9129 C   0  0  0  0  0  0  0  0  0  0  0  0
   -1.7193   -1.4261    1.0307 C   0  0  0  0  0  0  0  0  0  0  0  0
   -7.0556    0.1655   -0.4187 C   0  0  0  0  0  0  0  0  0  0  0  0
   -0.9019   -0.9236    0.0129 C   0  0  0  0  0  0  0  0  0  0  0  0
   -1.1837   -2.1436    2.1027 C   0  0  0  0  0  0  0  0  0  0  0  0
   -7.4942    0.0942   -1.8805 C   0  0  0  0  0  0  0  0  0  0  0  0
    0.4660   -1.1751    0.1245 C   0  0  0  0  0  0  0  0  0  0  0  0
    0.1931   -2.3842    2.1938 C   0  0  0  0  0  0  0  0  0  0  0  0
    1.0291   -1.8866    1.1801 C   0  0  0  0  0  0  0  0  0  0  0  0
   -8.9786    0.3826   -2.0293 C   0  0  0  0  0  0  0  0  0  0  0  0
    2.6617   -1.3451   -0.0850 C   0  0  0  0  0  0  0  0  0  0  0  0
    0.7178   -3.1568    3.3596 C   0  0  0  0  0  0  0  0  0  0  0  0
    3.8839   -1.1159   -0.7398 C   0  0  0  0  0  0  0  0  0  0  0  0
    4.6300   -0.0143   -0.4742 C   0  0  0  0  0  0  0  0  0  0  0  0
    4.3668   -2.1219   -1.7580 C   0  0  0  0  0  0  0  0  0  0  0  0
    5.8890    0.1738   -1.1827 C   0  0  0  0  0  0  0  0  0  0  0  0
    4.8579    2.2852    0.3964 C   0  0  0  0  0  0  0  0  0  0  0  0
    6.3127   -0.7184   -2.0823 C   0  0  0  0  0  0  0  0  0  0  0  0
    4.0161    3.2572    1.2219 C   0  0  0  0  0  0  0  0  0  0  0  0
    1.4576    3.1981    1.4012 C   0  0  0  0  0  0  0  0  0  0  0  0
    0.4316    3.4608    0.5267 C   0  0  0  0  0  0  0  0  0  0  0  0
    1.0747    3.8246   -0.6716 C   0  0  0  0  0  0  0  0  0  0  0  0
   -3.6762   -1.6544    1.8483 H   0  0  0  0  0  0  0  0  0  0  0  0
   -3.6952   -2.9164   -0.2542 H   0  0  0  0  0  0  0  0  0  0  0  0
   -3.3891   -1.4619   -1.1937 H   0  0  0  0  0  0  0  0  0  0  0  0
   -3.0799    0.8518    0.1983 H   0  0  0  0  0  0  0  0  0  0  0  0
   -3.2002    0.7512    1.9514 H   0  0  0  0  0  0  0  0  0  0  0  0
   -5.7424   -1.9933   -1.2504 H   0  0  0  0  0  0  0  0  0  0  0  0
   -5.8583   -2.0440    0.5091 H   0  0  0  0  0  0  0  0  0  0  0  0
   -5.5744    0.1203    1.8072 H   0  0  0  0  0  0  0  0  0  0  0  0
   -5.2644    1.6039    0.8971 H   0  0  0  0  0  0  0  0  0  0  0  0
   -7.6454   -0.5168    0.2069 H   0  0  0  0  0  0  0  0  0  0  0  0
   -7.2797    1.1806   -0.0645 H   0  0  0  0  0  0  0  0  0  0  0  0
   -1.2949   -0.3631   -0.8278 H   0  0  0  0  0  0  0  0  0  0  0  0
   -1.8401   -2.5246    2.8828 H   0  0  0  0  0  0  0  0  0  0  0  0
   -7.2910   -0.8906   -2.3131 H   0  0  0  0  0  0  0  0  0  0  0  0
   -6.9310    0.8340   -2.4626 H   0  0  0  0  0  0  0  0  0  0  0  0
   -9.5869   -0.3325   -1.4678 H   0  0  0  0  0  0  0  0  0  0  0  0
   -9.2788    0.3535   -3.0805 H   0  0  0  0  0  0  0  0  0  0  0  0
    1.4848   -0.3135   -1.5315 H   0  0  0  0  0  0  0  0  0  0  0  0
    1.8051   -3.2739    3.3109 H   0  0  0  0  0  0  0  0  0  0  0  0
    0.4781   -2.6406    4.2950 H   0  0  0  0  0  0  0  0  0  0  0  0
    0.2738   -4.1574    3.3817 H   0  0  0  0  0  0  0  0  0  0  0  0
    3.4713    0.8057    0.9977 H   0  0  0  0  0  0  0  0  0  0  0  0
    6.5274    1.0265   -0.9833 H   0  0  0  0  0  0  0  0  0  0  0  0
    5.8697    2.2718    0.8182 H   0  0  0  0  0  0  0  0  0  0  0  0
    4.9194    2.6655   -0.6309 H   0  0  0  0  0  0  0  0  0  0  0  0
    5.9441   -2.4812   -3.0550 H   0  0  0  0  0  0  0  0  0  0  0  0
    7.2463   -0.6129   -2.6202 H   0  0  0  0  0  0  0  0  0  0  0  0
    3.9178    2.9254    2.2615 H   0  0  0  0  0  0  0  0  0  0  0  0
    4.4370    4.2682    1.2042 H   0  0  0  0  0  0  0  0  0  0  0  0
    1.4654    2.8835    2.4358 H   0  0  0  0  0  0  0  0  0  0  0  0
    0.6326    4.1091   -1.6160 H   0  0  0  0  0  0  0  0  0  0  0  0
  1 35  1  0  0  0  0
  2 24  1  0  0  0  0
  3 29  2  0  0  0  0
  4 14  1  0  0  0  0
  4 15  1  0  0  0  0
  4 17  1  0  0  0  0
  5 21  1  0  0  0  0
  5 25  1  0  0  0  0
  5 54  1  0  0  0  0
  6 23  1  0  0  0  0
  6 25  2  0  0  0  0
  7 28  1  0  0  0  0
  7 31  1  0  0  0  0
  7 58  1  0  0  0  0
  8 29  1  0  0  0  0
  8 32  1  0  0  0  0
  8 62  1  0  0  0  0
  9 10  1  0  0  0  0
  9 33  1  0  0  0  0
  9 34  1  0  0  0  0
 10 36  2  0  0  0  0
 11 12  1  0  0  0  0
 11 13  1  0  0  0  0
 11 16  1  0  0  0  0
 11 37  1  0  0  0  0
 12 14  1  0  0  0  0
 12 38  1  0  0  0  0
 12 39  1  0  0  0  0
 13 15  1  0  0  0  0
 13 40  1  0  0  0  0
 13 41  1  0  0  0  0
 14 42  1  0  0  0  0
 14 43  1  0  0  0  0
 15 44  1  0  0  0  0
 15 45  1  0  0  0  0
 16 18  2  0  0  0  0
 16 19  1  0  0  0  0
 17 20  1  0  0  0  0
 17 46  1  0  0  0  0
 17 47  1  0  0  0  0
 18 21  1  0  0  0  0
 18 48  1  0  0  0  0
 19 22  2  0  0  0  0
 19 49  1  0  0  0  0
 20 24  1  0  0  0  0
 20 50  1  0  0  0  0
 20 51  1  0  0  0  0
 21 23  2  0  0  0  0
 22 23  1  0  0  0  0
 22 26  1  0  0  0  0
 24 52  1  0  0  0  0
 24 53  1  0  0  0  0
 25 27  1  0  0  0  0
 26 55  1  0  0  0  0
 26 56  1  0  0  0  0
 26 57  1  0  0  0  0
 27 28  2  0  0  0  0
 27 29  1  0  0  0  0
 28 30  1  0  0  0  0
 30 32  2  0  0  0  0
 30 59  1  0  0  0  0
 31 33  1  0  0  0  0
 31 60  1  0  0  0  0
 31 61  1  0  0  0  0
 32 63  1  0  0  0  0
 33 64  1  0  0  0  0
 33 65  1  0  0  0  0
 34 35  2  0  0  0  0
 34 66  1  0  0  0  0
 35 36  1  0  0  0  0
 36 67  1  0  0  0  0
M  END
> <PUBCHEM_COMPOUND_CID>
135441202

> <PUBCHEM_CONFORMER_RMSD>
1

> <PUBCHEM_CONFORMER_DIVERSEORDER>
1
98
17
96
48
71
114
157
47
109
69
118
25
135
77
165
177
154
155
195
143
194
95
162
117
43
137
184
107
127
106
169
97
87
67
140
191
46
138
58
141
166
88
170
193
121
164
89
92
75
189
76
65
110
70
39
31
119
139
91
94
90
142
176
126
132
122
183
45
83
146
134
173
151
63
133
40
35
160
128
161
188
85
12
5
44
54
61
190
8
49
28
131
179
60
182
178
113
13
93
41
34
21
53
125
108
66
111
84
59
29
153
167
16
7
130
55
196
123
102
27
86
180
148
38
72
163
23
36
116
156
81
26
147
57
99
68
186
185
18
10
192
22
4
51
112
42
129
168
52
145
159
171
158
172
14
78
33
11
144
175
124
62
3
82
30
20
150
149
32
187
152
105
181
73
80
103
24
6
174
104
79
136
9
115
120
37
64
101
50
15
19
2
100
56
74

> <PUBCHEM_MMFF94_PARTIAL_CHARGES>
42
1 -0.12
10 -0.71
11 0.14
14 0.27
15 0.27
16 -0.14
17 0.27
18 -0.15
19 -0.15
2 -0.34
21 -0.15
22 -0.14
23 0.23
24 0.34
25 0.14
26 0.14
27 0.06
28 0.1
29 0.62
3 -0.57
30 -0.15
31 0.37
32 -0.04
33 0.26
34 -0.3
35 0.12
36 0.14
4 -0.81
48 0.15
49 0.15
5 0.03
54 0.27
58 0.4
59 0.15
6 -0.57
62 0.37
63 0.15
66 0.15
67 0.15
7 -0.87
8 -0.54
9 0.31

> <PUBCHEM_EFFECTIVE_ROTOR_COUNT>
10.2

> <PUBCHEM_PHARMACOPHORE_FEATURES>
13
1 10 acceptor
1 3 acceptor
1 4 cation
1 5 donor
1 7 cation
1 7 donor
1 8 donor
3 5 6 25 cation
5 5 6 21 23 25 rings
5 9 10 34 35 36 rings
6 16 18 19 21 22 23 rings
6 4 11 12 13 14 15 rings
6 8 27 28 29 30 32 rings

> <PUBCHEM_HEAVY_ATOM_COUNT>
36

> <PUBCHEM_ATOM_DEF_STEREO_COUNT>
0

> <PUBCHEM_ATOM_UDEF_STEREO_COUNT>
0

> <PUBCHEM_BOND_DEF_STEREO_COUNT>
0

> <PUBCHEM_BOND_UDEF_STEREO_COUNT>
0

> <PUBCHEM_ISOTOPIC_ATOM_COUNT>
0

> <PUBCHEM_COMPONENT_COUNT>
1

> <PUBCHEM_CACTVS_TAUTO_COUNT>
-1

> <PUBCHEM_CONFORMER_ID>
0812AB3200000001

> <PUBCHEM_MMFF94_ENERGY>
66.554

> <PUBCHEM_FEATURE_SELFOVERLAP>
66.08

> <PUBCHEM_SHAPE_FINGERPRINT>
10864689 126 18333449833249187267
11115154 58 17846221025699076721
11828042 279 17683515509938154775
12645989 146 18058184838499568830
12788726 201 18263381204812765426
13111901 137 17604412034772452765
13402501 40 18337394954321734352
1361 2 18201442540385780198
14400156 260 18191871115767711785
14725015 67 18336251389325257920
14931854 50 18334300829521168445
15082195 135 18131346436468740835
15351339 4 18261388880399089432
16067689 134 18050573937535032753
16067689 302 18197500834883118479
18365409 1 16985205440025102961
19311894 1 17405723480219989178
20554085 129 17603579742597209379
20587220 17 17917701452730403933
20642791 35 18408878543307737273
21033648 29 17604143839101046639
21133410 38 17987536899302824713
21857420 4 18336277807753654244
23522609 53 15984005746513477995
23559900 14 18131346441122553923
24893992 56 18186515540899964491
3918712 181 17603303765115510029
4066623 53 18336824183090221220
437795 70 18269295494748109132
4403749 210 17263556012622380680
6086070 43 18334864952259703162
77296 10 17914902164876516631

> <PUBCHEM_SHAPE_MULTIPOLES>
694.72
18.68
4.87
2.34
39.72
4.75
-0.26
2.66
17.18
-5.21
-1.89
-0.44
-1.9
3.31

> <PUBCHEM_SHAPE_SELFOVERLAP>
1490.237

> <PUBCHEM_SHAPE_VOLUME>
387.2

> <PUBCHEM_COORDINATE_TYPE>
2
5
10

$$$$
