18516271
  -OEChem-10052115173D

 29 31  0     0  0  0  0  0  0999 V2000
   -3.4687    0.8988   -0.7181 S   0  0  0  0  0  0  0  0  0  0  0  0
    3.5634   -1.3776   -2.4294 F   0  0  0  0  0  0  0  0  0  0  0  0
    1.0452    0.1267    1.3160 O   0  0  0  0  0  0  0  0  0  0  0  0
   -5.2584   -1.5010   -0.4339 O   0  0  0  0  0  0  0  0  0  0  0  0
   -0.1559    3.1482   -0.3383 N   0  0  0  0  0  0  0  0  0  0  0  0
   -3.7785   -2.8439    0.6417 N   0  0  0  0  0  0  0  0  0  0  0  0
   -1.1130    0.5976    0.3031 C   0  0  0  0  0  0  0  0  0  0  0  0
   -1.9051    1.5326   -0.3697 C   0  0  0  0  0  0  0  0  0  0  0  0
    0.1975    0.9713    0.6574 C   0  0  0  0  0  0  0  0  0  0  0  0
   -1.8264   -0.6297    0.5148 C   0  0  0  0  0  0  0  0  0  0  0  0
   -3.1055   -0.5984    0.0121 C   0  0  0  0  0  0  0  0  0  0  0  0
   -1.4153    2.8018   -0.6837 C   0  0  0  0  0  0  0  0  0  0  0  0
    0.6081    2.2480    0.3103 C   0  0  0  0  0  0  0  0  0  0  0  0
    2.2350   -0.2452    0.7628 C   0  0  0  0  0  0  0  0  0  0  0  0
   -4.1001   -1.6213    0.0351 C   0  0  0  0  0  0  0  0  0  0  0  0
    2.2917   -0.6290   -0.5771 C   0  0  0  0  0  0  0  0  0  0  0  0
    3.3955   -0.2417    1.5368 C   0  0  0  0  0  0  0  0  0  0  0  0
    3.5089   -1.0092   -1.1427 C   0  0  0  0  0  0  0  0  0  0  0  0
    4.6125   -0.6222    0.9713 C   0  0  0  0  0  0  0  0  0  0  0  0
    4.6691   -1.0059   -0.3686 C   0  0  0  0  0  0  0  0  0  0  0  0
   -1.3916   -1.4842    1.0186 H   0  0  0  0  0  0  0  0  0  0  0  0
   -2.0007    3.5501   -1.2037 H   0  0  0  0  0  0  0  0  0  0  0  0
    1.6034    2.6045    0.5596 H   0  0  0  0  0  0  0  0  0  0  0  0
    1.4001   -0.6529   -1.1974 H   0  0  0  0  0  0  0  0  0  0  0  0
    3.3575    0.0567    2.5809 H   0  0  0  0  0  0  0  0  0  0  0  0
    5.5160   -0.6193    1.5740 H   0  0  0  0  0  0  0  0  0  0  0  0
    5.6164   -1.3019   -0.8094 H   0  0  0  0  0  0  0  0  0  0  0  0
   -2.8742   -3.0393    1.0569 H   0  0  0  0  0  0  0  0  0  0  0  0
   -4.4636   -3.5914    0.6830 H   0  0  0  0  0  0  0  0  0  0  0  0
  1  8  1  0  0  0  0
  1 11  1  0  0  0  0
  2 18  1  0  0  0  0
  3  9  1  0  0  0  0
  3 14  1  0  0  0  0
  4 15  2  0  0  0  0
  5 12  2  0  0  0  0
  5 13  1  0  0  0  0
  6 15  1  0  0  0  0
  6 28  1  0  0  0  0
  6 29  1  0  0  0  0
  7  8  2  0  0  0  0
  7  9  1  0  0  0  0
  7 10  1  0  0  0  0
  8 12  1  0  0  0  0
  9 13  2  0  0  0  0
 10 11  2  0  0  0  0
 10 21  1  0  0  0  0
 11 15  1  0  0  0  0
 12 22  1  0  0  0  0
 13 23  1  0  0  0  0
 14 16  2  0  0  0  0
 14 17  1  0  0  0  0
 16 18  1  0  0  0  0
 16 24  1  0  0  0  0
 17 19  2  0  0  0  0
 17 25  1  0  0  0  0
 18 20  2  0  0  0  0
 19 20  1  0  0  0  0
 19 26  1  0  0  0  0
 20 27  1  0  0  0  0
M  END
> <PUBCHEM_COMPOUND_CID>
18516271

> <PUBCHEM_CONFORMER_RMSD>
0.6

> <PUBCHEM_CONFORMER_DIVERSEORDER>
2
29
8
65
59
70
57
50
24
16
61
60
67
5
64
58
66
13
19
15
54
53
6
72
7
52
71
14
23
28
63
37
20
38
69
30
35
68
25
40
33
55
31
56
32
27
26
34
62
39
12
49
43
36
41
17
21
45
11
51
47
3
22
18
42
46
4
44
48
9
10
1

> <PUBCHEM_MMFF94_PARTIAL_CHARGES>
28
1 -0.08
10 -0.15
11 -0.05
12 0.16
13 0.16
14 0.08
15 0.71
16 -0.15
17 -0.15
18 0.19
19 -0.15
2 -0.19
20 -0.15
21 0.15
22 0.15
23 0.15
24 0.15
25 0.15
26 0.15
27 0.15
28 0.37
29 0.37
3 -0.17
4 -0.57
5 -0.62
6 -0.8
8 0.04
9 0.08

> <PUBCHEM_EFFECTIVE_ROTOR_COUNT>
3

> <PUBCHEM_PHARMACOPHORE_FEATURES>
7
1 3 acceptor
1 4 acceptor
1 5 acceptor
1 6 donor
5 1 7 8 10 11 rings
6 14 16 17 18 19 20 rings
6 5 7 8 9 12 13 rings

> <PUBCHEM_HEAVY_ATOM_COUNT>
20

> <PUBCHEM_ATOM_DEF_STEREO_COUNT>
0

> <PUBCHEM_ATOM_UDEF_STEREO_COUNT>
0

> <PUBCHEM_BOND_DEF_STEREO_COUNT>
0

> <PUBCHEM_BOND_UDEF_STEREO_COUNT>
0

> <PUBCHEM_ISOTOPIC_ATOM_COUNT>
0

> <PUBCHEM_COMPONENT_COUNT>
1

> <PUBCHEM_CACTVS_TAUTO_COUNT>
2

> <PUBCHEM_CONFORMER_ID>
011A892F00000002

> <PUBCHEM_MMFF94_ENERGY>
56.6549

> <PUBCHEM_FEATURE_SELFOVERLAP>
35.587

> <PUBCHEM_SHAPE_FINGERPRINT>
11543360 7 15140960686125232531
11578080 2 13108107563408422714
12173636 292 17686893921610709468
12236239 1 17240763917770780072
12363563 72 18408888464028199699
12553582 1 18261115183908767099
12596599 1 18341621399192256729
12841375 25 18408881875817295465
12892183 10 16415765227660782915
13544653 18 17775563134967953113
14252887 29 17846779624333609850
14386348 63 18130785633608460478
14790565 3 17761488089543862189
15342816 4 18334290985387632154
16752209 62 18040990718075588075
17349148 13 17095803214249164506
17357779 13 18271228474538555173
1813 80 18411707607752448309
18186145 218 12179849364099184724
19141452 34 17988639740205429127
192875 21 16660363658597586628
193927 3 18342183310159399819
200 152 17167863032763640232
20374829 77 18408879646819037075
20388580 30 18334859471422120125
20403669 9 18411979187167116279
20645477 70 18120927567663765943
20871999 31 18260548909455141479
21079973 296 18341324518405114808
21427221 339 12751245748807589100
21728266 224 18042669638351284962
221490 88 17971473150806802219
22182313 1 18191843795227539977
23402539 116 18188201023073169346
23557571 272 18270956835095318712
23559900 14 18196647390115171190
2748010 2 18191284148283232977
314173 41 18335702801346601179
314173 85 18412266146922149995
335352 9 18335129900718586477
4463277 69 18130222761359868735
474 4 14330545862902189634
4921388 177 18197785388444045140
5207 123 18341889736602448095
5352402 22 17275108327332130270
7364860 26 18123746727887863337
84936 182 8357168534693500663
9709674 26 18126280835996476854

> <PUBCHEM_SHAPE_MULTIPOLES>
386.47
9.56
2.74
1.3
1.59
1.31
-0.4
-7.42
-1.15
-2.99
-0.28
1.64
-0.36
1.09

> <PUBCHEM_SHAPE_SELFOVERLAP>
844.613

> <PUBCHEM_SHAPE_VOLUME>
211.7

> <PUBCHEM_COORDINATE_TYPE>
2
5
10

$$$$
