49830638
  -OEChem-10052120433D

 36 39  0     0  0  0  0  0  0999 V2000
    5.5674   -0.9132    0.2129 O   0  0  0  0  0  0  0  0  0  0  0  0
    0.0382   -2.4395    0.2844 N   0  0  0  0  0  0  0  0  0  0  0  0
   -1.3125   -2.3006    0.2566 N   0  0  0  0  0  0  0  0  0  0  0  0
   -5.1470   -0.6882   -0.5617 N   0  0  0  0  0  0  0  0  0  0  0  0
   -7.8192    1.3677   -0.2890 N   0  0  0  0  0  0  0  0  0  0  0  0
   -0.2935   -0.2778    0.0881 C   0  0  0  0  0  0  0  0  0  0  0  0
    0.2647    1.0985   -0.0282 C   0  0  0  0  0  0  0  0  0  0  0  0
    0.6608   -1.2512    0.1858 C   0  0  0  0  0  0  0  0  0  0  0  0
    1.7545    0.7075    0.0232 C   0  0  0  0  0  0  0  0  0  0  0  0
    1.9654   -0.6943    0.1509 C   0  0  0  0  0  0  0  0  0  0  0  0
   -1.5023   -0.9728    0.1363 C   0  0  0  0  0  0  0  0  0  0  0  0
    2.8390    1.5641   -0.0412 C   0  0  0  0  0  0  0  0  0  0  0  0
    3.2203   -1.2569    0.2157 C   0  0  0  0  0  0  0  0  0  0  0  0
    4.3089   -0.3844    0.1501 C   0  0  0  0  0  0  0  0  0  0  0  0
   -2.8293   -0.4218    0.0723 C   0  0  0  0  0  0  0  0  0  0  0  0
    4.1214    1.0073    0.0231 C   0  0  0  0  0  0  0  0  0  0  0  0
   -3.1001    0.8544    0.5538 C   0  0  0  0  0  0  0  0  0  0  0  0
   -3.8781   -1.1459   -0.4710 C   0  0  0  0  0  0  0  0  0  0  0  0
    5.2520    1.8840   -0.0412 C   0  0  0  0  0  0  0  0  0  0  0  0
   -4.3931    1.3600    0.4781 C   0  0  0  0  0  0  0  0  0  0  0  0
   -5.3720    0.5561   -0.0834 C   0  0  0  0  0  0  0  0  0  0  0  0
    6.1756   -1.2757   -1.0232 C   0  0  0  0  0  0  0  0  0  0  0  0
    6.1999    2.6192   -0.0955 C   0  0  0  0  0  0  0  0  0  0  0  0
   -6.7211    1.0036   -0.1969 C   0  0  0  0  0  0  0  0  0  0  0  0
    0.0084    1.7294    0.8259 H   0  0  0  0  0  0  0  0  0  0  0  0
    0.0157    1.5673   -0.9831 H   0  0  0  0  0  0  0  0  0  0  0  0
    0.4298   -3.3697    0.3716 H   0  0  0  0  0  0  0  0  0  0  0  0
    2.6884    2.6349   -0.1386 H   0  0  0  0  0  0  0  0  0  0  0  0
    3.3598   -2.3276    0.3140 H   0  0  0  0  0  0  0  0  0  0  0  0
   -2.3338    1.4730    1.0102 H   0  0  0  0  0  0  0  0  0  0  0  0
   -3.7436   -2.1456   -0.8739 H   0  0  0  0  0  0  0  0  0  0  0  0
   -4.6146    2.3533    0.8551 H   0  0  0  0  0  0  0  0  0  0  0  0
    7.1906   -1.6256   -0.8159 H   0  0  0  0  0  0  0  0  0  0  0  0
    6.2343   -0.4179   -1.7004 H   0  0  0  0  0  0  0  0  0  0  0  0
    5.6172   -2.0886   -1.4984 H   0  0  0  0  0  0  0  0  0  0  0  0
    7.0409    3.2707   -0.1438 H   0  0  0  0  0  0  0  0  0  0  0  0
  1 14  1  0  0  0  0
  1 22  1  0  0  0  0
  2  3  1  0  0  0  0
  2  8  1  0  0  0  0
  2 27  1  0  0  0  0
  3 11  2  0  0  0  0
  4 18  1  0  0  0  0
  4 21  2  0  0  0  0
  5 24  3  0  0  0  0
  6  7  1  0  0  0  0
  6  8  2  0  0  0  0
  6 11  1  0  0  0  0
  7  9  1  0  0  0  0
  7 25  1  0  0  0  0
  7 26  1  0  0  0  0
  8 10  1  0  0  0  0
  9 10  1  0  0  0  0
  9 12  2  0  0  0  0
 10 13  2  0  0  0  0
 11 15  1  0  0  0  0
 12 16  1  0  0  0  0
 12 28  1  0  0  0  0
 13 14  1  0  0  0  0
 13 29  1  0  0  0  0
 14 16  2  0  0  0  0
 15 17  1  0  0  0  0
 15 18  2  0  0  0  0
 16 19  1  0  0  0  0
 17 20  2  0  0  0  0
 17 30  1  0  0  0  0
 18 31  1  0  0  0  0
 19 23  3  0  0  0  0
 20 21  1  0  0  0  0
 20 32  1  0  0  0  0
 21 24  1  0  0  0  0
 22 33  1  0  0  0  0
 22 34  1  0  0  0  0
 22 35  1  0  0  0  0
 23 36  1  0  0  0  0
M  END
> <PUBCHEM_COMPOUND_CID>
49830638

> <PUBCHEM_CONFORMER_RMSD>
0.6

> <PUBCHEM_CONFORMER_DIVERSEORDER>
2
3
4
1

> <PUBCHEM_MMFF94_PARTIAL_CHARGES>
31
1 -0.36
10 0.05
11 0.23
12 -0.15
13 -0.15
14 0.08
15 0.05
16 0.07
17 -0.15
18 0.16
19 -0.07
2 0.3
20 -0.15
21 0.38
22 0.28
23 -0.18
24 0.48
27 0.27
28 0.15
29 0.15
3 -0.71
30 0.15
31 0.15
32 0.15
36 0.18
4 -0.62
5 -0.56
6 -0.18
7 0.32
8 -0.2
9 -0.14

> <PUBCHEM_EFFECTIVE_ROTOR_COUNT>
2.2

> <PUBCHEM_PHARMACOPHORE_FEATURES>
10
1 1 acceptor
1 2 donor
1 23 hydrophobe
1 3 acceptor
1 4 acceptor
1 5 acceptor
5 2 3 6 8 11 rings
5 6 7 8 9 10 rings
6 4 15 17 18 20 21 rings
6 9 10 12 13 14 16 rings

> <PUBCHEM_HEAVY_ATOM_COUNT>
24

> <PUBCHEM_ATOM_DEF_STEREO_COUNT>
0

> <PUBCHEM_ATOM_UDEF_STEREO_COUNT>
0

> <PUBCHEM_BOND_DEF_STEREO_COUNT>
0

> <PUBCHEM_BOND_UDEF_STEREO_COUNT>
0

> <PUBCHEM_ISOTOPIC_ATOM_COUNT>
0

> <PUBCHEM_COMPONENT_COUNT>
1

> <PUBCHEM_CACTVS_TAUTO_COUNT>
2

> <PUBCHEM_CONFORMER_ID>
02F85AEE00000002

> <PUBCHEM_MMFF94_ENERGY>
85.5842

> <PUBCHEM_FEATURE_SELFOVERLAP>
51.086

> <PUBCHEM_SHAPE_FINGERPRINT>
10 15 17894631482591784857
10595046 47 18342454850844904791
11578080 2 17058348509446811554
12107183 9 17692534412118369643
12236239 1 18272086110914579567
12403259 415 18040988518936307557
12788726 201 17775297049165526656
12838862 33 18337935870956140625
13533116 47 18060421301047758418
14528608 73 18341613745876825060
14790565 3 18410296886942003280
14933364 13 18408887339100046461
15064981 113 17131556024690657053
15183329 4 18271813401892292868
15196674 1 18410576218919664450
1577012 14 18412259566805418565
15840311 113 18333735714830708645
18335252 114 18411973646870353357
18608769 82 18337957891854360675
19611394 137 17969518151119872529
20157964 124 18412546491847668858
20281389 69 18113897143706668485
20721686 124 18201156529850512927
21033648 29 18337946912847034744
21150785 3 14764348271409773288
21267235 1 18412550911949531539
21279426 13 18411704283479442406
21298829 104 18410294697094764453
21304253 335 18261396701972287772
21421861 104 17749933515536701008
22224240 67 13479142302034495585
23402539 116 18201432593257074119
23559900 14 18129938000359033248
29717793 49 17989490706090684478
3004659 81 18409732855431828550
335352 9 18410577263071633702
34797466 226 17131842018030711852
34934 24 18336824303512666890
350125 39 18335700494601075044
3545911 37 18410855435149668307
3633792 109 18272656727600967048
4017518 198 17489873718285229022
4073 2 18114185284267024570
4340502 62 16225761913251751496
5104073 3 18260827155038595554
59682541 52 17775298140397956020
59755656 215 18338801108986059271
59755656 520 17821726135604507803
6328613 192 18411703209484819928

> <PUBCHEM_SHAPE_MULTIPOLES>
468.12
17.47
2.28
0.71
11.03
0.07
0.04
8.47
2.8
-1.99
-0.03
-0.09
-0.05
0.06

> <PUBCHEM_SHAPE_SELFOVERLAP>
1055.349

> <PUBCHEM_SHAPE_VOLUME>
245.8

> <PUBCHEM_COORDINATE_TYPE>
2
5
10

$$$$
