18450541
  -OEChem-10062122003D

 42 45  0     0  0  0  0  0  0999 V2000
    9.0534   -0.1684    1.3675 Cl  0  0  0  0  0  0  0  0  0  0  0  0
   -6.0213    2.0186   -0.7805 S   0  0  0  0  0  0  0  0  0  0  0  0
    2.5883   -0.0692   -1.2421 O   0  0  0  0  0  0  0  0  0  0  0  0
    1.7112    0.5089    0.8521 N   0  0  0  0  0  0  0  0  0  0  0  0
   -5.7655   -2.3135    0.3287 N   0  0  0  0  0  0  0  0  0  0  0  0
   -3.4380   -2.0507    0.6452 N   0  0  0  0  0  0  0  0  0  0  0  0
    3.9882    0.2049    0.6112 N   0  0  0  0  0  0  0  0  0  0  0  0
   -3.8148    0.8897   -0.1404 C   0  0  0  0  0  0  0  0  0  0  0  0
   -4.8067   -0.1432   -0.0487 C   0  0  0  0  0  0  0  0  0  0  0  0
   -2.3984    0.7922    0.1143 C   0  0  0  0  0  0  0  0  0  0  0  0
   -6.0751    0.3437   -0.3768 C   0  0  0  0  0  0  0  0  0  0  0  0
   -4.3380    2.1015   -0.5246 C   0  0  0  0  0  0  0  0  0  0  0  0
   -4.6884   -1.4968    0.3043 C   0  0  0  0  0  0  0  0  0  0  0  0
   -1.9018    1.0308    1.3959 C   0  0  0  0  0  0  0  0  0  0  0  0
   -1.5254    0.4583   -0.9211 C   0  0  0  0  0  0  0  0  0  0  0  0
    0.3409    0.6018    0.6065 C   0  0  0  0  0  0  0  0  0  0  0  0
   -0.5323    0.9355    1.6419 C   0  0  0  0  0  0  0  0  0  0  0  0
   -0.1557    0.3631   -0.6750 C   0  0  0  0  0  0  0  0  0  0  0  0
   -7.2009   -0.4882   -0.3567 C   0  0  0  0  0  0  0  0  0  0  0  0
   -6.9699   -1.8037    0.0053 C   0  0  0  0  0  0  0  0  0  0  0  0
    2.7514    0.1869   -0.0533 C   0  0  0  0  0  0  0  0  0  0  0  0
    5.2699   -0.0588    0.0730 C   0  0  0  0  0  0  0  0  0  0  0  0
    6.3980    0.0073    0.8910 C   0  0  0  0  0  0  0  0  0  0  0  0
    5.4052   -0.3833   -1.2768 C   0  0  0  0  0  0  0  0  0  0  0  0
    7.6613   -0.2508    0.3589 C   0  0  0  0  0  0  0  0  0  0  0  0
    6.6683   -0.6415   -1.8088 C   0  0  0  0  0  0  0  0  0  0  0  0
    7.7964   -0.5752   -0.9910 C   0  0  0  0  0  0  0  0  0  0  0  0
   -3.8191    3.0397   -0.6708 H   0  0  0  0  0  0  0  0  0  0  0  0
   -2.5691    1.2907    2.2143 H   0  0  0  0  0  0  0  0  0  0  0  0
   -1.8978    0.2680   -1.9252 H   0  0  0  0  0  0  0  0  0  0  0  0
   -0.1591    1.1241    2.6454 H   0  0  0  0  0  0  0  0  0  0  0  0
    0.4531    0.1001   -1.5281 H   0  0  0  0  0  0  0  0  0  0  0  0
   -8.1921   -0.1296   -0.6077 H   0  0  0  0  0  0  0  0  0  0  0  0
   -7.7913   -2.5125    0.0451 H   0  0  0  0  0  0  0  0  0  0  0  0
    1.9971    0.6978    1.8097 H   0  0  0  0  0  0  0  0  0  0  0  0
   -2.5828   -1.5219    0.6542 H   0  0  0  0  0  0  0  0  0  0  0  0
   -3.4082   -3.0319    0.8910 H   0  0  0  0  0  0  0  0  0  0  0  0
    3.9708    0.4348    1.6015 H   0  0  0  0  0  0  0  0  0  0  0  0
    6.2913    0.2608    1.9436 H   0  0  0  0  0  0  0  0  0  0  0  0
    4.5832   -0.4547   -1.9744 H   0  0  0  0  0  0  0  0  0  0  0  0
    6.7750   -0.8942   -2.8599 H   0  0  0  0  0  0  0  0  0  0  0  0
    8.7745   -0.7787   -1.4195 H   0  0  0  0  0  0  0  0  0  0  0  0
  1 25  1  0  0  0  0
  2 11  1  0  0  0  0
  2 12  1  0  0  0  0
  3 21  2  0  0  0  0
  4 16  1  0  0  0  0
  4 21  1  0  0  0  0
  4 35  1  0  0  0  0
  5 13  2  0  0  0  0
  5 20  1  0  0  0  0
  6 13  1  0  0  0  0
  6 36  1  0  0  0  0
  6 37  1  0  0  0  0
  7 21  1  0  0  0  0
  7 22  1  0  0  0  0
  7 38  1  0  0  0  0
  8  9  1  0  0  0  0
  8 10  1  0  0  0  0
  8 12  2  0  0  0  0
  9 11  2  0  0  0  0
  9 13  1  0  0  0  0
 10 14  2  0  0  0  0
 10 15  1  0  0  0  0
 11 19  1  0  0  0  0
 12 28  1  0  0  0  0
 14 17  1  0  0  0  0
 14 29  1  0  0  0  0
 15 18  2  0  0  0  0
 15 30  1  0  0  0  0
 16 17  2  0  0  0  0
 16 18  1  0  0  0  0
 17 31  1  0  0  0  0
 18 32  1  0  0  0  0
 19 20  2  0  0  0  0
 19 33  1  0  0  0  0
 20 34  1  0  0  0  0
 22 23  2  0  0  0  0
 22 24  1  0  0  0  0
 23 25  1  0  0  0  0
 23 39  1  0  0  0  0
 24 26  2  0  0  0  0
 24 40  1  0  0  0  0
 25 27  2  0  0  0  0
 26 27  1  0  0  0  0
 26 41  1  0  0  0  0
 27 42  1  0  0  0  0
M  END
> <PUBCHEM_COMPOUND_CID>
18450541

> <PUBCHEM_CONFORMER_RMSD>
0.8

> <PUBCHEM_CONFORMER_DIVERSEORDER>
2
15
25
17
21
5
14
8
18
28
16
11
30
26
13
1
12
7
20
23
19
29
3
4
6
27
9
10
22
24

> <PUBCHEM_MMFF94_PARTIAL_CHARGES>
41
1 -0.18
10 0.05
11 0.04
12 -0.11
13 0.41
14 -0.15
15 -0.15
16 0.12
17 -0.15
18 -0.15
19 -0.15
2 -0.08
20 0.16
21 0.69
22 0.12
23 -0.15
24 -0.15
25 0.18
26 -0.15
27 -0.15
28 0.15
29 0.15
3 -0.57
30 0.15
31 0.15
32 0.15
33 0.15
34 0.15
35 0.37
36 0.4
37 0.4
38 0.37
39 0.15
4 -0.55
40 0.15
41 0.15
42 0.15
5 -0.62
6 -0.9
7 -0.55
8 -0.05

> <PUBCHEM_EFFECTIVE_ROTOR_COUNT>
5

> <PUBCHEM_PHARMACOPHORE_FEATURES>
9
1 3 acceptor
1 4 donor
1 6 donor
1 7 donor
3 5 6 13 cation
5 2 8 9 11 12 rings
6 10 14 15 16 17 18 rings
6 22 23 24 25 26 27 rings
6 5 9 11 13 19 20 rings

> <PUBCHEM_HEAVY_ATOM_COUNT>
27

> <PUBCHEM_ATOM_DEF_STEREO_COUNT>
0

> <PUBCHEM_ATOM_UDEF_STEREO_COUNT>
0

> <PUBCHEM_BOND_DEF_STEREO_COUNT>
0

> <PUBCHEM_BOND_UDEF_STEREO_COUNT>
0

> <PUBCHEM_ISOTOPIC_ATOM_COUNT>
0

> <PUBCHEM_COMPONENT_COUNT>
1

> <PUBCHEM_CACTVS_TAUTO_COUNT>
6

> <PUBCHEM_CONFORMER_ID>
0119886D00000002

> <PUBCHEM_MMFF94_ENERGY>
86.9687

> <PUBCHEM_FEATURE_SELFOVERLAP>
45.785

> <PUBCHEM_SHAPE_FINGERPRINT>
10 15 17917705825802591802
10165383 225 18337671898894294801
10299344 5 17676205767019425890
106641 1 15339119074182789463
10674148 151 18341895191406073785
11315181 36 18272934925428207065
11524674 6 17632294597022042919
12082328 90 18410007702483035980
12089408 11 17749390352466112404
12166972 35 18335143119927128388
12236239 1 17240761775009451549
12741549 16 17418094348123250201
13288520 33 18408885153404875901
13668630 136 18272092678125251532
13685833 64 17275387599343766424
13885169 127 18409446964268973120
13911987 19 14273728578167132809
14028597 1 13686029665523643998
14068700 675 17894912927730903204
14251764 18 16950283992911617092
14344974 204 17844243154362808175
14856354 85 18113903779974485919
15119646 104 17313096420197388890
15183329 4 15213016055507237984
15352257 5 18342460322475517286
15419008 47 18131344198606755208
15419008 91 18270380751248542184
15461852 350 18333454236212742180
15510794 2 18202001006815214278
15716309 27 15339120126096238508
1577012 14 17095520664924377081
15849732 13 18273211993758007188
16992828 155 16662042510001717229
17093844 174 17632859703328237969
18335252 114 15068341229235291454
18335252 98 17847064389777365566
18643901 69 18410577310527146959
18681886 176 18334289902834444521
2026 5 18201721747583413935
21150785 3 17603587434709296338
21267235 1 16988849363219014824
21315759 40 17749106665349220232
21360443 120 17167858647697691971
21521721 280 15267054866333075550
21623969 137 17203335502426310022
21792961 116 17988641852632785509
22288116 15 17313111886300775019
23081809 10 17168142321660318272
23198884 109 17313106362830023867
23522609 53 17314531252580525684
23559900 14 18412537735021652657
23576562 1 17387714897222983262
249057 25 17968389974332470676
249057 3 18333731321490660205
2838139 119 15936412234284231444
3004659 81 18334012817293068304
3178227 256 16988844999437153682
335352 9 15357700765601291202
3383291 50 17918275376214249950
397830 11 18129089194941866096
4325135 7 17313100848023697382
4339292 15 18270952549256040935
44880568 143 18410862031909153740
504843 32 14779845887280810368
5104073 3 16772968986515351322
5265222 85 18337676433039381343
57527295 17 17487884628978184461
58902169 19 17095527318256077958
59682541 35 16988840609933305954
636775 8 18130518495681061758
67123 10 18334855031454441216
9962374 69 16844993706815514712
999808 66 17704357675627166439

> <PUBCHEM_SHAPE_MULTIPOLES>
535.57
26.86
1.66
1.33
36.69
0.38
0.04
7.07
1.67
-4.65
-0.05
1.99
-0.11
1.41

> <PUBCHEM_SHAPE_SELFOVERLAP>
1165.407

> <PUBCHEM_SHAPE_VOLUME>
293.6

> <PUBCHEM_COORDINATE_TYPE>
2
5
10

$$$$
