25094210
  -OEChem-10052115163D

 36 39  0     0  0  0  0  0  0999 V2000
    0.2765   -3.3738   -0.5150 S   0  0  0  0  0  0  0  0  0  0  0  0
    4.5955    2.1693    0.1883 S   0  0  0  0  0  0  0  0  0  0  0  0
   -1.4978    0.1247   -0.0416 N   0  0  0  0  0  0  0  0  0  0  0  0
   -0.8454    2.2389    0.2308 N   0  0  0  0  0  0  0  0  0  0  0  0
    1.9830    1.3652    0.0976 N   0  0  0  0  0  0  0  0  0  0  0  0
    1.1089   -0.7832   -0.1797 N   0  0  0  0  0  0  0  0  0  0  0  0
   -6.1901    0.2430   -0.3153 N   0  0  0  0  0  0  0  0  0  0  0  0
   -5.8791   -0.9574    0.2027 N   0  0  0  0  0  0  0  0  0  0  0  0
    5.8396    1.0779    0.0349 N   0  0  0  0  0  0  0  0  0  0  0  0
   -2.6467    0.8569    0.0629 C   0  0  0  0  0  0  0  0  0  0  0  0
   -0.4491    0.9987    0.0660 C   0  0  0  0  0  0  0  0  0  0  0  0
    0.9125    0.5087   -0.0080 C   0  0  0  0  0  0  0  0  0  0  0  0
   -4.0340    0.3751    0.0088 C   0  0  0  0  0  0  0  0  0  0  0  0
   -1.2618   -1.2234   -0.2209 C   0  0  0  0  0  0  0  0  0  0  0  0
   -2.2184    2.1569    0.2302 C   0  0  0  0  0  0  0  0  0  0  0  0
    0.0199   -1.6525   -0.2865 C   0  0  0  0  0  0  0  0  0  0  0  0
   -5.1205    1.0782   -0.4519 C   0  0  0  0  0  0  0  0  0  0  0  0
   -4.5607   -0.8708    0.3987 C   0  0  0  0  0  0  0  0  0  0  0  0
    3.3309    1.0231    0.0432 C   0  0  0  0  0  0  0  0  0  0  0  0
    3.8879   -0.2259   -0.1270 C   0  0  0  0  0  0  0  0  0  0  0  0
    5.3090   -0.1325   -0.1233 C   0  0  0  0  0  0  0  0  0  0  0  0
    6.2311   -1.2767   -0.2817 C   0  0  0  0  0  0  0  0  0  0  0  0
    1.2086   -3.7203    0.9871 C   0  0  0  0  0  0  0  0  0  0  0  0
   -2.1113   -1.8862   -0.3174 H   0  0  0  0  0  0  0  0  0  0  0  0
   -2.8232    3.0446    0.3524 H   0  0  0  0  0  0  0  0  0  0  0  0
    1.7732    2.3525    0.2301 H   0  0  0  0  0  0  0  0  0  0  0  0
   -5.2331    2.0739   -0.8577 H   0  0  0  0  0  0  0  0  0  0  0  0
   -4.0571   -1.7215    0.8344 H   0  0  0  0  0  0  0  0  0  0  0  0
    3.3720   -1.1652   -0.2507 H   0  0  0  0  0  0  0  0  0  0  0  0
   -7.1565    0.4265   -0.5548 H   0  0  0  0  0  0  0  0  0  0  0  0
    6.8514   -1.1515   -1.1755 H   0  0  0  0  0  0  0  0  0  0  0  0
    6.8918   -1.3641    0.5873 H   0  0  0  0  0  0  0  0  0  0  0  0
    5.6862   -2.2210   -0.3827 H   0  0  0  0  0  0  0  0  0  0  0  0
    2.1656   -3.1915    0.9828 H   0  0  0  0  0  0  0  0  0  0  0  0
    0.6380   -3.4268    1.8729 H   0  0  0  0  0  0  0  0  0  0  0  0
    1.4101   -4.7933    1.0466 H   0  0  0  0  0  0  0  0  0  0  0  0
  1 16  1  0  0  0  0
  1 23  1  0  0  0  0
  2  9  1  0  0  0  0
  2 19  1  0  0  0  0
  3 10  1  0  0  0  0
  3 11  1  0  0  0  0
  3 14  1  0  0  0  0
  4 11  2  0  0  0  0
  4 15  1  0  0  0  0
  5 12  1  0  0  0  0
  5 19  1  0  0  0  0
  5 26  1  0  0  0  0
  6 12  2  0  0  0  0
  6 16  1  0  0  0  0
  7  8  1  0  0  0  0
  7 17  1  0  0  0  0
  7 30  1  0  0  0  0
  8 18  2  0  0  0  0
  9 21  2  0  0  0  0
 10 13  1  0  0  0  0
 10 15  2  0  0  0  0
 11 12  1  0  0  0  0
 13 17  2  0  0  0  0
 13 18  1  0  0  0  0
 14 16  2  0  0  0  0
 14 24  1  0  0  0  0
 15 25  1  0  0  0  0
 17 27  1  0  0  0  0
 18 28  1  0  0  0  0
 19 20  2  0  0  0  0
 20 21  1  0  0  0  0
 20 29  1  0  0  0  0
 21 22  1  0  0  0  0
 22 31  1  0  0  0  0
 22 32  1  0  0  0  0
 22 33  1  0  0  0  0
 23 34  1  0  0  0  0
 23 35  1  0  0  0  0
 23 36  1  0  0  0  0
M  END
> <PUBCHEM_COMPOUND_CID>
25094210

> <PUBCHEM_CONFORMER_RMSD>
0.8

> <PUBCHEM_CONFORMER_DIVERSEORDER>
1
17
15
9
6
16
19
8
4
7
3
11
12
5
13
20
2
18
10
14
21
26
24
22
25
27
23

> <PUBCHEM_MMFF94_PARTIAL_CHARGES>
29
1 -0.33
10 -0.15
11 0.1
12 0.58
14 -0.18
15 0.08
16 0.27
17 -0.3
18 0.14
19 0.12
2 0.18
20 -0.15
21 0.11
22 0.18
23 0.23
24 0.15
25 0.15
26 0.4
27 0.15
28 0.15
29 0.15
3 0.33
30 0.27
4 -0.57
5 -0.53
6 -0.62
7 0.3
8 -0.71
9 -0.51

> <PUBCHEM_EFFECTIVE_ROTOR_COUNT>
4

> <PUBCHEM_PHARMACOPHORE_FEATURES>
11
1 23 hydrophobe
1 5 donor
1 7 donor
1 8 acceptor
1 9 acceptor
3 3 4 11 cation
3 5 6 12 cation
5 2 9 19 20 21 rings
5 3 4 10 11 15 rings
5 7 8 13 17 18 rings
6 3 6 11 12 14 16 rings

> <PUBCHEM_HEAVY_ATOM_COUNT>
23

> <PUBCHEM_ATOM_DEF_STEREO_COUNT>
0

> <PUBCHEM_ATOM_UDEF_STEREO_COUNT>
0

> <PUBCHEM_BOND_DEF_STEREO_COUNT>
0

> <PUBCHEM_BOND_UDEF_STEREO_COUNT>
0

> <PUBCHEM_ISOTOPIC_ATOM_COUNT>
0

> <PUBCHEM_COMPONENT_COUNT>
1

> <PUBCHEM_CACTVS_TAUTO_COUNT>
11

> <PUBCHEM_CONFORMER_ID>
017EE84200000001

> <PUBCHEM_MMFF94_ENERGY>
42.7515

> <PUBCHEM_FEATURE_SELFOVERLAP>
55.973

> <PUBCHEM_SHAPE_FINGERPRINT>
10 15 18337944706262875968
10050765 1 18122907521812169341
10090160 65 18335137600819559455
10906281 52 18189074061181260145
1100329 8 18268147745899708473
11488393 25 17630061368140835678
11719270 70 18411130312424044787
11963148 33 18261948648410323211
12166972 35 18113060445502239556
12236239 1 18040152924733385140
12592029 89 18409728422403509626
13140716 1 18195815291677862561
13533116 47 17846781793803426664
13862211 1 18342455967441254959
14251764 18 18413669111386044880
14787075 74 18273213123017621529
14790565 3 18411985788384319633
14866123 147 18339920544883452618
15042514 8 18266743660945617423
15131766 46 16155694582254682204
15196674 1 18411981398758502764
15849732 13 18040156240732741052
15927050 60 18409727383006456851
18681886 176 18336261335820681528
19489759 90 17240481407992125373
19591789 44 18267583696656257419
20028762 73 18273494576498890974
20197701 30 18409164424314413902
20465049 17 18336268955915662410
20832881 197 17775284979985515425
21236236 1 18343586205508523761
21267235 1 18412833469247282396
21521721 280 18271531999851145889
21682296 61 18057616377849846926
21781051 124 18117019816717039842
21859007 373 17970322889999223636
23366157 5 17971763159440534818
23402539 116 18272646883092871669
23559900 14 18335978705787678193
283562 15 18343024350471017849
3004659 81 18408324376768268404
3178227 256 18339372958528241721
335352 9 18411983560076547454
3383291 50 18412260606779225090
34934 24 18412822470099911447
350125 39 18411136914004822732
3545911 37 18341612655435764288
38695281 34 18202845443881746967
474229 33 18411982472658419943
5104073 3 18341894043785038768
5486654 2 18340772627713035813
59755656 215 18411422774069556334
6138700 20 18338238168012962422

> <PUBCHEM_SHAPE_MULTIPOLES>
446.16
13.73
3.18
0.7
0.64
2.88
-0.03
-2.88
0.65
1.49
-0.4
0.01
0.23
0.21

> <PUBCHEM_SHAPE_SELFOVERLAP>
958.211

> <PUBCHEM_SHAPE_VOLUME>
251.3

> <PUBCHEM_COORDINATE_TYPE>
2
5
10

$$$$
