49830457
  -OEChem-10062121533D

 56 60  0     0  0  0  0  0  0999 V2000
    4.6192   -2.0805    0.8600 O   0  0  0  0  0  0  0  0  0  0  0  0
    7.5413    1.7652   -0.6027 O   0  0  0  0  0  0  0  0  0  0  0  0
    5.9079    3.9891   -0.2639 O   0  0  0  0  0  0  0  0  0  0  0  0
   -4.2371    0.5580   -1.1390 N   0  0  0  0  0  0  0  0  0  0  0  0
    1.1236   -4.4788    0.7546 N   0  0  0  0  0  0  0  0  0  0  0  0
    2.4506   -1.3370    0.3236 N   0  0  0  0  0  0  0  0  0  0  0  0
    2.1880   -3.6599    0.7870 N   0  0  0  0  0  0  0  0  0  0  0  0
   -4.1432   -1.5511   -1.5519 N   0  0  0  0  0  0  0  0  0  0  0  0
   -4.8739   -0.4582   -1.7433 N   0  0  0  0  0  0  0  0  0  0  0  0
    0.2955   -2.5388    0.1549 C   0  0  0  0  0  0  0  0  0  0  0  0
   -0.0435   -3.8678    0.3823 C   0  0  0  0  0  0  0  0  0  0  0  0
   -2.0092   -2.1065   -0.4071 C   0  0  0  0  0  0  0  0  0  0  0  0
   -0.7005   -1.6337   -0.2478 C   0  0  0  0  0  0  0  0  0  0  0  0
    1.6804   -2.4804    0.4220 C   0  0  0  0  0  0  0  0  0  0  0  0
   -3.0436   -1.1985   -0.8200 C   0  0  0  0  0  0  0  0  0  0  0  0
   -1.3417   -4.3598    0.2296 C   0  0  0  0  0  0  0  0  0  0  0  0
   -2.3221   -3.4467   -0.1720 C   0  0  0  0  0  0  0  0  0  0  0  0
   -4.7849    1.8901   -1.1685 C   0  0  0  0  0  0  0  0  0  0  0  0
   -3.0841    0.1454   -0.5453 C   0  0  0  0  0  0  0  0  0  0  0  0
   -5.9168    2.0928   -0.1920 C   0  0  0  0  0  0  0  0  0  0  0  0
    3.8359   -1.1930    0.5392 C   0  0  0  0  0  0  0  0  0  0  0  0
    4.3853    0.1717    0.3266 C   0  0  0  0  0  0  0  0  0  0  0  0
   -7.1909    1.6104   -0.4910 C   0  0  0  0  0  0  0  0  0  0  0  0
   -5.6890    2.7625    1.0103 C   0  0  0  0  0  0  0  0  0  0  0  0
    5.7204    0.3365   -0.0425 C   0  0  0  0  0  0  0  0  0  0  0  0
    3.5659    1.2876    0.4967 C   0  0  0  0  0  0  0  0  0  0  0  0
    6.2360    1.6172   -0.2417 C   0  0  0  0  0  0  0  0  0  0  0  0
    5.4166    2.7331   -0.0716 C   0  0  0  0  0  0  0  0  0  0  0  0
    4.0816    2.5683    0.2977 C   0  0  0  0  0  0  0  0  0  0  0  0
   -8.2373    1.7975    0.4123 C   0  0  0  0  0  0  0  0  0  0  0  0
   -6.7352    2.9495    1.9135 C   0  0  0  0  0  0  0  0  0  0  0  0
   -8.0094    2.4670    1.6146 C   0  0  0  0  0  0  0  0  0  0  0  0
    8.3102    0.5735   -0.7555 C   0  0  0  0  0  0  0  0  0  0  0  0
    5.0040    5.0752   -0.0694 C   0  0  0  0  0  0  0  0  0  0  0  0
   -0.4364   -0.5973   -0.4366 H   0  0  0  0  0  0  0  0  0  0  0  0
   -1.5827   -5.4007    0.4137 H   0  0  0  0  0  0  0  0  0  0  0  0
   -3.3409   -3.8103   -0.2931 H   0  0  0  0  0  0  0  0  0  0  0  0
    1.2614   -5.4514    0.9993 H   0  0  0  0  0  0  0  0  0  0  0  0
   -5.1254    2.0911   -2.1919 H   0  0  0  0  0  0  0  0  0  0  0  0
   -3.9690    2.5959   -0.9709 H   0  0  0  0  0  0  0  0  0  0  0  0
   -2.4348    0.8184   -0.0019 H   0  0  0  0  0  0  0  0  0  0  0  0
    1.9267   -0.5263    0.0077 H   0  0  0  0  0  0  0  0  0  0  0  0
   -7.3845    1.0917   -1.4260 H   0  0  0  0  0  0  0  0  0  0  0  0
   -4.7008    3.1416    1.2565 H   0  0  0  0  0  0  0  0  0  0  0  0
    6.3139   -0.5623   -0.1695 H   0  0  0  0  0  0  0  0  0  0  0  0
    2.5317    1.2073    0.8179 H   0  0  0  0  0  0  0  0  0  0  0  0
    3.3898    3.3886    0.4553 H   0  0  0  0  0  0  0  0  0  0  0  0
   -9.2297    1.4230    0.1791 H   0  0  0  0  0  0  0  0  0  0  0  0
   -6.5579    3.4704    2.8499 H   0  0  0  0  0  0  0  0  0  0  0  0
   -8.8241    2.6127    2.3179 H   0  0  0  0  0  0  0  0  0  0  0  0
    8.4002    0.0263    0.1891 H   0  0  0  0  0  0  0  0  0  0  0  0
    7.9269   -0.0533   -1.5679 H   0  0  0  0  0  0  0  0  0  0  0  0
    9.3222    0.8786   -1.0420 H   0  0  0  0  0  0  0  0  0  0  0  0
    4.1767    5.0454   -0.7867 H   0  0  0  0  0  0  0  0  0  0  0  0
    4.6555    5.1293    0.9676 H   0  0  0  0  0  0  0  0  0  0  0  0
    5.5613    5.9971   -0.2656 H   0  0  0  0  0  0  0  0  0  0  0  0
  1 21  2  0  0  0  0
  2 27  1  0  0  0  0
  2 33  1  0  0  0  0
  3 28  1  0  0  0  0
  3 34  1  0  0  0  0
  4  9  1  0  0  0  0
  4 18  1  0  0  0  0
  4 19  1  0  0  0  0
  5  7  1  0  0  0  0
  5 11  1  0  0  0  0
  5 38  1  0  0  0  0
  6 14  1  0  0  0  0
  6 21  1  0  0  0  0
  6 42  1  0  0  0  0
  7 14  2  0  0  0  0
  8  9  2  0  0  0  0
  8 15  1  0  0  0  0
 10 11  2  0  0  0  0
 10 13  1  0  0  0  0
 10 14  1  0  0  0  0
 11 16  1  0  0  0  0
 12 13  2  0  0  0  0
 12 15  1  0  0  0  0
 12 17  1  0  0  0  0
 13 35  1  0  0  0  0
 15 19  2  0  0  0  0
 16 17  2  0  0  0  0
 16 36  1  0  0  0  0
 17 37  1  0  0  0  0
 18 20  1  0  0  0  0
 18 39  1  0  0  0  0
 18 40  1  0  0  0  0
 19 41  1  0  0  0  0
 20 23  2  0  0  0  0
 20 24  1  0  0  0  0
 21 22  1  0  0  0  0
 22 25  2  0  0  0  0
 22 26  1  0  0  0  0
 23 30  1  0  0  0  0
 23 43  1  0  0  0  0
 24 31  2  0  0  0  0
 24 44  1  0  0  0  0
 25 27  1  0  0  0  0
 25 45  1  0  0  0  0
 26 29  2  0  0  0  0
 26 46  1  0  0  0  0
 27 28  2  0  0  0  0
 28 29  1  0  0  0  0
 29 47  1  0  0  0  0
 30 32  2  0  0  0  0
 30 48  1  0  0  0  0
 31 32  1  0  0  0  0
 31 49  1  0  0  0  0
 32 50  1  0  0  0  0
 33 51  1  0  0  0  0
 33 52  1  0  0  0  0
 33 53  1  0  0  0  0
 34 54  1  0  0  0  0
 34 55  1  0  0  0  0
 34 56  1  0  0  0  0
M  END
> <PUBCHEM_COMPOUND_CID>
49830457

> <PUBCHEM_CONFORMER_RMSD>
1.2

> <PUBCHEM_CONFORMER_DIVERSEORDER>
3
19
71
62
50
55
66
82
31
59
43
21
16
68
67
58
30
7
60
70
80
23
48
37
57
15
22
41
72
18
24
35
65
61
12
75
39
6
74
69
34
53
20
79
8
49
17
46
33
76
32
54
56
29
78
26
73
44
64
10
63
25
51
11
5
40
77
45
47
2
36
52
28
42
27
1
13
38
81
14
9
4

> <PUBCHEM_MMFF94_PARTIAL_CHARGES>
47
1 -0.57
11 -0.15
12 0.05
13 -0.15
14 0.35
15 0.17
16 -0.15
17 -0.15
18 0.4
19 -0.3
2 -0.36
20 -0.14
21 0.54
22 0.09
23 -0.15
24 -0.15
25 -0.15
26 -0.15
27 0.08
28 0.08
29 -0.15
3 -0.36
30 -0.15
31 -0.15
32 -0.15
33 0.28
34 0.28
35 0.15
36 0.15
37 0.15
38 0.27
4 0.31
41 0.15
42 0.37
43 0.15
44 0.15
45 0.15
46 0.15
47 0.15
48 0.15
49 0.15
5 0.3
50 0.15
6 -0.49
7 -0.71
8 -0.23
9 -0.42

> <PUBCHEM_EFFECTIVE_ROTOR_COUNT>
8

> <PUBCHEM_PHARMACOPHORE_FEATURES>
10
1 1 acceptor
1 2 acceptor
1 3 acceptor
1 5 donor
1 6 donor
5 4 8 9 15 19 rings
5 5 7 10 11 14 rings
6 10 11 12 13 16 17 rings
6 20 23 24 30 31 32 rings
6 22 25 26 27 28 29 rings

> <PUBCHEM_HEAVY_ATOM_COUNT>
34

> <PUBCHEM_ATOM_DEF_STEREO_COUNT>
0

> <PUBCHEM_ATOM_UDEF_STEREO_COUNT>
0

> <PUBCHEM_BOND_DEF_STEREO_COUNT>
0

> <PUBCHEM_BOND_UDEF_STEREO_COUNT>
0

> <PUBCHEM_ISOTOPIC_ATOM_COUNT>
0

> <PUBCHEM_COMPONENT_COUNT>
1

> <PUBCHEM_CACTVS_TAUTO_COUNT>
24

> <PUBCHEM_CONFORMER_ID>
02F85A3900000003

> <PUBCHEM_MMFF94_ENERGY>
101.7579

> <PUBCHEM_FEATURE_SELFOVERLAP>
50.844

> <PUBCHEM_SHAPE_FINGERPRINT>
10675989 125 18411134706618382272
10920273 25 18201167568100312881
11211813 128 7997973480053828848
11273773 42 18343297059909321269
11410812 94 14836134200096829722
11479125 193 18409450293296208249
11828042 163 18412553094415670292
11828042 58 18113912542135102334
1200032 147 18259988158831204362
12013929 29 18339361976498001332
12107183 9 18116126992818340754
12677640 9 18194119844811025157
13885169 86 18411418389218864785
13944108 23 18270116786683938376
14251764 75 18410011048230774289
14394314 77 18410576193377519693
14400156 260 18260263059104827056
14664723 55 18412549829085386829
14790565 3 18410005503602003565
14849402 71 18193837033504282707
15064981 194 18118130387869532414
15274700 21 18266181811316246995
15297060 5 18411136944101183936
15320467 1 18335974329269258028
15350500 16 10087637070495350004
15357212 105 18187376466793773742
15400415 2 18263636432891032220
15685185 35 18411985788421243065
16067689 134 18411705382828397444
16112460 7 18341052925847972200
16126227 98 18412545414501837667
16728433 281 18191031312544565700
16992779 147 18265055738950939547
17899979 129 18272093747335478878
19302320 297 18336823079130678210
19309040 13 18202563990257975623
20691028 202 18411699928034711056
21133410 58 16534823314476680561
21792964 463 17771358478709150449
21987483 16 17968100790569842059
23522609 53 17916866808447360137
23569914 152 7955594801404705131
23729398 52 18048602512917567342
2747138 104 17317610134330959810
3610482 184 17560222632576748231
397830 11 18187937115235672107
4760202 70 18343008992827828407
5223283 242 17771081392593514726
5911458 16 18130228160292522105
5951187 136 18271814479992719726

> <PUBCHEM_SHAPE_MULTIPOLES>
652.21
24.12
6.74
1.19
7.53
1.85
0.02
-33.8
0.97
-3.19
1.51
2.17
-0.32
-3.56

> <PUBCHEM_SHAPE_SELFOVERLAP>
1445.061

> <PUBCHEM_SHAPE_VOLUME>
350.8

> <PUBCHEM_COORDINATE_TYPE>
2
5
10

$$$$
