16757525
  -OEChem-10062122033D

 34 36  0     1  0  0  0  0  0999 V2000
   -2.2601   -3.7671   -0.0013 F   0  0  0  0  0  0  0  0  0  0  0  0
   -2.7926    3.1313    0.4857 O   0  0  0  0  0  0  0  0  0  0  0  0
   -0.0921   -0.4741   -0.3043 N   0  0  0  0  0  0  0  0  0  0  0  0
   -3.8194    1.2211   -0.3115 N   0  0  0  0  0  0  0  0  0  0  0  0
    2.6300   -0.7236   -0.2206 N   0  0  0  0  0  0  0  0  0  0  0  0
    4.8481    0.1678    0.0839 N   0  0  0  0  0  0  0  0  0  0  0  0
    4.5194   -2.1012   -0.4154 N   0  0  0  0  0  0  0  0  0  0  0  0
   -2.5820   -0.9638   -0.4973 C   0  0  2  0  0  0  0  0  0  0  0  0
   -1.4007   -0.0829   -0.2802 C   0  0  0  0  0  0  0  0  0  0  0  0
   -3.7302   -0.0684   -1.0064 C   0  0  0  0  0  0  0  0  0  0  0  0
   -2.9709   -1.6781    0.7975 C   0  0  0  0  0  0  0  0  0  0  0  0
   -1.4508    1.2693   -0.0122 C   0  0  0  0  0  0  0  0  0  0  0  0
   -2.7141    1.9757    0.0794 C   0  0  0  0  0  0  0  0  0  0  0  0
    0.7027    0.6131   -0.0360 C   0  0  0  0  0  0  0  0  0  0  0  0
   -0.1152    1.7086    0.1546 C   0  0  0  0  0  0  0  0  0  0  0  0
   -2.1084   -2.9006    1.0351 C   0  0  0  0  0  0  0  0  0  0  0  0
    2.1413    0.5113    0.0172 C   0  0  0  0  0  0  0  0  0  0  0  0
    2.9315    1.6088    0.2919 C   0  0  0  0  0  0  0  0  0  0  0  0
    4.2913    1.3753    0.3124 C   0  0  0  0  0  0  0  0  0  0  0  0
    3.9721   -0.8225   -0.1723 C   0  0  0  0  0  0  0  0  0  0  0  0
   -2.3680   -1.7025   -1.2798 H   0  0  0  0  0  0  0  0  0  0  0  0
   -3.5638    0.1762   -2.0631 H   0  0  0  0  0  0  0  0  0  0  0  0
   -4.7040   -0.5632   -0.9322 H   0  0  0  0  0  0  0  0  0  0  0  0
   -2.9152   -1.0084    1.6641 H   0  0  0  0  0  0  0  0  0  0  0  0
   -4.0089   -2.0240    0.7196 H   0  0  0  0  0  0  0  0  0  0  0  0
    0.2380   -1.4127   -0.4853 H   0  0  0  0  0  0  0  0  0  0  0  0
   -4.7321    1.6626   -0.2570 H   0  0  0  0  0  0  0  0  0  0  0  0
    0.1999    2.7173    0.3848 H   0  0  0  0  0  0  0  0  0  0  0  0
   -1.0467   -2.6614    1.1308 H   0  0  0  0  0  0  0  0  0  0  0  0
   -2.4232   -3.4186    1.9461 H   0  0  0  0  0  0  0  0  0  0  0  0
    2.5437    2.6009    0.4831 H   0  0  0  0  0  0  0  0  0  0  0  0
    4.9922    2.1770    0.5193 H   0  0  0  0  0  0  0  0  0  0  0  0
    5.5220   -2.2258   -0.3904 H   0  0  0  0  0  0  0  0  0  0  0  0
    3.9019   -2.8765   -0.6129 H   0  0  0  0  0  0  0  0  0  0  0  0
  1 16  1  0  0  0  0
  2 13  2  0  0  0  0
  3  9  1  0  0  0  0
  3 14  1  0  0  0  0
  3 26  1  0  0  0  0
  4 10  1  0  0  0  0
  4 13  1  0  0  0  0
  4 27  1  0  0  0  0
  5 17  2  0  0  0  0
  5 20  1  0  0  0  0
  6 19  1  0  0  0  0
  6 20  2  0  0  0  0
  7 20  1  0  0  0  0
  7 33  1  0  0  0  0
  7 34  1  0  0  0  0
  8  9  1  0  0  0  0
  8 10  1  0  0  0  0
  8 11  1  0  0  0  0
  8 21  1  0  0  0  0
  9 12  2  0  0  0  0
 10 22  1  0  0  0  0
 10 23  1  0  0  0  0
 11 16  1  0  0  0  0
 11 24  1  0  0  0  0
 11 25  1  0  0  0  0
 12 13  1  0  0  0  0
 12 15  1  0  0  0  0
 14 15  2  0  0  0  0
 14 17  1  0  0  0  0
 15 28  1  0  0  0  0
 16 29  1  0  0  0  0
 16 30  1  0  0  0  0
 17 18  1  0  0  0  0
 18 19  2  0  0  0  0
 18 31  1  0  0  0  0
 19 32  1  0  0  0  0
M  END
> <PUBCHEM_COMPOUND_CID>
16757525

> <PUBCHEM_CONFORMER_RMSD>
0.6

> <PUBCHEM_CONFORMER_DIVERSEORDER>
1
25
30
17
33
37
14
20
31
12
45
27
2
44
28
4
24
7
43
23
8
6
35
18
26
5
32
11
29
19
34
16
15
42
22
40
10
36
13
39
3
41
21
38
9

> <PUBCHEM_MMFF94_PARTIAL_CHARGES>
26
1 -0.34
10 0.3
12 -0.09
13 0.72
14 -0.2
15 -0.15
16 0.34
17 0.36
18 -0.15
19 0.16
2 -0.57
20 0.72
26 0.27
27 0.37
28 0.15
3 0.03
31 0.15
32 0.15
33 0.4
34 0.4
4 -0.73
5 -0.62
6 -0.62
7 -0.9
8 0.18
9 -0.33

> <PUBCHEM_EFFECTIVE_ROTOR_COUNT>
3.6

> <PUBCHEM_PHARMACOPHORE_FEATURES>
10
1 2 acceptor
1 3 cation
1 3 donor
1 4 donor
1 5 acceptor
1 7 donor
4 5 6 7 20 cation
5 3 9 12 14 15 rings
6 4 8 9 10 12 13 rings
6 5 6 17 18 19 20 rings

> <PUBCHEM_HEAVY_ATOM_COUNT>
20

> <PUBCHEM_ATOM_DEF_STEREO_COUNT>
1

> <PUBCHEM_ATOM_UDEF_STEREO_COUNT>
0

> <PUBCHEM_BOND_DEF_STEREO_COUNT>
0

> <PUBCHEM_BOND_UDEF_STEREO_COUNT>
0

> <PUBCHEM_ISOTOPIC_ATOM_COUNT>
0

> <PUBCHEM_COMPONENT_COUNT>
1

> <PUBCHEM_CACTVS_TAUTO_COUNT>
15

> <PUBCHEM_CONFORMER_ID>
00FFB31500000001

> <PUBCHEM_MMFF94_ENERGY>
38.8392

> <PUBCHEM_FEATURE_SELFOVERLAP>
50.842

> <PUBCHEM_SHAPE_FINGERPRINT>
10366900 7 18130216163915776528
10616163 171 18411139181742494726
10906281 52 18271260395157732501
1100329 8 17617659852147620355
11036077 51 18339645512683785617
11405975 8 18410573947113976304
11552529 35 17701264869398339683
12553582 1 17832718133102936335
12555020 224 18335974260285569455
13135754 10 17097809891441653427
13140716 1 18195533825127699041
13583140 156 18059570351777714088
14115302 16 18114744936154677581
14223421 5 18268992166656186096
15042514 8 18335990869557118619
15196674 1 18342454803642566564
15420108 30 14892158393292664800
17492 89 18337392737981628218
17834074 16 18410012152274752618
18186145 218 17968090898331249908
200 152 17775558745416606605
20510252 161 18342176661571111817
20645477 70 18060416889900211022
21065198 57 18411138030875557328
21267235 1 18341619187236502740
21339142 51 18336539538475203381
221490 88 18339366361579689864
23402539 116 18341604928694302957
23559900 14 18411414017100322056
335352 9 18125440800491409588
3421961 26 17255407544764684123
4214541 1 18341329994451916100
4921388 177 17385730226483174099
5104073 3 18341891875364338648
54173680 148 18337674225716016585
559249 180 18195804068670030398
77779 3 18413387614417792956
8809292 202 18410576171305635563
9709674 26 18341896290232054662

> <PUBCHEM_SHAPE_MULTIPOLES>
373.54
8.94
3.2
0.79
8.73
1.63
-0.03
1.04
0.45
-2.8
-0.7
-0.42
0.18
0.75

> <PUBCHEM_SHAPE_SELFOVERLAP>
816.542

> <PUBCHEM_SHAPE_VOLUME>
203.4

> <PUBCHEM_COORDINATE_TYPE>
2
5
10

$$$$
