49830635
  -OEChem-10062121563D

 49 52  0     0  0  0  0  0  0999 V2000
   -1.1716   -1.8240    0.9470 N   0  0  0  0  0  0  0  0  0  0  0  0
   -2.5202   -1.9678    0.8766 N   0  0  0  0  0  0  0  0  0  0  0  0
    7.2641   -0.3147   -0.3303 N   0  0  0  0  0  0  0  0  0  0  0  0
   -6.1844    1.0108    0.0297 N   0  0  0  0  0  0  0  0  0  0  0  0
   -9.4744    0.5996   -0.6395 N   0  0  0  0  0  0  0  0  0  0  0  0
   -1.8905    0.0805    0.1238 C   0  0  0  0  0  0  0  0  0  0  0  0
   -1.5943    1.4468   -0.3909 C   0  0  0  0  0  0  0  0  0  0  0  0
   -0.7781   -0.6158    0.5055 C   0  0  0  0  0  0  0  0  0  0  0  0
   -0.0633    1.3883   -0.2237 C   0  0  0  0  0  0  0  0  0  0  0  0
    0.3988    0.1527    0.3108 C   0  0  0  0  0  0  0  0  0  0  0  0
   -2.9480   -0.7951    0.3710 C   0  0  0  0  0  0  0  0  0  0  0  0
    1.7307   -0.1091    0.5398 C   0  0  0  0  0  0  0  0  0  0  0  0
    0.8432    2.3860   -0.5353 C   0  0  0  0  0  0  0  0  0  0  0  0
    2.6384    0.9037    0.2224 C   0  0  0  0  0  0  0  0  0  0  0  0
   -4.3485   -0.5579    0.1451 C   0  0  0  0  0  0  0  0  0  0  0  0
    2.2011    2.1348   -0.3079 C   0  0  0  0  0  0  0  0  0  0  0  0
   -5.2120   -1.6027   -0.1654 C   0  0  0  0  0  0  0  0  0  0  0  0
   -4.8796    0.7190    0.2299 C   0  0  0  0  0  0  0  0  0  0  0  0
    6.6420    0.2921    0.8395 C   0  0  0  0  0  0  0  0  0  0  0  0
    8.7048   -0.4756   -0.1236 C   0  0  0  0  0  0  0  0  0  0  0  0
    6.6475   -1.6084   -0.6304 C   0  0  0  0  0  0  0  0  0  0  0  0
    4.0357    0.6900    0.4371 C   0  0  0  0  0  0  0  0  0  0  0  0
    5.2099    0.5101    0.6161 C   0  0  0  0  0  0  0  0  0  0  0  0
   -6.5611   -1.3422   -0.3784 C   0  0  0  0  0  0  0  0  0  0  0  0
    9.3769    0.8643    0.1234 C   0  0  0  0  0  0  0  0  0  0  0  0
    7.2873   -2.2522   -1.8486 C   0  0  0  0  0  0  0  0  0  0  0  0
   -6.9932   -0.0301   -0.2701 C   0  0  0  0  0  0  0  0  0  0  0  0
   -8.3611    0.3170   -0.4737 C   0  0  0  0  0  0  0  0  0  0  0  0
   -1.8691    1.5621   -1.4421 H   0  0  0  0  0  0  0  0  0  0  0  0
   -2.0152    2.2334    0.2393 H   0  0  0  0  0  0  0  0  0  0  0  0
   -0.6184   -2.5938    1.3040 H   0  0  0  0  0  0  0  0  0  0  0  0
    2.0552   -1.0607    0.9480 H   0  0  0  0  0  0  0  0  0  0  0  0
    0.5176    3.3363   -0.9437 H   0  0  0  0  0  0  0  0  0  0  0  0
    2.9226    2.9132   -0.5499 H   0  0  0  0  0  0  0  0  0  0  0  0
   -4.8597   -2.6272   -0.2548 H   0  0  0  0  0  0  0  0  0  0  0  0
    6.7894   -0.3222    1.7370 H   0  0  0  0  0  0  0  0  0  0  0  0
    7.0632    1.2804    1.0508 H   0  0  0  0  0  0  0  0  0  0  0  0
   -4.2791    1.5851    0.4861 H   0  0  0  0  0  0  0  0  0  0  0  0
    9.1865   -0.8744   -1.0219 H   0  0  0  0  0  0  0  0  0  0  0  0
    8.9270   -1.1614    0.7037 H   0  0  0  0  0  0  0  0  0  0  0  0
    6.7123   -2.2978    0.2214 H   0  0  0  0  0  0  0  0  0  0  0  0
    5.5855   -1.4870   -0.8712 H   0  0  0  0  0  0  0  0  0  0  0  0
   -7.2420   -2.1511   -0.6227 H   0  0  0  0  0  0  0  0  0  0  0  0
   10.4635    0.7508    0.0358 H   0  0  0  0  0  0  0  0  0  0  0  0
    9.1863    1.2496    1.1297 H   0  0  0  0  0  0  0  0  0  0  0  0
    9.0683    1.6160   -0.6112 H   0  0  0  0  0  0  0  0  0  0  0  0
    6.6580   -3.0798   -2.1958 H   0  0  0  0  0  0  0  0  0  0  0  0
    8.2689   -2.6836   -1.6296 H   0  0  0  0  0  0  0  0  0  0  0  0
    7.3818   -1.5466   -2.6812 H   0  0  0  0  0  0  0  0  0  0  0  0
  1  2  1  0  0  0  0
  1  8  1  0  0  0  0
  1 31  1  0  0  0  0
  2 11  2  0  0  0  0
  3 19  1  0  0  0  0
  3 20  1  0  0  0  0
  3 21  1  0  0  0  0
  4 18  1  0  0  0  0
  4 27  2  0  0  0  0
  5 28  3  0  0  0  0
  6  7  1  0  0  0  0
  6  8  2  0  0  0  0
  6 11  1  0  0  0  0
  7  9  1  0  0  0  0
  7 29  1  0  0  0  0
  7 30  1  0  0  0  0
  8 10  1  0  0  0  0
  9 10  2  0  0  0  0
  9 13  1  0  0  0  0
 10 12  1  0  0  0  0
 11 15  1  0  0  0  0
 12 14  2  0  0  0  0
 12 32  1  0  0  0  0
 13 16  2  0  0  0  0
 13 33  1  0  0  0  0
 14 16  1  0  0  0  0
 14 22  1  0  0  0  0
 15 17  1  0  0  0  0
 15 18  2  0  0  0  0
 16 34  1  0  0  0  0
 17 24  2  0  0  0  0
 17 35  1  0  0  0  0
 18 38  1  0  0  0  0
 19 23  1  0  0  0  0
 19 36  1  0  0  0  0
 19 37  1  0  0  0  0
 20 25  1  0  0  0  0
 20 39  1  0  0  0  0
 20 40  1  0  0  0  0
 21 26  1  0  0  0  0
 21 41  1  0  0  0  0
 21 42  1  0  0  0  0
 22 23  3  0  0  0  0
 24 27  1  0  0  0  0
 24 43  1  0  0  0  0
 25 44  1  0  0  0  0
 25 45  1  0  0  0  0
 25 46  1  0  0  0  0
 26 47  1  0  0  0  0
 26 48  1  0  0  0  0
 26 49  1  0  0  0  0
 27 28  1  0  0  0  0
M  END
> <PUBCHEM_COMPOUND_CID>
49830635

> <PUBCHEM_CONFORMER_RMSD>
0.8

> <PUBCHEM_CONFORMER_DIVERSEORDER>
1
6
7
3
11
12
4
10
8
5
2
9

> <PUBCHEM_MMFF94_PARTIAL_CHARGES>
33
1 0.3
10 0.05
11 0.23
12 -0.15
13 -0.15
14 0.07
15 0.05
16 -0.15
17 -0.15
18 0.16
19 0.47
2 -0.71
20 0.27
21 0.27
22 -0.07
23 -0.2
24 -0.15
27 0.38
28 0.48
3 -0.81
31 0.27
32 0.15
33 0.15
34 0.15
35 0.15
38 0.15
4 -0.62
43 0.15
5 -0.56
6 -0.18
7 0.32
8 -0.2
9 -0.14

> <PUBCHEM_EFFECTIVE_ROTOR_COUNT>
4.2

> <PUBCHEM_PHARMACOPHORE_FEATURES>
9
1 1 donor
1 2 acceptor
1 3 cation
1 4 acceptor
1 5 acceptor
5 1 2 6 8 11 rings
5 6 7 8 9 10 rings
6 4 15 17 18 24 27 rings
6 9 10 12 13 14 16 rings

> <PUBCHEM_HEAVY_ATOM_COUNT>
28

> <PUBCHEM_ATOM_DEF_STEREO_COUNT>
0

> <PUBCHEM_ATOM_UDEF_STEREO_COUNT>
0

> <PUBCHEM_BOND_DEF_STEREO_COUNT>
0

> <PUBCHEM_BOND_UDEF_STEREO_COUNT>
0

> <PUBCHEM_ISOTOPIC_ATOM_COUNT>
0

> <PUBCHEM_COMPONENT_COUNT>
1

> <PUBCHEM_CACTVS_TAUTO_COUNT>
2

> <PUBCHEM_CONFORMER_ID>
02F85AEB00000001

> <PUBCHEM_MMFF94_ENERGY>
76.6541

> <PUBCHEM_FEATURE_SELFOVERLAP>
46.01

> <PUBCHEM_SHAPE_FINGERPRINT>
10 15 12463565197621907698
10076449 9 17603301553022755229
10580692 12 18343302552497629553
106641 1 12031786968018578342
10674148 151 18040711485346372520
11315181 36 18131073757152276393
11408170 108 17346047675385380486
11524674 6 17203608211612458422
11638347 137 13398638238729964468
12643181 29 18040154054425978514
12741549 16 17632854218782174008
13617811 41 17749394741822306766
13885169 127 18343584018926688128
13914758 101 17346325864331710065
14117953 113 18409449189067197342
14216079 64 18341331115854903942
14251764 46 18410571794718143201
14294032 229 17386843894381973205
15131766 46 16053756655477512200
15183329 4 18259702298170391354
15849732 13 18273213114438139406
15980000 95 18040998444960287340
16087824 20 18187077314096267277
18006028 8 18341894104326030336
18335252 98 8502379944278324800
19301679 30 16199602264902332660
20501277 279 17846210112968120288
21150785 3 14706925142329067976
21267235 1 18260268585730210945
21304303 172 18341899558428756872
21521721 280 11314310546681379428
21792934 111 18411973690184296104
22224240 67 10952051156200669300
23559900 14 18265330792783088168
23569917 315 18339648940469640375
249057 3 18187082883808337565
28498 318 18413670201336988910
3004659 81 17967531303090321008
3092352 35 14851604384133344433
3103668 31 18041836195410897549
335352 9 18260545645353934117
3633792 109 17988647359129148747
4017518 198 18060422430435306358
4073 2 17676769898289327475
437815 12 18413110571863123768
439807 62 18260546694223143202
5104073 3 11455355898012838766
5758199 1 9727637215038148861
59682541 35 10519983781716354757
59755656 215 18333732399495828818
6138700 20 18407759239948512747
9663363 56 18407754846940877936

> <PUBCHEM_SHAPE_MULTIPOLES>
551.32
28.74
2
0.93
12.03
0.17
0.15
5.55
5.9
1.18
0.46
0.9
0.32
1.76

> <PUBCHEM_SHAPE_SELFOVERLAP>
1208.421

> <PUBCHEM_SHAPE_VOLUME>
298.5

> <PUBCHEM_COORDINATE_TYPE>
2
5
10

$$$$
