21362669
  -OEChem-10062122043D

 22 24  0     0  0  0  0  0  0999 V2000
   -1.0868   -1.7506   -0.0001 N   0  0  0  0  0  0  0  0  0  0  0  0
   -4.0248    0.4796   -0.0001 N   0  0  0  0  0  0  0  0  0  0  0  0
    4.8008    1.4647    0.0006 N   0  0  0  0  0  0  0  0  0  0  0  0
    0.1496    0.1061   -0.0001 C   0  0  0  0  0  0  0  0  0  0  0  0
   -1.2328    0.4753    0.0002 C   0  0  0  0  0  0  0  0  0  0  0  0
    0.2084   -1.2882    0.0001 C   0  0  0  0  0  0  0  0  0  0  0  0
   -1.9767   -0.7043    0.0002 C   0  0  0  0  0  0  0  0  0  0  0  0
    1.3591    0.8322   -0.0006 C   0  0  0  0  0  0  0  0  0  0  0  0
    1.4166   -1.9947    0.0002 C   0  0  0  0  0  0  0  0  0  0  0  0
   -1.9206    1.6989    0.0002 C   0  0  0  0  0  0  0  0  0  0  0  0
   -3.3656   -0.7020    0.0001 C   0  0  0  0  0  0  0  0  0  0  0  0
    2.5752    0.1395   -0.0007 C   0  0  0  0  0  0  0  0  0  0  0  0
    2.6011   -1.2531    0.0000 C   0  0  0  0  0  0  0  0  0  0  0  0
   -3.3071    1.6256   -0.0001 C   0  0  0  0  0  0  0  0  0  0  0  0
    3.8037    0.8710    0.0001 C   0  0  0  0  0  0  0  0  0  0  0  0
   -1.3475   -2.7271   -0.0002 H   0  0  0  0  0  0  0  0  0  0  0  0
    1.3385    1.9194   -0.0007 H   0  0  0  0  0  0  0  0  0  0  0  0
    1.4375   -3.0795    0.0005 H   0  0  0  0  0  0  0  0  0  0  0  0
   -1.4061    2.6530    0.0001 H   0  0  0  0  0  0  0  0  0  0  0  0
   -3.9641   -1.6035    0.0000 H   0  0  0  0  0  0  0  0  0  0  0  0
    3.5492   -1.7877    0.0003 H   0  0  0  0  0  0  0  0  0  0  0  0
   -3.9018    2.5343   -0.0002 H   0  0  0  0  0  0  0  0  0  0  0  0
  1  6  1  0  0  0  0
  1  7  1  0  0  0  0
  1 16  1  0  0  0  0
  2 11  2  0  0  0  0
  2 14  1  0  0  0  0
  3 15  3  0  0  0  0
  4  5  1  0  0  0  0
  4  6  2  0  0  0  0
  4  8  1  0  0  0  0
  5  7  2  0  0  0  0
  5 10  1  0  0  0  0
  6  9  1  0  0  0  0
  7 11  1  0  0  0  0
  8 12  2  0  0  0  0
  8 17  1  0  0  0  0
  9 13  2  0  0  0  0
  9 18  1  0  0  0  0
 10 14  2  0  0  0  0
 10 19  1  0  0  0  0
 11 20  1  0  0  0  0
 12 13  1  0  0  0  0
 12 15  1  0  0  0  0
 13 21  1  0  0  0  0
 14 22  1  0  0  0  0
M  END
> <PUBCHEM_COMPOUND_CID>
21362669

> <PUBCHEM_CONFORMER_RMSD>
0.4

> <PUBCHEM_CONFORMER_DIVERSEORDER>
1

> <PUBCHEM_MMFF94_PARTIAL_CHARGES>
20
1 0.03
10 -0.15
11 0.16
12 0.07
13 -0.15
14 0.16
15 0.48
16 0.27
17 0.15
18 0.15
19 0.15
2 -0.62
20 0.15
21 0.15
22 0.15
3 -0.56
6 -0.15
7 -0.15
8 -0.15
9 -0.15

> <PUBCHEM_EFFECTIVE_ROTOR_COUNT>
0

> <PUBCHEM_PHARMACOPHORE_FEATURES>
7
1 1 cation
1 1 donor
1 2 acceptor
1 3 acceptor
5 1 4 5 6 7 rings
6 2 5 7 10 11 14 rings
6 4 6 8 9 12 13 rings

> <PUBCHEM_HEAVY_ATOM_COUNT>
15

> <PUBCHEM_ATOM_DEF_STEREO_COUNT>
0

> <PUBCHEM_ATOM_UDEF_STEREO_COUNT>
0

> <PUBCHEM_BOND_DEF_STEREO_COUNT>
0

> <PUBCHEM_BOND_UDEF_STEREO_COUNT>
0

> <PUBCHEM_ISOTOPIC_ATOM_COUNT>
0

> <PUBCHEM_COMPONENT_COUNT>
1

> <PUBCHEM_CACTVS_TAUTO_COUNT>
2

> <PUBCHEM_CONFORMER_ID>
0145F7ED00000001

> <PUBCHEM_MMFF94_ENERGY>
29.6397

> <PUBCHEM_FEATURE_SELFOVERLAP>
35.706

> <PUBCHEM_SHAPE_FINGERPRINT>
10411042 1 17041481086544929926
10608611 8 18337670802368872205
10967382 1 18410573976587948773
10980938 120 18410575046240605346
11132069 177 18333450945355436693
11471102 20 18411695456973424471
11543360 7 15697990881653517676
12346645 44 18409728465210419538
12390115 104 18199488630465677897
12932764 1 17418080023246293259
13140716 1 17977394059397610043
13214271 11 18334858359225894511
13380535 76 18409167727144361978
14144814 61 18409449150560047841
14325111 11 18410856525348707425
14897335 6 18410853257057943286
15196674 1 18410575063251571943
15219456 202 18410578348906977551
15442244 35 18050848814739259018
15536298 74 18341895152118449078
15775835 57 18341897385089849832
16945 1 18410574032533462311
18186145 218 18270123383442338805
20510252 161 18343024376213980049
20645477 70 18271806757298727263
21267235 1 18339088089921081939
21501502 16 18339355271388822467
21524375 3 18409447011993459914
2334 1 18410855413026030787
23366157 5 18041565715876900650
23402539 116 18340196496420398870
23402655 69 18271516508231130589
23463225 33 18263642879161968658
23559900 14 18127407857106392710
2748010 2 18337677390922434015
474 4 17386574703533428596
4990 188 17988935448608267796
5104073 3 18337112276358120371
53812653 166 18342735239036660224
57096353 35 18341325665076928791
7364860 26 18269837519558002598
9709674 26 18411425011531323854

> <PUBCHEM_SHAPE_MULTIPOLES>
293.75
7.17
1.97
0.6
2.31
0.24
0
-3.33
0
0.24
0
0
0
0

> <PUBCHEM_SHAPE_SELFOVERLAP>
666.27

> <PUBCHEM_SHAPE_VOLUME>
153.1

> <PUBCHEM_COORDINATE_TYPE>
2
5
10

$$$$
