3385203
  -OEChem-10062122003D

 28 31  0     0  0  0  0  0  0999 V2000
   -0.7460    1.0490    0.0959 O   0  0  0  0  0  0  0  0  0  0  0  0
   -0.4551   -2.3052   -0.1979 N   0  0  0  0  0  0  0  0  0  0  0  0
    0.9086   -2.1936   -0.1985 N   0  0  0  0  0  0  0  0  0  0  0  0
   -1.1691   -1.1366   -0.0911 C   0  0  0  0  0  0  0  0  0  0  0  0
   -0.2094   -0.1892   -0.0156 C   0  0  0  0  0  0  0  0  0  0  0  0
   -2.4310   -0.5211   -0.0274 C   0  0  0  0  0  0  0  0  0  0  0  0
    1.0337   -0.8539   -0.0829 C   0  0  0  0  0  0  0  0  0  0  0  0
   -2.1018    0.8312    0.0877 C   0  0  0  0  0  0  0  0  0  0  0  0
    2.2963   -0.1793   -0.0330 C   0  0  0  0  0  0  0  0  0  0  0  0
   -3.7762   -0.9117   -0.0503 C   0  0  0  0  0  0  0  0  0  0  0  0
   -3.0649    1.8374    0.1830 C   0  0  0  0  0  0  0  0  0  0  0  0
   -4.7550    0.0858    0.0447 C   0  0  0  0  0  0  0  0  0  0  0  0
   -4.4042    1.4338    0.1590 C   0  0  0  0  0  0  0  0  0  0  0  0
    2.4158    1.1219   -0.5263 C   0  0  0  0  0  0  0  0  0  0  0  0
    3.4125   -0.8203    0.5092 C   0  0  0  0  0  0  0  0  0  0  0  0
    3.6454    1.7787   -0.4780 C   0  0  0  0  0  0  0  0  0  0  0  0
    4.6420   -0.1632    0.5574 C   0  0  0  0  0  0  0  0  0  0  0  0
    4.7584    1.1363    0.0639 C   0  0  0  0  0  0  0  0  0  0  0  0
   -0.8639   -3.2279   -0.2748 H   0  0  0  0  0  0  0  0  0  0  0  0
   -4.0612   -1.9553   -0.1387 H   0  0  0  0  0  0  0  0  0  0  0  0
   -2.7907    2.8823    0.2718 H   0  0  0  0  0  0  0  0  0  0  0  0
   -5.8052   -0.1944    0.0291 H   0  0  0  0  0  0  0  0  0  0  0  0
   -5.1874    2.1846    0.2308 H   0  0  0  0  0  0  0  0  0  0  0  0
    1.5766    1.6483   -0.9731 H   0  0  0  0  0  0  0  0  0  0  0  0
    3.3495   -1.8304    0.9069 H   0  0  0  0  0  0  0  0  0  0  0  0
    3.7375    2.7889   -0.8661 H   0  0  0  0  0  0  0  0  0  0  0  0
    5.5088   -0.6626    0.9806 H   0  0  0  0  0  0  0  0  0  0  0  0
    5.7159    1.6475    0.1009 H   0  0  0  0  0  0  0  0  0  0  0  0
  1  5  1  0  0  0  0
  1  8  1  0  0  0  0
  2  3  1  0  0  0  0
  2  4  1  0  0  0  0
  2 19  1  0  0  0  0
  3  7  2  0  0  0  0
  4  5  2  0  0  0  0
  4  6  1  0  0  0  0
  5  7  1  0  0  0  0
  6  8  1  0  0  0  0
  6 10  2  0  0  0  0
  7  9  1  0  0  0  0
  8 11  2  0  0  0  0
  9 14  2  0  0  0  0
  9 15  1  0  0  0  0
 10 12  1  0  0  0  0
 10 20  1  0  0  0  0
 11 13  1  0  0  0  0
 11 21  1  0  0  0  0
 12 13  2  0  0  0  0
 12 22  1  0  0  0  0
 13 23  1  0  0  0  0
 14 16  1  0  0  0  0
 14 24  1  0  0  0  0
 15 17  2  0  0  0  0
 15 25  1  0  0  0  0
 16 18  2  0  0  0  0
 16 26  1  0  0  0  0
 17 18  1  0  0  0  0
 17 27  1  0  0  0  0
 18 28  1  0  0  0  0
M  END
> <PUBCHEM_COMPOUND_CID>
3385203

> <PUBCHEM_CONFORMER_RMSD>
0.6

> <PUBCHEM_CONFORMER_DIVERSEORDER>
1

> <PUBCHEM_MMFF94_PARTIAL_CHARGES>
28
1 -0.31
10 -0.15
11 -0.15
12 -0.15
13 -0.15
14 -0.15
15 -0.15
16 -0.15
17 -0.15
18 -0.15
19 0.27
2 0.21
20 0.15
21 0.15
22 0.15
23 0.15
24 0.15
25 0.15
26 0.15
27 0.15
28 0.15
3 -0.71
4 -0.05
5 0.18
6 -0.01
7 0.22
8 0.14
9 0.05

> <PUBCHEM_EFFECTIVE_ROTOR_COUNT>
1

> <PUBCHEM_PHARMACOPHORE_FEATURES>
7
1 1 acceptor
1 2 donor
1 3 acceptor
5 1 4 5 6 8 rings
5 2 3 4 5 7 rings
6 6 8 10 11 12 13 rings
6 9 14 15 16 17 18 rings

> <PUBCHEM_HEAVY_ATOM_COUNT>
18

> <PUBCHEM_ATOM_DEF_STEREO_COUNT>
0

> <PUBCHEM_ATOM_UDEF_STEREO_COUNT>
0

> <PUBCHEM_BOND_DEF_STEREO_COUNT>
0

> <PUBCHEM_BOND_UDEF_STEREO_COUNT>
0

> <PUBCHEM_ISOTOPIC_ATOM_COUNT>
0

> <PUBCHEM_COMPONENT_COUNT>
1

> <PUBCHEM_CACTVS_TAUTO_COUNT>
2

> <PUBCHEM_CONFORMER_ID>
0033A77300000001

> <PUBCHEM_MMFF94_ENERGY>
44.9201

> <PUBCHEM_FEATURE_SELFOVERLAP>
35.89

> <PUBCHEM_SHAPE_FINGERPRINT>
10411042 1 17475232882414262374
11132069 177 18410857637945703677
12107183 9 17686612451007425072
12173636 292 18268705176951971598
12236239 1 18187080676738369040
12251169 10 18260545632574520670
12390115 104 18130243566192428897
12403814 3 18040711468240167677
12592029 89 18335422335581807866
12788726 201 17683802481972260618
13214271 11 18409729573734131063
13380535 76 18410294704987853515
13583140 156 17095234835177544683
14252887 29 12396299227775700208
14787075 74 18341330089183549467
15042514 8 18194686092872938415
15188451 53 15358270402259721321
15196674 1 18410856555350110020
15536298 74 18271529684694987390
1813 80 17023464124219060046
18186145 218 18058464135336450998
18222031 100 12035452765370764697
19784866 9 18339078194347658658
200 152 18272080604956397181
204376 136 18411421708743313867
20510252 161 18272938214908860745
20645477 70 16486707891781712902
20715895 44 17975687299698684829
21267235 1 18409175410830259530
21524375 3 18410855460244459694
21652331 79 18407759243974740460
23184049 59 18186238433387950956
23366157 5 18117284644426930398
23402539 116 18272362096527466708
23559900 14 18198623224789103390
245318 6 17099761679321883884
2916195 48 17845924225915069712
335352 9 18410575042394115750
34934 24 18339637846578482095
351380 180 18334293167046402128
3545911 37 18411703188347106300
4214541 1 18409166610283949496
4340502 62 17313390011419142891
4409770 3 16026479481077720126
474 4 17604433028287602220
474229 33 18411419548791709711
5104073 3 18408604751246720194
58051976 378 18342174428050707933
6333272 397 18409732858867076282
633830 44 18342740676154066366
69090 78 18410853287048952286
7364860 26 18126850395646428686
9709674 26 18411426102395046726

> <PUBCHEM_SHAPE_MULTIPOLES>
354.6
9.88
2
0.67
1.19
0.24
-0.01
-3.8
-0.86
-0.1
0.14
0.2
-0.03
-0.49

> <PUBCHEM_SHAPE_SELFOVERLAP>
816.797

> <PUBCHEM_SHAPE_VOLUME>
185.8

> <PUBCHEM_COORDINATE_TYPE>
2
5
10

$$$$
