21362756
  -OEChem-10062121583D

 29 31  0     0  0  0  0  0  0999 V2000
    1.4564    4.1609    0.1852 Cl  0  0  0  0  0  0  0  0  0  0  0  0
    3.4222   -1.3145    0.2174 S   0  0  0  0  0  0  0  0  0  0  0  0
    4.4076   -2.1476   -0.4464 O   0  0  0  0  0  0  0  0  0  0  0  0
    3.8379   -0.2125    1.0622 O   0  0  0  0  0  0  0  0  0  0  0  0
   -0.7068   -1.2214   -0.5041 N   0  0  0  0  0  0  0  0  0  0  0  0
    2.2722   -0.7922   -0.9540 N   0  0  0  0  0  0  0  0  0  0  0  0
   -4.3356   -1.4971    0.0954 N   0  0  0  0  0  0  0  0  0  0  0  0
   -0.0134   -0.0390   -0.3910 C   0  0  0  0  0  0  0  0  0  0  0  0
   -0.9325    0.9459   -0.0273 C   0  0  0  0  0  0  0  0  0  0  0  0
   -2.2135    0.3170    0.0777 C   0  0  0  0  0  0  0  0  0  0  0  0
    1.3469    0.2287   -0.5825 C   0  0  0  0  0  0  0  0  0  0  0  0
   -2.0385   -1.0327   -0.2259 C   0  0  0  0  0  0  0  0  0  0  0  0
   -0.4697    2.2662    0.1541 C   0  0  0  0  0  0  0  0  0  0  0  0
    1.7809    1.5440   -0.3967 C   0  0  0  0  0  0  0  0  0  0  0  0
    0.8877    2.5494   -0.0342 C   0  0  0  0  0  0  0  0  0  0  0  0
   -3.5030    0.7671    0.4017 C   0  0  0  0  0  0  0  0  0  0  0  0
   -3.0943   -1.9350   -0.2174 C   0  0  0  0  0  0  0  0  0  0  0  0
   -4.5095   -0.1893    0.3909 C   0  0  0  0  0  0  0  0  0  0  0  0
    2.4048   -2.3980    1.1949 C   0  0  0  0  0  0  0  0  0  0  0  0
   -0.2923   -2.1081   -0.7555 H   0  0  0  0  0  0  0  0  0  0  0  0
   -1.1664    3.0510    0.4373 H   0  0  0  0  0  0  0  0  0  0  0  0
    2.8306    1.7882   -0.5506 H   0  0  0  0  0  0  0  0  0  0  0  0
    1.8660   -1.5376   -1.5348 H   0  0  0  0  0  0  0  0  0  0  0  0
   -3.7107    1.8021    0.6480 H   0  0  0  0  0  0  0  0  0  0  0  0
   -2.9831   -2.9860   -0.4494 H   0  0  0  0  0  0  0  0  0  0  0  0
   -5.5307    0.0903    0.6320 H   0  0  0  0  0  0  0  0  0  0  0  0
    3.0414   -2.8641    1.9503 H   0  0  0  0  0  0  0  0  0  0  0  0
    1.6229   -1.8156    1.6845 H   0  0  0  0  0  0  0  0  0  0  0  0
    1.9785   -3.1667    0.5477 H   0  0  0  0  0  0  0  0  0  0  0  0
  1 15  1  0  0  0  0
  2  3  2  0  0  0  0
  2  4  2  0  0  0  0
  2  6  1  0  0  0  0
  2 19  1  0  0  0  0
  5  8  1  0  0  0  0
  5 12  1  0  0  0  0
  5 20  1  0  0  0  0
  6 11  1  0  0  0  0
  6 23  1  0  0  0  0
  7 17  2  0  0  0  0
  7 18  1  0  0  0  0
  8  9  2  0  0  0  0
  8 11  1  0  0  0  0
  9 10  1  0  0  0  0
  9 13  1  0  0  0  0
 10 12  2  0  0  0  0
 10 16  1  0  0  0  0
 11 14  2  0  0  0  0
 12 17  1  0  0  0  0
 13 15  2  0  0  0  0
 13 21  1  0  0  0  0
 14 15  1  0  0  0  0
 14 22  1  0  0  0  0
 16 18  2  0  0  0  0
 16 24  1  0  0  0  0
 17 25  1  0  0  0  0
 18 26  1  0  0  0  0
 19 27  1  0  0  0  0
 19 28  1  0  0  0  0
 19 29  1  0  0  0  0
M  END
> <PUBCHEM_COMPOUND_CID>
21362756

> <PUBCHEM_CONFORMER_RMSD>
0.6

> <PUBCHEM_CONFORMER_DIVERSEORDER>
1
11
10
6
13
8
12
5
7
2
9
4
3

> <PUBCHEM_MMFF94_PARTIAL_CHARGES>
24
1 -0.18
11 0.2
12 -0.15
13 -0.15
14 -0.15
15 0.18
16 -0.15
17 0.16
18 0.16
19 0.11
2 1.33
20 0.27
21 0.15
22 0.15
23 0.42
24 0.15
25 0.15
26 0.15
3 -0.65
4 -0.65
5 0.03
6 -0.76
7 -0.62
8 -0.15

> <PUBCHEM_EFFECTIVE_ROTOR_COUNT>
2

> <PUBCHEM_PHARMACOPHORE_FEATURES>
9
1 3 acceptor
1 4 acceptor
1 5 cation
1 5 donor
1 6 donor
1 7 acceptor
5 5 8 9 10 12 rings
6 7 10 12 16 17 18 rings
6 8 9 11 13 14 15 rings

> <PUBCHEM_HEAVY_ATOM_COUNT>
19

> <PUBCHEM_ATOM_DEF_STEREO_COUNT>
0

> <PUBCHEM_ATOM_UDEF_STEREO_COUNT>
0

> <PUBCHEM_BOND_DEF_STEREO_COUNT>
0

> <PUBCHEM_BOND_UDEF_STEREO_COUNT>
0

> <PUBCHEM_ISOTOPIC_ATOM_COUNT>
0

> <PUBCHEM_COMPONENT_COUNT>
1

> <PUBCHEM_CACTVS_TAUTO_COUNT>
2

> <PUBCHEM_CONFORMER_ID>
0145F84400000001

> <PUBCHEM_MMFF94_ENERGY>
42.3328

> <PUBCHEM_FEATURE_SELFOVERLAP>
45.874

> <PUBCHEM_SHAPE_FINGERPRINT>
10062212 137 18343864425010338975
10967382 1 18124882519267535557
11265709 11 18337958896095673924
11578080 2 17822275886537931660
12403260 363 18272088314739314917
12553582 1 18336539422089287994
12644460 14 18265627647974206865
12714826 92 17822850866578041301
12788726 201 18045507404663384426
13140716 1 18340777013423206361
13533116 47 18264773341094570307
138480 1 18410857685222369228
14022347 108 18052004461547330927
14787075 74 18187646942548967634
14790565 3 17905612451553934828
14866123 147 17185877190428542658
15042514 8 18050571737877559660
15375462 189 18187649067824887610
15442244 35 18412832395379020169
15475509 35 17386010606749568723
16945 1 18270695177208241253
17349148 13 17989200439505920375
17492 89 18268149949524549127
17804303 29 18342179925244804263
1813 80 17748544827396631540
20291156 8 18335419007013756090
20369508 70 18335698373187742247
20510252 161 17983012241835507280
20559304 39 18339645649843274332
20600515 1 18130234752645061692
20645477 70 18337949120961423415
20671657 1 18267591384399765077
21250096 35 18334852771136085747
21267235 1 18338246989327344087
21296965 67 18410009901442870660
21501502 16 18198909304408040101
21501925 9 18341327872553020335
21524375 3 17552364692496416197
21650355 55 18194393408041426768
221490 88 18191877922921395715
2255824 54 18190184666313695572
2297311 6 18198353870827060030
23184049 29 18411139112732653332
23366157 5 18116997882281934709
23402539 116 18128809755763634509
23419403 2 17843654760426512473
23463225 33 18411704304875060119
23557571 272 18128539254512786966
23558518 356 17186437387824593308
23559900 14 18340483460597513017
25147074 1 17987520493345001967
2748010 2 17548716083882436477
3091708 16 9283851219644651576
314173 41 18409173198885191814
335352 9 18339366258558809253
34934 24 18338228276201853486
352729 6 17472975104089698140
3759504 43 17254558717181889276
43471831 8 17763461016681917221
4409770 3 17828478068447851493
4990 188 12468638313490199082
5104073 3 18269005344285757459
58807428 26 17838038665944263616
5902787 121 18410293618350357311
633830 44 10881399833165898779
7097593 13 18340764952637996335
7364860 26 18268148836884796092
81228 2 17983596112158064736
90316 7 18194684769695437665
9709674 26 18265055915097657475
9981440 41 17546159066223081145

> <PUBCHEM_SHAPE_MULTIPOLES>
370.05
7.44
3.58
0.85
2.78
3.29
-0.08
-5.25
-1.01
-3
-0.43
-0.43
-0.23
-0.38

> <PUBCHEM_SHAPE_SELFOVERLAP>
795.648

> <PUBCHEM_SHAPE_VOLUME>
208

> <PUBCHEM_COORDINATE_TYPE>
2
5
10

$$$$
