49830728
  -OEChem-10062121543D

 35 36  0     1  0  0  0  0  0999 V2000
    2.4538   -3.5862   -0.4253 Cl  0  0  0  0  0  0  0  0  0  0  0  0
    4.0812    1.3139   -0.1169 S   0  0  0  0  0  0  0  0  0  0  0  0
   -2.4774   -0.7041    0.4817 N   0  0  0  0  0  0  0  0  0  0  0  0
   -0.1736   -0.6336    0.2056 N   0  0  0  0  0  0  0  0  0  0  0  0
   -1.3786   -2.7193    0.1345 N   0  0  0  0  0  0  0  0  0  0  0  0
    2.1732   -0.5915   -0.0804 N   0  0  0  0  0  0  0  0  0  0  0  0
    1.5511    1.7088    0.2377 N   0  0  0  0  0  0  0  0  0  0  0  0
   -2.4782    1.4494   -0.7248 C   0  0  0  0  0  0  0  0  0  0  0  0
   -2.5596    0.7336    0.6433 C   0  0  1  0  0  0  0  0  0  0  0  0
   -3.6200    1.0928   -1.6820 C   0  0  0  0  0  0  0  0  0  0  0  0
   -2.4036    2.9709   -0.5524 C   0  0  0  0  0  0  0  0  0  0  0  0
   -3.8279    1.0745    1.4223 C   0  0  0  0  0  0  0  0  0  0  0  0
   -1.2917   -1.3818    0.2647 C   0  0  0  0  0  0  0  0  0  0  0  0
    0.9645   -1.3264   -0.0076 C   0  0  0  0  0  0  0  0  0  0  0  0
    1.0107   -2.6975   -0.1576 C   0  0  0  0  0  0  0  0  0  0  0  0
   -0.2036   -3.3481   -0.0766 C   0  0  0  0  0  0  0  0  0  0  0  0
    2.4569    0.7795    0.0281 C   0  0  0  0  0  0  0  0  0  0  0  0
    3.5456    2.9262    0.1170 C   0  0  0  0  0  0  0  0  0  0  0  0
    2.1772    2.9389    0.2888 C   0  0  0  0  0  0  0  0  0  0  0  0
   -1.5463    1.1445   -1.2184 H   0  0  0  0  0  0  0  0  0  0  0  0
   -1.7219    1.0740    1.2673 H   0  0  0  0  0  0  0  0  0  0  0  0
   -3.6839    0.0122   -1.8427 H   0  0  0  0  0  0  0  0  0  0  0  0
   -3.4567    1.5597   -2.6598 H   0  0  0  0  0  0  0  0  0  0  0  0
   -4.5881    1.4428   -1.3103 H   0  0  0  0  0  0  0  0  0  0  0  0
   -2.1858    3.4522   -1.5123 H   0  0  0  0  0  0  0  0  0  0  0  0
   -1.6049    3.2475    0.1438 H   0  0  0  0  0  0  0  0  0  0  0  0
   -3.3449    3.3900   -0.1836 H   0  0  0  0  0  0  0  0  0  0  0  0
   -3.9067    2.1458    1.6276 H   0  0  0  0  0  0  0  0  0  0  0  0
   -3.8271    0.5595    2.3904 H   0  0  0  0  0  0  0  0  0  0  0  0
   -4.7329    0.7543    0.8959 H   0  0  0  0  0  0  0  0  0  0  0  0
   -3.3292   -1.2535    0.4773 H   0  0  0  0  0  0  0  0  0  0  0  0
   -0.2812   -4.4261   -0.1802 H   0  0  0  0  0  0  0  0  0  0  0  0
    2.9799   -1.1910   -0.2428 H   0  0  0  0  0  0  0  0  0  0  0  0
    4.2332    3.7597    0.1184 H   0  0  0  0  0  0  0  0  0  0  0  0
    1.5818    3.8264    0.4553 H   0  0  0  0  0  0  0  0  0  0  0  0
  1 15  1  0  0  0  0
  2 17  1  0  0  0  0
  2 18  1  0  0  0  0
  3  9  1  0  0  0  0
  3 13  1  0  0  0  0
  3 31  1  0  0  0  0
  4 13  1  0  0  0  0
  4 14  2  0  0  0  0
  5 13  2  0  0  0  0
  5 16  1  0  0  0  0
  6 14  1  0  0  0  0
  6 17  1  0  0  0  0
  6 33  1  0  0  0  0
  7 17  2  0  0  0  0
  7 19  1  0  0  0  0
  8  9  1  0  0  0  0
  8 10  1  0  0  0  0
  8 11  1  0  0  0  0
  8 20  1  0  0  0  0
  9 12  1  0  0  0  0
  9 21  1  0  0  0  0
 10 22  1  0  0  0  0
 10 23  1  0  0  0  0
 10 24  1  0  0  0  0
 11 25  1  0  0  0  0
 11 26  1  0  0  0  0
 11 27  1  0  0  0  0
 12 28  1  0  0  0  0
 12 29  1  0  0  0  0
 12 30  1  0  0  0  0
 14 15  1  0  0  0  0
 15 16  2  0  0  0  0
 16 32  1  0  0  0  0
 18 19  2  0  0  0  0
 18 34  1  0  0  0  0
 19 35  1  0  0  0  0
M  END
> <PUBCHEM_COMPOUND_CID>
49830728

> <PUBCHEM_CONFORMER_RMSD>
0.8

> <PUBCHEM_CONFORMER_DIVERSEORDER>
1
69
115
66
85
83
61
19
89
79
70
110
119
94
84
74
48
109
54
39
114
33
106
112
62
117
103
45
63
12
20
11
40
23
49
72
88
24
93
37
86
59
27
113
14
10
76
60
64
107
100
32
78
105
56
29
118
6
116
50
77
25
111
16
65
104
95
52
80
101
67
17
97
42
31
30
44
22
5
71
55
58
18
3
8
108
46
53
90
9
82
43
81
38
73
41
98
51
99
91
57
96
87
4
102
92
68
47
7
75
120
34
2
35
28
21
15
36
26
13

> <PUBCHEM_MMFF94_PARTIAL_CHARGES>
20
1 -0.18
13 0.72
14 0.41
15 0.18
16 0.16
17 0.46
18 -0.11
19 0.08
2 -0.08
3 -0.87
31 0.4
32 0.15
33 0.4
34 0.15
35 0.15
4 -0.62
5 -0.62
6 -0.58
7 -0.57
9 0.37

> <PUBCHEM_EFFECTIVE_ROTOR_COUNT>
5

> <PUBCHEM_PHARMACOPHORE_FEATURES>
7
1 3 donor
1 6 donor
3 6 7 17 cation
3 8 10 11 hydrophobe
4 3 4 5 13 cation
5 2 7 17 18 19 rings
6 4 5 13 14 15 16 rings

> <PUBCHEM_HEAVY_ATOM_COUNT>
19

> <PUBCHEM_ATOM_DEF_STEREO_COUNT>
0

> <PUBCHEM_ATOM_UDEF_STEREO_COUNT>
1

> <PUBCHEM_BOND_DEF_STEREO_COUNT>
0

> <PUBCHEM_BOND_UDEF_STEREO_COUNT>
0

> <PUBCHEM_ISOTOPIC_ATOM_COUNT>
0

> <PUBCHEM_COMPONENT_COUNT>
1

> <PUBCHEM_CACTVS_TAUTO_COUNT>
13

> <PUBCHEM_CONFORMER_ID>
02F85B4800000001

> <PUBCHEM_MMFF94_ENERGY>
48.3291

> <PUBCHEM_FEATURE_SELFOVERLAP>
35.521

> <PUBCHEM_SHAPE_FINGERPRINT>
10165383 225 18192740953391475684
10670039 82 17181098151040236956
11370993 70 18337378418096439796
11725454 13 17169802554322067053
12173636 292 18053385684628193854
12403259 226 18117566119819950211
12553582 1 17185879393841275640
13134695 92 17760078523699071415
13140716 1 18339365266036001624
13583140 156 17241033362296441456
138480 1 17906735795611305528
14250199 8 18123743167602061381
18219364 16 18408608062872668209
18785283 64 18265630809032973155
19930381 70 18410009901923282401
20510252 161 17838343230432470650
20621476 13 18121210987638202044
20671657 1 18341061704755538443
20681677 76 18189899717188438251
21041028 32 17691983561125036225
21524375 3 18336829800585756050
21639500 275 18266733598079433431
22182937 141 18198072562594236689
23402539 116 17551511476021365662
23598291 2 17700687372711868629
238 59 18120627211620406581
2748010 2 18337400455546722558
31174 14 18120957018159238145
350125 39 18338805631581366538
474 4 18341328890761002001
5939293 188 17905039257643543770
7364860 26 18339648815207862602
7832392 63 17475784360941838181
81228 2 17545600514262838450
9862522 239 18262778753586245008

> <PUBCHEM_SHAPE_MULTIPOLES>
371.83
6.75
4.95
0.98
1
2.11
-0.12
-5.35
-0.22
-3.54
-0.36
1.16
-0.31
0.82

> <PUBCHEM_SHAPE_SELFOVERLAP>
748.414

> <PUBCHEM_SHAPE_VOLUME>
220.7

> <PUBCHEM_COORDINATE_TYPE>
2
5
10

$$$$
