44376059
  -OEChem-10052115143D

 53 57  0     0  0  0  0  0  0999 V2000
   -1.0892   -1.8535   -1.6202 S   0  0  0  0  0  0  0  0  0  0  0  0
    5.4234    1.0535    1.2380 S   0  0  0  0  0  0  0  0  0  0  0  0
   -4.1892    1.5189   -1.6277 O   0  0  0  0  0  0  0  0  0  0  0  0
   -5.2197   -1.3301    1.8108 O   0  0  0  0  0  0  0  0  0  0  0  0
    0.5756    1.4144   -0.6677 N   0  0  0  0  0  0  0  0  0  0  0  0
   -5.0819    0.0681   -0.0454 N   0  0  0  0  0  0  0  0  0  0  0  0
   -1.6166   -1.1602    2.9832 N   0  0  0  0  0  0  0  0  0  0  0  0
    8.0024    0.5541    1.4484 N   0  0  0  0  0  0  0  0  0  0  0  0
    7.0407    0.1247   -0.6652 N   0  0  0  0  0  0  0  0  0  0  0  0
   -0.4215    0.5045   -0.4379 C   0  0  0  0  0  0  0  0  0  0  0  0
   -1.5710    1.2010   -0.1442 C   0  0  0  0  0  0  0  0  0  0  0  0
    0.0909    2.6953   -0.5275 C   0  0  0  0  0  0  0  0  0  0  0  0
   -1.2619    2.5891   -0.1972 C   0  0  0  0  0  0  0  0  0  0  0  0
    1.9460    1.0907   -1.0127 C   0  0  0  0  0  0  0  0  0  0  0  0
   -0.2123   -0.8990   -0.5131 C   0  0  0  0  0  0  0  0  0  0  0  0
   -2.8706    0.6008    0.1644 C   0  0  0  0  0  0  0  0  0  0  0  0
    2.8854    1.2508    0.1864 C   0  0  0  0  0  0  0  0  0  0  0  0
    0.7398    3.9273   -0.6664 C   0  0  0  0  0  0  0  0  0  0  0  0
   -2.0054    3.7689    0.0046 C   0  0  0  0  0  0  0  0  0  0  0  0
    0.6615   -1.6502    0.2365 C   0  0  0  0  0  0  0  0  0  0  0  0
    4.3138    0.8637   -0.1869 C   0  0  0  0  0  0  0  0  0  0  0  0
   -3.1862   -0.2350    1.1660 C   0  0  0  0  0  0  0  0  0  0  0  0
   -0.0179    5.0838   -0.4614 C   0  0  0  0  0  0  0  0  0  0  0  0
    0.6234   -3.0466   -0.0939 C   0  0  0  0  0  0  0  0  0  0  0  0
   -1.3694    5.0084   -0.1310 C   0  0  0  0  0  0  0  0  0  0  0  0
   -4.1015    0.8087   -0.6403 C   0  0  0  0  0  0  0  0  0  0  0  0
   -0.3048   -3.3013   -1.1084 C   0  0  0  0  0  0  0  0  0  0  0  0
   -4.6148   -0.5904    1.0539 C   0  0  0  0  0  0  0  0  0  0  0  0
    1.3535   -4.1383    0.4350 C   0  0  0  0  0  0  0  0  0  0  0  0
   -0.5186   -4.6037   -1.6008 C   0  0  0  0  0  0  0  0  0  0  0  0
    1.1436   -5.4314   -0.0512 C   0  0  0  0  0  0  0  0  0  0  0  0
    0.2169   -5.6594   -1.0585 C   0  0  0  0  0  0  0  0  0  0  0  0
   -2.3241   -0.7430    2.1639 C   0  0  0  0  0  0  0  0  0  0  0  0
    6.9596    0.5153    0.5664 C   0  0  0  0  0  0  0  0  0  0  0  0
    2.2445    1.7655   -1.8245 H   0  0  0  0  0  0  0  0  0  0  0  0
    1.9983    0.0819   -1.4316 H   0  0  0  0  0  0  0  0  0  0  0  0
    2.5346    0.6367    1.0234 H   0  0  0  0  0  0  0  0  0  0  0  0
    2.8659    2.2898    0.5381 H   0  0  0  0  0  0  0  0  0  0  0  0
    1.7902    3.9993   -0.9269 H   0  0  0  0  0  0  0  0  0  0  0  0
   -3.0594    3.7296    0.2645 H   0  0  0  0  0  0  0  0  0  0  0  0
    1.2996   -1.2425    1.0099 H   0  0  0  0  0  0  0  0  0  0  0  0
    4.6699    1.4987   -1.0052 H   0  0  0  0  0  0  0  0  0  0  0  0
    4.3370   -0.1790   -0.5214 H   0  0  0  0  0  0  0  0  0  0  0  0
    0.4558    6.0571   -0.5623 H   0  0  0  0  0  0  0  0  0  0  0  0
   -1.9377    5.9216    0.0237 H   0  0  0  0  0  0  0  0  0  0  0  0
   -6.0385    0.0176   -0.3769 H   0  0  0  0  0  0  0  0  0  0  0  0
    2.0831   -3.9754    1.2245 H   0  0  0  0  0  0  0  0  0  0  0  0
   -1.2420   -4.7915   -2.3892 H   0  0  0  0  0  0  0  0  0  0  0  0
    1.7099   -6.2608    0.3630 H   0  0  0  0  0  0  0  0  0  0  0  0
    0.0606   -6.6683   -1.4304 H   0  0  0  0  0  0  0  0  0  0  0  0
    8.9364    0.2676    1.1763 H   0  0  0  0  0  0  0  0  0  0  0  0
    7.8725    0.8711    2.4031 H   0  0  0  0  0  0  0  0  0  0  0  0
    8.0101   -0.1469   -0.8630 H   0  0  0  0  0  0  0  0  0  0  0  0
  1 15  1  0  0  0  0
  1 27  1  0  0  0  0
  2 21  1  0  0  0  0
  2 34  1  0  0  0  0
  3 26  2  0  0  0  0
  4 28  2  0  0  0  0
  5 10  1  0  0  0  0
  5 12  1  0  0  0  0
  5 14  1  0  0  0  0
  6 26  1  0  0  0  0
  6 28  1  0  0  0  0
  6 46  1  0  0  0  0
  7 33  3  0  0  0  0
  8 34  1  0  0  0  0
  8 51  1  0  0  0  0
  8 52  1  0  0  0  0
  9 34  2  0  0  0  0
  9 53  1  0  0  0  0
 10 11  2  0  0  0  0
 10 15  1  0  0  0  0
 11 13  1  0  0  0  0
 11 16  1  0  0  0  0
 12 13  1  0  0  0  0
 12 18  2  0  0  0  0
 13 19  2  0  0  0  0
 14 17  1  0  0  0  0
 14 35  1  0  0  0  0
 14 36  1  0  0  0  0
 15 20  2  0  0  0  0
 16 22  2  0  0  0  0
 16 26  1  0  0  0  0
 17 21  1  0  0  0  0
 17 37  1  0  0  0  0
 17 38  1  0  0  0  0
 18 23  1  0  0  0  0
 18 39  1  0  0  0  0
 19 25  1  0  0  0  0
 19 40  1  0  0  0  0
 20 24  1  0  0  0  0
 20 41  1  0  0  0  0
 21 42  1  0  0  0  0
 21 43  1  0  0  0  0
 22 28  1  0  0  0  0
 22 33  1  0  0  0  0
 23 25  2  0  0  0  0
 23 44  1  0  0  0  0
 24 27  1  0  0  0  0
 24 29  2  0  0  0  0
 25 45  1  0  0  0  0
 27 30  2  0  0  0  0
 29 31  1  0  0  0  0
 29 47  1  0  0  0  0
 30 32  1  0  0  0  0
 30 48  1  0  0  0  0
 31 32  2  0  0  0  0
 31 49  1  0  0  0  0
 32 50  1  0  0  0  0
M  END
> <PUBCHEM_COMPOUND_CID>
44376059

> <PUBCHEM_CONFORMER_RMSD>
1

> <PUBCHEM_CONFORMER_DIVERSEORDER>
1
37
36
34
63
74
40
58
45
81
78
57
2
38
29
25
7
69
56
22
62
73
9
8
42
66
28
55
71
61
26
48
32
27
17
24
4
18
72
44
13
5
12
59
21
51
3
75
53
49
41
35
76
77
67
6
15
47
65
20
31
16
19
50
79
33
14
70
10
68
52
43
11
23
60
54
80
64
30
46
39

> <PUBCHEM_MMFF94_PARTIAL_CHARGES>
44
1 -0.08
10 -0.15
11 -0.05
12 -0.15
14 0.26
15 0.04
16 0.06
18 -0.15
19 -0.15
2 -0.37
20 -0.15
21 0.23
22 0.08
23 -0.15
25 -0.15
26 0.62
27 0.04
28 0.62
29 -0.15
3 -0.57
30 -0.15
31 -0.15
32 -0.15
33 0.49
34 0.64
39 0.15
4 -0.57
40 0.15
41 0.15
44 0.15
45 0.15
46 0.37
47 0.15
48 0.15
49 0.15
5 0.05
50 0.15
51 0.4
52 0.4
53 0.4
6 -0.49
7 -0.56
8 -0.85
9 -0.85

> <PUBCHEM_EFFECTIVE_ROTOR_COUNT>
7.2

> <PUBCHEM_PHARMACOPHORE_FEATURES>
13
1 3 acceptor
1 4 acceptor
1 5 cation
1 6 donor
1 7 acceptor
1 8 donor
1 9 donor
3 8 9 34 cation
5 1 15 20 24 27 rings
5 5 10 11 12 13 rings
5 6 16 22 26 28 rings
6 12 13 18 19 23 25 rings
6 24 27 29 30 31 32 rings

> <PUBCHEM_HEAVY_ATOM_COUNT>
34

> <PUBCHEM_ATOM_DEF_STEREO_COUNT>
0

> <PUBCHEM_ATOM_UDEF_STEREO_COUNT>
0

> <PUBCHEM_BOND_DEF_STEREO_COUNT>
0

> <PUBCHEM_BOND_UDEF_STEREO_COUNT>
0

> <PUBCHEM_ISOTOPIC_ATOM_COUNT>
0

> <PUBCHEM_COMPONENT_COUNT>
1

> <PUBCHEM_CACTVS_TAUTO_COUNT>
3

> <PUBCHEM_CONFORMER_ID>
02A51FFB00000001

> <PUBCHEM_MMFF94_ENERGY>
68.9877

> <PUBCHEM_FEATURE_SELFOVERLAP>
66.162

> <PUBCHEM_SHAPE_FINGERPRINT>
102385 1 17834678197189038428
10930396 42 18125412394068558600
1100329 8 18123189266717627165
11135926 11 18338228263892484893
11578080 2 16694092127078125409
13140716 1 18267313212738597857
13383668 90 14345785046359484690
13911987 19 18335987553267555309
140371 6 18189346679825020117
14068700 686 18267587910224611004
14844126 61 18335691798088658616
14866123 147 18268423715029597734
14955137 171 18263368147268348568
15219462 58 18121511145859684269
15775530 1 17834394523225820056
15815584 197 18340786857309024543
16728300 4 17968082119133488338
19311894 1 18267292322091562294
20028762 73 18056489576242783767
21033648 29 18130213947692177097
21796203 349 17973757888355896392
22223350 30 17912360141401321336
22311459 1 18265617576387732845
23559900 14 17546999733024822622
255183 313 18272092750829037546
3178227 256 18265909119373063017
3383291 50 18411696612979049106
3886686 26 18055627576110914512
4403749 210 18337377280700596808
5171179 24 17907868297010015370
5265222 85 18412266151913709236
57527452 28 17917710240686171695
6669772 16 18201723925395466830
9896288 288 18268149765083496696
9981440 41 18337670798295516136

> <PUBCHEM_SHAPE_MULTIPOLES>
670.76
10.8
7.86
1.64
22.91
5.07
-0.88
-4.31
-5.03
-0.49
3.07
-0.97
0.9
0.99

> <PUBCHEM_SHAPE_SELFOVERLAP>
1468.341

> <PUBCHEM_SHAPE_VOLUME>
367.9

> <PUBCHEM_COORDINATE_TYPE>
2
5
10

$$$$
