49830987
  -OEChem-10062121553D

 44 46  0     0  0  0  0  0  0999 V2000
   -7.7045   -0.8571   -1.1170 Cl  0  0  0  0  0  0  0  0  0  0  0  0
    0.6555    4.9054   -0.5542 F   0  0  0  0  0  0  0  0  0  0  0  0
    1.9308    3.8767   -1.9935 F   0  0  0  0  0  0  0  0  0  0  0  0
    2.8217    5.1083   -0.4320 F   0  0  0  0  0  0  0  0  0  0  0  0
   -2.2013    1.6598    1.2052 O   0  0  0  0  0  0  0  0  0  0  0  0
    2.8568    2.2859    0.2519 O   0  0  0  0  0  0  0  0  0  0  0  0
    1.0486   -2.7540    0.2407 N   0  0  0  0  0  0  0  0  0  0  0  0
    0.7323    2.8970    0.9841 N   0  0  0  0  0  0  0  0  0  0  0  0
    3.1295   -1.7428   -0.1219 N   0  0  0  0  0  0  0  0  0  0  0  0
    2.8874   -4.1279   -0.2257 N   0  0  0  0  0  0  0  0  0  0  0  0
    5.0330   -3.1222   -0.6033 N   0  0  0  0  0  0  0  0  0  0  0  0
    5.2387   -0.7886   -0.4943 N   0  0  0  0  0  0  0  0  0  0  0  0
   -0.0593    0.6161    1.3094 C   0  0  0  0  0  0  0  0  0  0  0  0
   -1.9449   -0.5748    0.3801 C   0  0  0  0  0  0  0  0  0  0  0  0
   -1.4104    0.5730    0.9654 C   0  0  0  0  0  0  0  0  0  0  0  0
    0.2229   -1.6364    0.4826 C   0  0  0  0  0  0  0  0  0  0  0  0
    0.5320    1.8357    1.9368 C   0  0  0  0  0  0  0  0  0  0  0  0
    0.7573   -0.4886    1.0680 C   0  0  0  0  0  0  0  0  0  0  0  0
   -1.1283   -1.6795    0.1387 C   0  0  0  0  0  0  0  0  0  0  0  0
   -3.3435   -0.6420    0.0165 C   0  0  0  0  0  0  0  0  0  0  0  0
   -4.2815   -1.1092    0.9372 C   0  0  0  0  0  0  0  0  0  0  0  0
   -3.7542   -0.2410   -1.2549 C   0  0  0  0  0  0  0  0  0  0  0  0
   -5.6298   -1.1755    0.5868 C   0  0  0  0  0  0  0  0  0  0  0  0
   -5.1026   -0.3074   -1.6055 C   0  0  0  0  0  0  0  0  0  0  0  0
    2.4210   -2.8811   -0.0491 C   0  0  0  0  0  0  0  0  0  0  0  0
   -6.0404   -0.7746   -0.6847 C   0  0  0  0  0  0  0  0  0  0  0  0
    1.8818    3.0315    0.2205 C   0  0  0  0  0  0  0  0  0  0  0  0
    1.8228    4.2254   -0.6861 C   0  0  0  0  0  0  0  0  0  0  0  0
    4.4277   -1.9406   -0.4024 C   0  0  0  0  0  0  0  0  0  0  0  0
    4.2012   -4.1713   -0.4994 C   0  0  0  0  0  0  0  0  0  0  0  0
    1.4995    1.6008    2.3979 H   0  0  0  0  0  0  0  0  0  0  0  0
   -0.0987    2.2114    2.7505 H   0  0  0  0  0  0  0  0  0  0  0  0
    1.7944   -0.4437    1.3845 H   0  0  0  0  0  0  0  0  0  0  0  0
   -1.5401   -2.5776   -0.3182 H   0  0  0  0  0  0  0  0  0  0  0  0
    0.5472   -3.6322    0.1468 H   0  0  0  0  0  0  0  0  0  0  0  0
   -0.0110    3.5799    0.8695 H   0  0  0  0  0  0  0  0  0  0  0  0
   -3.9782   -1.4256    1.9325 H   0  0  0  0  0  0  0  0  0  0  0  0
   -3.0360    0.1257   -1.9845 H   0  0  0  0  0  0  0  0  0  0  0  0
   -1.6722    2.4357    1.4438 H   0  0  0  0  0  0  0  0  0  0  0  0
   -6.3496   -1.5416    1.3144 H   0  0  0  0  0  0  0  0  0  0  0  0
   -5.4083    0.0083   -2.5997 H   0  0  0  0  0  0  0  0  0  0  0  0
    4.6341   -5.1521   -0.6519 H   0  0  0  0  0  0  0  0  0  0  0  0
    6.2224   -0.8884   -0.7030 H   0  0  0  0  0  0  0  0  0  0  0  0
    4.8256    0.1224   -0.3495 H   0  0  0  0  0  0  0  0  0  0  0  0
  1 26  1  0  0  0  0
  2 28  1  0  0  0  0
  3 28  1  0  0  0  0
  4 28  1  0  0  0  0
  5 15  1  0  0  0  0
  5 39  1  0  0  0  0
  6 27  2  0  0  0  0
  7 16  1  0  0  0  0
  7 25  1  0  0  0  0
  7 35  1  0  0  0  0
  8 17  1  0  0  0  0
  8 27  1  0  0  0  0
  8 36  1  0  0  0  0
  9 25  1  0  0  0  0
  9 29  2  0  0  0  0
 10 25  2  0  0  0  0
 10 30  1  0  0  0  0
 11 29  1  0  0  0  0
 11 30  2  0  0  0  0
 12 29  1  0  0  0  0
 12 43  1  0  0  0  0
 12 44  1  0  0  0  0
 13 15  2  0  0  0  0
 13 17  1  0  0  0  0
 13 18  1  0  0  0  0
 14 15  1  0  0  0  0
 14 19  2  0  0  0  0
 14 20  1  0  0  0  0
 16 18  2  0  0  0  0
 16 19  1  0  0  0  0
 17 31  1  0  0  0  0
 17 32  1  0  0  0  0
 18 33  1  0  0  0  0
 19 34  1  0  0  0  0
 20 21  2  0  0  0  0
 20 22  1  0  0  0  0
 21 23  1  0  0  0  0
 21 37  1  0  0  0  0
 22 24  2  0  0  0  0
 22 38  1  0  0  0  0
 23 26  2  0  0  0  0
 23 40  1  0  0  0  0
 24 26  1  0  0  0  0
 24 41  1  0  0  0  0
 27 28  1  0  0  0  0
 30 42  1  0  0  0  0
M  END
> <PUBCHEM_COMPOUND_CID>
49830987

> <PUBCHEM_CONFORMER_RMSD>
0.8

> <PUBCHEM_CONFORMER_DIVERSEORDER>
1
233
143
275
110
158
292
146
268
181
242
313
280
284
195
298
172
250
272
319
135
166
229
320
227
209
71
309
321
45
104
226
301
303
230
48
218
267
82
134
124
170
49
30
212
248
239
189
245
40
291
118
176
247
315
165
304
224
123
254
296
60
308
88
312
97
23
323
72
220
261
175
144
148
214
69
306
238
289
262
276
198
54
137
232
106
259
317
288
196
163
204
173
287
98
322
281
186
19
132
109
234
156
85
99
257
127
113
76
283
121
297
151
269
182
153
81
86
84
128
310
155
191
208
59
202
316
66
188
199
91
325
63
203
14
164
237
286
161
307
162
131
142
140
279
16
228
314
194
38
64
44
89
174
116
47
210
215
326
231
96
154
57
94
114
126
184
136
108
264
241
100
152
305
53
29
302
311
10
192
25
125
235
35
324
273
271
207
300
263
107
167
193
61
318
236
266
258
6
243
20
56
293
103
8
200
34
75
83
219
37
225
190
168
145
157
206
27
253
65
179
265
80
138
112
130
159
2
295
285
197
68
205
28
4
111
299
183
129
105
18
185
15
240
92
270
255
11
282
42
177
119
211
217
95
51
101
221
9
278
122
244
3
21
13
70
222
147
32
252
274
180
141
216
24
74
93
50
213
26
150
115
90
43
260
160
149
277
256
17
171
52
251
55
46
290
58
117
73
201
139
77
223
187
5
22
12
102
41
169
249
120
178
87
133
39
36
246
31
294
62
67
79
78
7
33

> <PUBCHEM_MMFF94_PARTIAL_CHARGES>
40
1 -0.18
10 -0.62
11 -0.62
12 -0.9
13 -0.14
15 0.08
16 0.1
17 0.44
18 -0.15
19 -0.15
2 -0.34
21 -0.15
22 -0.15
23 -0.15
24 -0.15
25 0.72
26 0.18
27 0.57
28 1.08
29 0.72
3 -0.34
30 0.47
33 0.15
34 0.15
35 0.4
36 0.37
37 0.15
38 0.15
39 0.45
4 -0.34
40 0.15
41 0.15
42 0.15
43 0.4
44 0.4
5 -0.53
6 -0.57
7 -0.6
8 -0.73
9 -0.62

> <PUBCHEM_EFFECTIVE_ROTOR_COUNT>
7

> <PUBCHEM_PHARMACOPHORE_FEATURES>
10
1 12 donor
1 5 donor
1 6 acceptor
1 7 donor
1 8 donor
4 7 9 10 25 cation
4 9 11 12 29 cation
6 13 14 15 16 18 19 rings
6 20 21 22 23 24 26 rings
6 9 10 11 25 29 30 rings

> <PUBCHEM_HEAVY_ATOM_COUNT>
30

> <PUBCHEM_ATOM_DEF_STEREO_COUNT>
0

> <PUBCHEM_ATOM_UDEF_STEREO_COUNT>
0

> <PUBCHEM_BOND_DEF_STEREO_COUNT>
0

> <PUBCHEM_BOND_UDEF_STEREO_COUNT>
0

> <PUBCHEM_ISOTOPIC_ATOM_COUNT>
0

> <PUBCHEM_COMPONENT_COUNT>
1

> <PUBCHEM_CACTVS_TAUTO_COUNT>
86

> <PUBCHEM_CONFORMER_ID>
02F85C4B00000001

> <PUBCHEM_MMFF94_ENERGY>
88.5585

> <PUBCHEM_FEATURE_SELFOVERLAP>
50.791

> <PUBCHEM_SHAPE_FINGERPRINT>
11045515 52 18266179418106417098
11049842 53 17979906430698734360
11445158 3 18343015602007518071
11763715 3 17977975409007362518
12160290 23 17263256459715694899
12717326 69 11815598831835114469
12788726 201 17469315942372112331
13540713 5 18059870454570874713
14117953 113 18338799031229703460
14508225 48 18267862783272357931
14556957 393 18046654234252147494
15198563 99 18122910819914231596
15439362 3 18338231691033533461
15775530 1 17973171913104225123
15950262 2 15215293281754098716
16988056 13 18336251384592492645
17899979 19 18334020523429950068
1813 80 18341601569365440723
18785283 64 18263643029464842211
20101258 96 18193853547890094569
21344244 246 18340204184791919814
21365058 113 18410014295452949343
21641784 216 18196387917982001662
23559900 14 18335979844249540763
24771750 20 18119538879486468878
25147074 1 17918004867179680561
3388396 114 18121252860133831710
4015057 19 18334868199054473235
4017518 198 18055636360105154228
4046055 25 18196373615361013279
4394409 98 18046639073297517916
46194498 28 18261100911737548165
5081480 168 18261940874397146189
59444896 2 17556340286129482857
6669772 16 18124598836477161884

> <PUBCHEM_SHAPE_MULTIPOLES>
555.81
12.83
6.28
1.37
18.25
7.01
0.01
-10.77
5.62
-12.75
2
0.74
0.81
-0.11

> <PUBCHEM_SHAPE_SELFOVERLAP>
1200.895

> <PUBCHEM_SHAPE_VOLUME>
306.5

> <PUBCHEM_COORDINATE_TYPE>
2
5
10

$$$$
