49830835
  -OEChem-10052120443D

 28 29  0     0  0  0  0  0  0999 V2000
    1.8486    0.6153   -0.1077 N   0  0  0  0  0  0  0  0  0  0  0  0
   -0.1458   -2.1718   -0.1531 N   0  0  0  0  0  0  0  0  0  0  0  0
    1.0945   -1.6557   -0.1773 N   0  0  0  0  0  0  0  0  0  0  0  0
   -3.4228    2.2440    0.1643 N   0  0  0  0  0  0  0  0  0  0  0  0
    3.2804    0.3442   -0.1739 C   0  0  0  0  0  0  0  0  0  0  0  0
   -0.4890   -0.0086   -0.0458 C   0  0  0  0  0  0  0  0  0  0  0  0
    0.8815   -0.3395   -0.1123 C   0  0  0  0  0  0  0  0  0  0  0  0
   -1.1416   -1.2360   -0.0744 C   0  0  0  0  0  0  0  0  0  0  0  0
   -1.2463    1.1718    0.0343 C   0  0  0  0  0  0  0  0  0  0  0  0
    4.0113    1.5866   -0.6661 C   0  0  0  0  0  0  0  0  0  0  0  0
    3.7748   -0.0819    1.2021 C   0  0  0  0  0  0  0  0  0  0  0  0
   -2.5318   -1.3607   -0.0266 C   0  0  0  0  0  0  0  0  0  0  0  0
   -2.6421    1.0690    0.0834 C   0  0  0  0  0  0  0  0  0  0  0  0
   -3.2718   -0.1766    0.0534 C   0  0  0  0  0  0  0  0  0  0  0  0
    3.4732   -0.4623   -0.8925 H   0  0  0  0  0  0  0  0  0  0  0  0
    1.5962    1.5963   -0.0101 H   0  0  0  0  0  0  0  0  0  0  0  0
   -0.7597    2.1429    0.0578 H   0  0  0  0  0  0  0  0  0  0  0  0
    3.8637    2.4338    0.0132 H   0  0  0  0  0  0  0  0  0  0  0  0
    3.6444    1.8878   -1.6535 H   0  0  0  0  0  0  0  0  0  0  0  0
    5.0873    1.4002   -0.7471 H   0  0  0  0  0  0  0  0  0  0  0  0
    3.5766    0.6913    1.9531 H   0  0  0  0  0  0  0  0  0  0  0  0
    3.2849   -1.0010    1.5399 H   0  0  0  0  0  0  0  0  0  0  0  0
    4.8538   -0.2685    1.1857 H   0  0  0  0  0  0  0  0  0  0  0  0
   -0.2452   -3.1784   -0.1932 H   0  0  0  0  0  0  0  0  0  0  0  0
   -3.0190   -2.3291   -0.0501 H   0  0  0  0  0  0  0  0  0  0  0  0
   -4.3573   -0.2423    0.0921 H   0  0  0  0  0  0  0  0  0  0  0  0
   -2.9729    3.1495    0.1865 H   0  0  0  0  0  0  0  0  0  0  0  0
   -4.4314    2.1797    0.2003 H   0  0  0  0  0  0  0  0  0  0  0  0
  1  5  1  0  0  0  0
  1  7  1  0  0  0  0
  1 16  1  0  0  0  0
  2  3  1  0  0  0  0
  2  8  1  0  0  0  0
  2 24  1  0  0  0  0
  3  7  2  0  0  0  0
  4 13  1  0  0  0  0
  4 27  1  0  0  0  0
  4 28  1  0  0  0  0
  5 10  1  0  0  0  0
  5 11  1  0  0  0  0
  5 15  1  0  0  0  0
  6  7  1  0  0  0  0
  6  8  2  0  0  0  0
  6  9  1  0  0  0  0
  8 12  1  0  0  0  0
  9 13  2  0  0  0  0
  9 17  1  0  0  0  0
 10 18  1  0  0  0  0
 10 19  1  0  0  0  0
 10 20  1  0  0  0  0
 11 21  1  0  0  0  0
 11 22  1  0  0  0  0
 11 23  1  0  0  0  0
 12 14  2  0  0  0  0
 12 25  1  0  0  0  0
 13 14  1  0  0  0  0
 14 26  1  0  0  0  0
M  END
> <PUBCHEM_COMPOUND_CID>
49830835

> <PUBCHEM_CONFORMER_RMSD>
0.6

> <PUBCHEM_CONFORMER_DIVERSEORDER>
1
6
5
2
4
3

> <PUBCHEM_MMFF94_PARTIAL_CHARGES>
18
1 -0.85
12 -0.15
13 0.1
14 -0.15
16 0.4
17 0.15
2 0.3
24 0.27
25 0.15
26 0.15
27 0.4
28 0.4
3 -0.71
4 -0.9
5 0.37
7 0.37
8 -0.15
9 -0.15

> <PUBCHEM_EFFECTIVE_ROTOR_COUNT>
2

> <PUBCHEM_PHARMACOPHORE_FEATURES>
8
1 1 donor
1 2 donor
1 4 cation
1 4 donor
3 1 3 7 cation
3 5 10 11 hydrophobe
5 2 3 6 7 8 rings
6 6 8 9 12 13 14 rings

> <PUBCHEM_HEAVY_ATOM_COUNT>
14

> <PUBCHEM_ATOM_DEF_STEREO_COUNT>
0

> <PUBCHEM_ATOM_UDEF_STEREO_COUNT>
0

> <PUBCHEM_BOND_DEF_STEREO_COUNT>
0

> <PUBCHEM_BOND_UDEF_STEREO_COUNT>
0

> <PUBCHEM_ISOTOPIC_ATOM_COUNT>
0

> <PUBCHEM_COMPONENT_COUNT>
1

> <PUBCHEM_CACTVS_TAUTO_COUNT>
18

> <PUBCHEM_CONFORMER_ID>
02F85BB300000001

> <PUBCHEM_MMFF94_ENERGY>
33.847

> <PUBCHEM_FEATURE_SELFOVERLAP>
40.687

> <PUBCHEM_SHAPE_FINGERPRINT>
10608611 8 18413389821682674012
11132069 177 18411978048678730688
12173636 292 18339640161001677412
12346645 44 18409451388079746886
12932764 1 17417809586588857990
13380535 21 18341905034658816527
13380535 76 18410570656805348639
14144814 61 18335137630973962144
14325111 11 18410576188738757844
14614273 12 18261667091527397165
14897335 6 18340200783124775111
15219456 202 18272376317175031943
15536298 74 18271526382044588670
15669948 3 18268145547145517406
15775835 57 18333453157638120864
16945 1 18341048631017553231
1741750 31 18201158741763015273
17834072 32 18409452474765294237
17846911 113 18342452647115153993
18186145 218 17275109452829508432
19422 9 18040992973249825482
20510252 161 18271251628411783840
20645477 56 18199753707900440672
21501502 16 18339074895950256259
21524375 3 18411130312323467215
22485316 2 9655579595573016044
23402539 116 18341321305959826063
23402655 69 18199454482177479869
23463225 33 18334007277228277090
23557571 272 17845387676951277079
23559900 14 18202289074666743236
2748010 2 18267596719007655119
305870 269 18262798467048400771
3071541 12 18052545369681382559
53812653 166 18272928306392857105
6333449 129 18342455958782754965
7364860 26 18055915385790034806
77492 1 17894906369336108824
90316 7 17895177879820543980

> <PUBCHEM_SHAPE_MULTIPOLES>
268.19
6.85
2
0.75
4.43
0.04
0.11
3.13
0.47
-1.08
-0.13
0.55
0.03
-0.52

> <PUBCHEM_SHAPE_SELFOVERLAP>
572.061

> <PUBCHEM_SHAPE_VOLUME>
151.2

> <PUBCHEM_COORDINATE_TYPE>
2
5
10

$$$$
