49830378
  -OEChem-10052115183D

 51 54  0     0  0  0  0  0  0999 V2000
   -7.3493   -1.5053    1.1682 S   0  0  0  0  0  0  0  0  0  0  0  0
   -3.2202    0.9155    1.1262 O   0  0  0  0  0  0  0  0  0  0  0  0
    3.3937    0.6869    0.4435 O   0  0  0  0  0  0  0  0  0  0  0  0
   -2.8693   -1.1845    0.1397 N   0  0  0  0  0  0  0  0  0  0  0  0
    4.9487   -0.8470   -0.3919 N   0  0  0  0  0  0  0  0  0  0  0  0
    2.6995   -1.3720   -0.4330 N   0  0  0  0  0  0  0  0  0  0  0  0
   -8.4984    0.4179   -0.2736 N   0  0  0  0  0  0  0  0  0  0  0  0
   -7.1127    2.1336   -1.2811 N   0  0  0  0  0  0  0  0  0  0  0  0
   -4.7524    2.1838   -1.0413 N   0  0  0  0  0  0  0  0  0  0  0  0
   -5.0930   -0.3857    0.6668 C   0  0  0  0  0  0  0  0  0  0  0  0
   -6.0760    0.4170    0.0070 C   0  0  0  0  0  0  0  0  0  0  0  0
    6.1799   -0.1781   -0.1956 C   0  0  0  0  0  0  0  0  0  0  0  0
    7.4127    1.7515    0.5749 C   0  0  0  0  0  0  0  0  0  0  0  0
    8.5879   -0.1282   -0.3857 C   0  0  0  0  0  0  0  0  0  0  0  0
   -1.4610   -1.2326   -0.0047 C   0  0  0  0  0  0  0  0  0  0  0  0
    7.3743   -0.7881   -0.5791 C   0  0  0  0  0  0  0  0  0  0  0  0
    6.1992    1.0916    0.3814 C   0  0  0  0  0  0  0  0  0  0  0  0
   -7.3505   -0.0965    0.2092 C   0  0  0  0  0  0  0  0  0  0  0  0
   -3.6695   -0.1584    0.6765 C   0  0  0  0  0  0  0  0  0  0  0  0
    8.6071    1.1416    0.1913 C   0  0  0  0  0  0  0  0  0  0  0  0
    1.3126   -1.3259   -0.2899 C   0  0  0  0  0  0  0  0  0  0  0  0
   -5.6472   -1.4577    1.3321 C   0  0  0  0  0  0  0  0  0  0  0  0
   -5.9935    1.5757   -0.7721 C   0  0  0  0  0  0  0  0  0  0  0  0
   -0.6800   -0.1566    0.4171 C   0  0  0  0  0  0  0  0  0  0  0  0
   -0.8552   -2.3552   -0.5692 C   0  0  0  0  0  0  0  0  0  0  0  0
    0.7068   -0.2033    0.2747 C   0  0  0  0  0  0  0  0  0  0  0  0
    0.5315   -2.4018   -0.7118 C   0  0  0  0  0  0  0  0  0  0  0  0
    7.4339    3.1092    1.1917 C   0  0  0  0  0  0  0  0  0  0  0  0
    9.8650   -0.7803   -0.7957 C   0  0  0  0  0  0  0  0  0  0  0  0
    3.6586   -0.3943   -0.0722 C   0  0  0  0  0  0  0  0  0  0  0  0
   -8.2834    1.5271   -1.0035 C   0  0  0  0  0  0  0  0  0  0  0  0
    7.3604   -1.7790   -1.0274 H   0  0  0  0  0  0  0  0  0  0  0  0
    5.3125    1.6215    0.6990 H   0  0  0  0  0  0  0  0  0  0  0  0
    9.5542    1.6544    0.3415 H   0  0  0  0  0  0  0  0  0  0  0  0
   -3.3567   -2.0100   -0.2034 H   0  0  0  0  0  0  0  0  0  0  0  0
   -5.1407   -2.2185    1.9105 H   0  0  0  0  0  0  0  0  0  0  0  0
   -1.0767    0.7448    0.8621 H   0  0  0  0  0  0  0  0  0  0  0  0
   -1.4522   -3.2003   -0.9021 H   0  0  0  0  0  0  0  0  0  0  0  0
    5.0166   -1.7680   -0.8176 H   0  0  0  0  0  0  0  0  0  0  0  0
    1.2415    0.6680    0.6249 H   0  0  0  0  0  0  0  0  0  0  0  0
    0.9902   -3.2828   -1.1536 H   0  0  0  0  0  0  0  0  0  0  0  0
    3.0673   -2.2223   -0.8528 H   0  0  0  0  0  0  0  0  0  0  0  0
    7.1316    3.8612    0.4559 H   0  0  0  0  0  0  0  0  0  0  0  0
    6.7530    3.1563    2.0484 H   0  0  0  0  0  0  0  0  0  0  0  0
    8.4320    3.3702    1.5596 H   0  0  0  0  0  0  0  0  0  0  0  0
   10.2722   -1.3644    0.0355 H   0  0  0  0  0  0  0  0  0  0  0  0
    9.7120   -1.4469   -1.6512 H   0  0  0  0  0  0  0  0  0  0  0  0
   10.6090   -0.0360   -1.0995 H   0  0  0  0  0  0  0  0  0  0  0  0
   -9.1671    1.9945   -1.4237 H   0  0  0  0  0  0  0  0  0  0  0  0
   -4.7409    3.0202   -1.6101 H   0  0  0  0  0  0  0  0  0  0  0  0
   -3.8835    1.8064   -0.6968 H   0  0  0  0  0  0  0  0  0  0  0  0
  1 18  1  0  0  0  0
  1 22  1  0  0  0  0
  2 19  2  0  0  0  0
  3 30  2  0  0  0  0
  4 15  1  0  0  0  0
  4 19  1  0  0  0  0
  4 35  1  0  0  0  0
  5 12  1  0  0  0  0
  5 30  1  0  0  0  0
  5 39  1  0  0  0  0
  6 21  1  0  0  0  0
  6 30  1  0  0  0  0
  6 42  1  0  0  0  0
  7 18  2  0  0  0  0
  7 31  1  0  0  0  0
  8 23  1  0  0  0  0
  8 31  2  0  0  0  0
  9 23  1  0  0  0  0
  9 50  1  0  0  0  0
  9 51  1  0  0  0  0
 10 11  1  0  0  0  0
 10 19  1  0  0  0  0
 10 22  2  0  0  0  0
 11 18  1  0  0  0  0
 11 23  2  0  0  0  0
 12 16  2  0  0  0  0
 12 17  1  0  0  0  0
 13 17  2  0  0  0  0
 13 20  1  0  0  0  0
 13 28  1  0  0  0  0
 14 16  1  0  0  0  0
 14 20  2  0  0  0  0
 14 29  1  0  0  0  0
 15 24  2  0  0  0  0
 15 25  1  0  0  0  0
 16 32  1  0  0  0  0
 17 33  1  0  0  0  0
 20 34  1  0  0  0  0
 21 26  2  0  0  0  0
 21 27  1  0  0  0  0
 22 36  1  0  0  0  0
 24 26  1  0  0  0  0
 24 37  1  0  0  0  0
 25 27  2  0  0  0  0
 25 38  1  0  0  0  0
 26 40  1  0  0  0  0
 27 41  1  0  0  0  0
 28 43  1  0  0  0  0
 28 44  1  0  0  0  0
 28 45  1  0  0  0  0
 29 46  1  0  0  0  0
 29 47  1  0  0  0  0
 29 48  1  0  0  0  0
 31 49  1  0  0  0  0
M  END
> <PUBCHEM_COMPOUND_CID>
49830378

> <PUBCHEM_CONFORMER_RMSD>
1

> <PUBCHEM_CONFORMER_DIVERSEORDER>
1
16
23
15
11
3
21
5
7
20
8
18
9
24
10
19
4
2
17
13
22
25
6
14
12

> <PUBCHEM_MMFF94_PARTIAL_CHARGES>
44
1 -0.08
10 -0.09
12 0.12
13 -0.14
14 -0.14
15 0.12
16 -0.15
17 -0.15
18 0.3
19 0.72
2 -0.57
20 -0.15
21 0.12
22 -0.11
23 0.41
24 -0.15
25 -0.15
26 -0.15
27 -0.15
28 0.14
29 0.14
3 -0.57
30 0.69
31 0.47
32 0.15
33 0.15
34 0.15
35 0.37
36 0.15
37 0.15
38 0.15
39 0.37
4 -0.55
40 0.15
41 0.15
42 0.37
49 0.15
5 -0.55
50 0.4
51 0.4
6 -0.55
7 -0.57
8 -0.62
9 -0.9

> <PUBCHEM_EFFECTIVE_ROTOR_COUNT>
7

> <PUBCHEM_PHARMACOPHORE_FEATURES>
13
1 2 acceptor
1 3 acceptor
1 4 donor
1 5 donor
1 6 donor
1 7 acceptor
1 9 cation
1 9 donor
3 7 8 31 cation
5 1 10 11 18 22 rings
6 12 13 14 16 17 20 rings
6 15 21 24 25 26 27 rings
6 7 8 11 18 23 31 rings

> <PUBCHEM_HEAVY_ATOM_COUNT>
31

> <PUBCHEM_ATOM_DEF_STEREO_COUNT>
0

> <PUBCHEM_ATOM_UDEF_STEREO_COUNT>
0

> <PUBCHEM_BOND_DEF_STEREO_COUNT>
0

> <PUBCHEM_BOND_UDEF_STEREO_COUNT>
0

> <PUBCHEM_ISOTOPIC_ATOM_COUNT>
0

> <PUBCHEM_COMPONENT_COUNT>
1

> <PUBCHEM_CACTVS_TAUTO_COUNT>
24

> <PUBCHEM_CONFORMER_ID>
02F859EA00000001

> <PUBCHEM_MMFF94_ENERGY>
100.1535

> <PUBCHEM_FEATURE_SELFOVERLAP>
66.101

> <PUBCHEM_SHAPE_FINGERPRINT>
10 15 18334575745940659595
10299344 5 13901907795600143727
10625338 131 18339634552070203912
10669705 176 18343866614889830534
10835480 77 18336264540720254861
11135926 11 17561370565175877759
11315181 36 18272654537663369107
12013929 2 18261112933899986282
12089408 11 16370445570889172250
12838862 33 18130495388930822514
14251764 46 18131636677136066563
14344974 52 18412258459574177373
14856354 85 13686294691397563497
150020 25 18410572872945299792
15183329 4 16487252162205094534
15289351 153 18271243825358352090
15301273 46 18186239520231090894
15840311 113 18337113458360713292
15849732 13 18409169926293874110
16758388 162 18336818716308951874
1754911 235 18131631179482742013
17899979 19 18411702097278493489
1818759 1 8502375550948416816
18335252 114 17846778516796387496
21150785 3 15698000730055550174
21792934 111 18201994435958265976
21792961 116 18201723916562236970
23576562 1 18129088095382953917
249057 3 14979951493135094210
335352 9 18131637790423737038
437795 83 18059293154863334761
4403749 210 18337109064235123131
44280117 145 18341332297519731679
4625314 4 18342459261892609238
5219985 9 14634868669415106006
54039377 194 9511456732227221499
6081469 158 18342177748714698164
636775 72 18335419012137515725
9689198 14 18334294284159795058

> <PUBCHEM_SHAPE_MULTIPOLES>
600.19
34.63
2.39
1.06
26.9
0.79
0.07
14.09
-1.94
0.2
-0.15
-1.09
0.21
4.27

> <PUBCHEM_SHAPE_SELFOVERLAP>
1304.055

> <PUBCHEM_SHAPE_VOLUME>
328.1

> <PUBCHEM_COORDINATE_TYPE>
2
5
10

$$$$
