42629114
  -OEChem-10062122023D

 49 53  0     0  0  0  0  0  0999 V2000
    4.5834   -0.1919    1.4707 S   0  0  0  0  0  0  0  0  0  0  0  0
    2.3529    1.1937    0.7365 O   0  0  0  0  0  0  0  0  0  0  0  0
   -3.5164   -3.7555    1.2240 O   0  0  0  0  0  0  0  0  0  0  0  0
   -2.7228    1.5580   -0.1460 N   0  0  0  0  0  0  0  0  0  0  0  0
   -3.2180    3.6224   -0.8040 N   0  0  0  0  0  0  0  0  0  0  0  0
    3.2260    3.2077    0.3054 N   0  0  0  0  0  0  0  0  0  0  0  0
    4.2546    2.3714    0.6975 N   0  0  0  0  0  0  0  0  0  0  0  0
   -1.1749   -2.4290   -2.2478 N   0  0  0  0  0  0  0  0  0  0  0  0
   -1.5306    2.2357   -0.1536 C   0  0  0  0  0  0  0  0  0  0  0  0
   -1.8662    3.5217   -0.5675 C   0  0  0  0  0  0  0  0  0  0  0  0
   -2.9228    0.2226    0.1989 C   0  0  0  0  0  0  0  0  0  0  0  0
   -0.2273    1.8460    0.1568 C   0  0  0  0  0  0  0  0  0  0  0  0
    0.7673    2.8220    0.0350 C   0  0  0  0  0  0  0  0  0  0  0  0
   -3.7000    2.4282   -0.5418 C   0  0  0  0  0  0  0  0  0  0  0  0
   -0.8543    4.4895   -0.6844 C   0  0  0  0  0  0  0  0  0  0  0  0
    0.4616    4.1209   -0.3779 C   0  0  0  0  0  0  0  0  0  0  0  0
   -3.9581   -0.5025   -0.3912 C   0  0  0  0  0  0  0  0  0  0  0  0
   -2.0869   -0.3893    1.1329 C   0  0  0  0  0  0  0  0  0  0  0  0
    2.1355    2.4783    0.3427 C   0  0  0  0  0  0  0  0  0  0  0  0
   -4.1574   -1.8395   -0.0473 C   0  0  0  0  0  0  0  0  0  0  0  0
   -2.2861   -1.7262    1.4769 C   0  0  0  0  0  0  0  0  0  0  0  0
   -3.3213   -2.4513    0.8870 C   0  0  0  0  0  0  0  0  0  0  0  0
    3.2860   -1.4650    1.6277 C   0  0  0  0  0  0  0  0  0  0  0  0
    2.9191   -2.0681    0.2998 C   0  0  0  0  0  0  0  0  0  0  0  0
    3.6989    1.2071    0.9392 C   0  0  0  0  0  0  0  0  0  0  0  0
    1.6039   -1.9993   -0.1597 C   0  0  0  0  0  0  0  0  0  0  0  0
    3.8956   -2.6971   -0.4723 C   0  0  0  0  0  0  0  0  0  0  0  0
    1.2653   -2.5594   -1.3914 C   0  0  0  0  0  0  0  0  0  0  0  0
    3.5570   -3.2573   -1.7042 C   0  0  0  0  0  0  0  0  0  0  0  0
    2.2419   -3.1885   -2.1637 C   0  0  0  0  0  0  0  0  0  0  0  0
   -2.6246   -4.3177    2.1857 C   0  0  0  0  0  0  0  0  0  0  0  0
   -0.0812   -2.4875   -1.8640 C   0  0  0  0  0  0  0  0  0  0  0  0
    0.0310    0.8272    0.4056 H   0  0  0  0  0  0  0  0  0  0  0  0
   -4.7476    2.1655   -0.6104 H   0  0  0  0  0  0  0  0  0  0  0  0
   -1.0819    5.5013   -1.0044 H   0  0  0  0  0  0  0  0  0  0  0  0
    1.2404    4.8753   -0.4704 H   0  0  0  0  0  0  0  0  0  0  0  0
   -4.6165   -0.0655   -1.1370 H   0  0  0  0  0  0  0  0  0  0  0  0
   -1.3432    0.1492    1.7086 H   0  0  0  0  0  0  0  0  0  0  0  0
   -4.9626   -2.4010   -0.5132 H   0  0  0  0  0  0  0  0  0  0  0  0
   -1.6157   -2.1327    2.2267 H   0  0  0  0  0  0  0  0  0  0  0  0
    2.4146   -1.0429    2.1405 H   0  0  0  0  0  0  0  0  0  0  0  0
    3.6702   -2.2606    2.2766 H   0  0  0  0  0  0  0  0  0  0  0  0
    0.8434   -1.5132    0.4459 H   0  0  0  0  0  0  0  0  0  0  0  0
    4.9228   -2.7738   -0.1261 H   0  0  0  0  0  0  0  0  0  0  0  0
    4.3168   -3.7498   -2.3040 H   0  0  0  0  0  0  0  0  0  0  0  0
    1.9935   -3.6302   -3.1258 H   0  0  0  0  0  0  0  0  0  0  0  0
   -2.9206   -5.3620    2.3292 H   0  0  0  0  0  0  0  0  0  0  0  0
   -2.7178   -3.8224    3.1581 H   0  0  0  0  0  0  0  0  0  0  0  0
   -1.5918   -4.3254    1.8207 H   0  0  0  0  0  0  0  0  0  0  0  0
  1 23  1  0  0  0  0
  1 25  1  0  0  0  0
  2 19  1  0  0  0  0
  2 25  1  0  0  0  0
  3 22  1  0  0  0  0
  3 31  1  0  0  0  0
  4  9  1  0  0  0  0
  4 11  1  0  0  0  0
  4 14  1  0  0  0  0
  5 10  1  0  0  0  0
  5 14  2  0  0  0  0
  6  7  1  0  0  0  0
  6 19  2  0  0  0  0
  7 25  2  0  0  0  0
  8 32  3  0  0  0  0
  9 10  2  0  0  0  0
  9 12  1  0  0  0  0
 10 15  1  0  0  0  0
 11 17  2  0  0  0  0
 11 18  1  0  0  0  0
 12 13  2  0  0  0  0
 12 33  1  0  0  0  0
 13 16  1  0  0  0  0
 13 19  1  0  0  0  0
 14 34  1  0  0  0  0
 15 16  2  0  0  0  0
 15 35  1  0  0  0  0
 16 36  1  0  0  0  0
 17 20  1  0  0  0  0
 17 37  1  0  0  0  0
 18 21  2  0  0  0  0
 18 38  1  0  0  0  0
 20 22  2  0  0  0  0
 20 39  1  0  0  0  0
 21 22  1  0  0  0  0
 21 40  1  0  0  0  0
 23 24  1  0  0  0  0
 23 41  1  0  0  0  0
 23 42  1  0  0  0  0
 24 26  2  0  0  0  0
 24 27  1  0  0  0  0
 26 28  1  0  0  0  0
 26 43  1  0  0  0  0
 27 29  2  0  0  0  0
 27 44  1  0  0  0  0
 28 30  2  0  0  0  0
 28 32  1  0  0  0  0
 29 30  1  0  0  0  0
 29 45  1  0  0  0  0
 30 46  1  0  0  0  0
 31 47  1  0  0  0  0
 31 48  1  0  0  0  0
 31 49  1  0  0  0  0
M  END
> <PUBCHEM_COMPOUND_CID>
42629114

> <PUBCHEM_CONFORMER_RMSD>
0.8

> <PUBCHEM_CONFORMER_DIVERSEORDER>
1
384
353
68
296
57
76
258
211
55
77
20
315
118
302
243
319
170
117
352
94
312
64
42
131
347
4
143
151
97
189
112
130
217
129
264
310
139
394
3
362
164
6
99
48
9
368
265
93
33
30
138
252
110
213
56
289
239
225
17
115
279
276
135
160
238
74
27
41
175
196
165
161
38
212
79
378
179
67
26
391
203
37
124
229
28
45
270
18
398
51
377
63
295
359
267
167
215
96
148
388
162
355
320
381
104
259
227
176
14
72
60
380
197
61
85
132
387
36
288
307
290
168
5
89
174
171
35
369
70
216
299
22
335
8
86
106
260
205
87
208
126
262
245
285
247
69
241
250
108
223
333
187
287
192
200
386
39
330
81
119
350
23
393
88
266
395
244
214
292
358
294
71
177
182
334
163
19
123
207
140
382
323
328
322
156
346
181
373
221
25
107
338
204
397
149
59
152
52
127
337
145
134
188
102
230
190
155
47
195
286
105
24
371
311
40
153
304
159
58
219
95
194
228
220
66
186
32
254
222
103
349
314
268
344
202
83
237
53
113
343
372
173
50
272
326
75
253
10
348
363
251
316
351
325
218
90
331
191
125
80
269
249
193
327
136
305
284
354
308
46
273
178
54
201
389
101
154
291
180
84
366
34
13
116
367
128
246
7
360
340
233
396
231
98
361
157
78
147
321
345
121
16
376
210
309
137
206
261
44
298
91
236
146
122
242
2
183
370
278
144
235
49
300
282
332
169
339
342
31
43
275
281
318
280
317
166
12
198
133
172
185
364
390
184
400
29
375
301
65
111
392
383
329
356
158
92
114
209
15
62
257
365
357
324
240
313
109
306
283
73
274
224
11
271
248
120
379
341
199
232
255
141
263
100
226
303
21
150
385
256
399
293
374
336
297
82
277
234
142

> <PUBCHEM_MMFF94_PARTIAL_CHARGES>
44
1 -0.29
10 0.23
11 -0.02
12 -0.15
13 0.05
14 0.04
15 -0.15
16 -0.15
17 -0.15
18 -0.15
19 0.43
2 -0.28
20 -0.15
21 -0.15
22 0.08
23 0.37
24 -0.14
25 0.53
26 -0.15
27 -0.15
28 0.07
29 -0.15
3 -0.36
30 -0.15
31 0.28
32 0.48
33 0.15
34 0.15
35 0.15
36 0.15
37 0.15
38 0.15
39 0.15
4 0.33
40 0.15
43 0.15
44 0.15
45 0.15
46 0.15
5 -0.57
6 -0.34
7 -0.34
8 -0.56
9 -0.15

> <PUBCHEM_EFFECTIVE_ROTOR_COUNT>
6

> <PUBCHEM_PHARMACOPHORE_FEATURES>
8
1 3 acceptor
1 8 acceptor
3 4 5 14 cation
5 2 6 7 19 25 rings
5 4 5 9 10 14 rings
6 11 17 18 20 21 22 rings
6 24 26 27 28 29 30 rings
6 9 10 12 13 15 16 rings

> <PUBCHEM_HEAVY_ATOM_COUNT>
32

> <PUBCHEM_ATOM_DEF_STEREO_COUNT>
0

> <PUBCHEM_ATOM_UDEF_STEREO_COUNT>
0

> <PUBCHEM_BOND_DEF_STEREO_COUNT>
0

> <PUBCHEM_BOND_UDEF_STEREO_COUNT>
0

> <PUBCHEM_ISOTOPIC_ATOM_COUNT>
0

> <PUBCHEM_COMPONENT_COUNT>
1

> <PUBCHEM_CACTVS_TAUTO_COUNT>
1

> <PUBCHEM_CONFORMER_ID>
028A77FA00000001

> <PUBCHEM_MMFF94_ENERGY>
86.5741

> <PUBCHEM_FEATURE_SELFOVERLAP>
40.706

> <PUBCHEM_SHAPE_FINGERPRINT>
10616163 171 18409442609394071024
10838868 158 18188788231297817386
11285246 1 15895339634058635614
11513181 2 18131061615627897142
12422481 6 18341910562893553025
13383661 66 17839215083482593092
13402501 40 17767679456566823702
1361 2 17841409467804454197
13642711 20 17828169175011132223
140371 6 18335702814590595277
14725015 67 17905317434243730625
14840074 17 18126849536789788019
19319366 153 16814329654857285756
20764821 26 18192712245813789989
22113638 7 17546442740143516176
23559900 14 18125149438637516380
25019877 29 12793972362625786517
255183 313 17769077284160441856
3493558 16 11970443329047155064
42626532 9 18191045451213115242
4403749 210 18124850577992265136
469060 322 17912344726663858639
5047190 2 16684856718441293367
508706 21 18338232648584302718
5309563 4 17975416033752819531
6823239 73 18054504712972380770
9709674 26 18267858393942667808

> <PUBCHEM_SHAPE_MULTIPOLES>
625.75
8.48
7.19
1.79
3.13
1.58
-0.27
-1.88
0.84
-2.73
0.07
0.89
-2.27
4.02

> <PUBCHEM_SHAPE_SELFOVERLAP>
1382.086

> <PUBCHEM_SHAPE_VOLUME>
338.6

> <PUBCHEM_COORDINATE_TYPE>
2
5
10

$$$$
