11847343
  -OEChem-10052115163D

 71 76  0     1  0  0  0  0  0999 V2000
    0.6171   -0.1774    0.1301 S   0  0  0  0  0  0  0  0  0  0  0  0
  -10.3726   -2.4095    1.5776 O   0  0  0  0  0  0  0  0  0  0  0  0
    3.0983   -1.4434    1.0534 O   0  0  0  0  0  0  0  0  0  0  0  0
   -3.8664    2.7645   -2.0598 O   0  0  0  0  0  0  0  0  0  0  0  0
    6.5624    1.3454    1.4888 N   0  0  0  0  0  0  0  0  0  0  0  0
    4.5872   -0.0870   -0.0506 N   0  0  0  0  0  0  0  0  0  0  0  0
   -8.1309   -0.9125    0.7820 N   0  0  0  0  0  0  0  0  0  0  0  0
    0.3947    2.8184   -2.1378 N   0  0  0  0  0  0  0  0  0  0  0  0
   -2.4111    1.3116   -0.9182 N   0  0  0  0  0  0  0  0  0  0  0  0
   -0.9607    2.8212   -2.1032 N   0  0  0  0  0  0  0  0  0  0  0  0
    7.6489    2.3102    1.6557 C   0  0  0  0  0  0  0  0  0  0  0  0
    6.2194    0.9215    2.8460 C   0  0  0  0  0  0  0  0  0  0  0  0
    7.1880    3.1395    2.8451 C   0  0  0  0  0  0  0  0  0  0  0  0
    6.2512    2.2257    3.6293 C   0  0  0  0  0  0  0  0  0  0  0  0
    6.9380    0.2277    0.6358 C   0  0  0  0  0  0  0  0  0  0  0  0
    5.7666   -0.7522    0.4593 C   0  0  2  0  0  0  0  0  0  0  0  0
    6.1463   -1.9193   -0.4301 C   0  0  0  0  0  0  0  0  0  0  0  0
    5.9438   -1.8199   -1.7945 C   0  0  0  0  0  0  0  0  0  0  0  0
    6.6858   -3.0558    0.1442 C   0  0  0  0  0  0  0  0  0  0  0  0
    3.3015   -0.4941    0.2944 C   0  0  0  0  0  0  0  0  0  0  0  0
   -9.4854   -0.4306    0.4901 C   0  0  0  0  0  0  0  0  0  0  0  0
   -8.0165   -2.3605    1.0036 C   0  0  0  0  0  0  0  0  0  0  0  0
    2.2065    0.3018   -0.2780 C   0  0  0  0  0  0  0  0  0  0  0  0
    6.2927   -2.8942   -2.6130 C   0  0  0  0  0  0  0  0  0  0  0  0
    7.0348   -4.1300   -0.6742 C   0  0  0  0  0  0  0  0  0  0  0  0
  -10.4630   -0.9864    1.5197 C   0  0  0  0  0  0  0  0  0  0  0  0
   -9.0720   -2.8130    2.0061 C   0  0  0  0  0  0  0  0  0  0  0  0
   -7.0226   -0.2342    0.2647 C   0  0  0  0  0  0  0  0  0  0  0  0
    6.8383   -4.0493   -2.0528 C   0  0  0  0  0  0  0  0  0  0  0  0
    2.3357    1.3764   -1.0965 C   0  0  0  0  0  0  0  0  0  0  0  0
    1.0377    1.8395   -1.4129 C   0  0  0  0  0  0  0  0  0  0  0  0
    0.0299    1.1181   -0.8378 C   0  0  0  0  0  0  0  0  0  0  0  0
   -7.1250    0.4466   -0.9485 C   0  0  0  0  0  0  0  0  0  0  0  0
   -5.8142   -0.2397    0.9613 C   0  0  0  0  0  0  0  0  0  0  0  0
   -1.1632    1.7641   -1.2955 C   0  0  0  0  0  0  0  0  0  0  0  0
   -4.8364    1.1006   -0.7564 C   0  0  0  0  0  0  0  0  0  0  0  0
   -6.0190    1.1217   -1.4650 C   0  0  0  0  0  0  0  0  0  0  0  0
   -4.7083    0.4355    0.4450 C   0  0  0  0  0  0  0  0  0  0  0  0
   -3.6573    1.8191   -1.3075 C   0  0  0  0  0  0  0  0  0  0  0  0
    8.5992    1.8159    1.8953 H   0  0  0  0  0  0  0  0  0  0  0  0
    7.7924    2.9291    0.7645 H   0  0  0  0  0  0  0  0  0  0  0  0
    6.9607    0.2241    3.2572 H   0  0  0  0  0  0  0  0  0  0  0  0
    5.2276    0.4646    2.9171 H   0  0  0  0  0  0  0  0  0  0  0  0
    8.0340    3.4727    3.4547 H   0  0  0  0  0  0  0  0  0  0  0  0
    6.6428    4.0300    2.5108 H   0  0  0  0  0  0  0  0  0  0  0  0
    5.2525    2.6751    3.6803 H   0  0  0  0  0  0  0  0  0  0  0  0
    6.6020    2.0694    4.6545 H   0  0  0  0  0  0  0  0  0  0  0  0
    7.8136   -0.3022    1.0351 H   0  0  0  0  0  0  0  0  0  0  0  0
    7.2304    0.6183   -0.3485 H   0  0  0  0  0  0  0  0  0  0  0  0
    5.5000   -1.1784    1.4347 H   0  0  0  0  0  0  0  0  0  0  0  0
    4.7337    0.6759   -0.7021 H   0  0  0  0  0  0  0  0  0  0  0  0
    5.5380   -0.9273   -2.2605 H   0  0  0  0  0  0  0  0  0  0  0  0
    6.8451   -3.1274    1.2160 H   0  0  0  0  0  0  0  0  0  0  0  0
   -9.5330    0.6644    0.5172 H   0  0  0  0  0  0  0  0  0  0  0  0
   -9.7818   -0.7710   -0.5097 H   0  0  0  0  0  0  0  0  0  0  0  0
   -8.1710   -2.8721    0.0455 H   0  0  0  0  0  0  0  0  0  0  0  0
   -7.0283   -2.6460    1.3803 H   0  0  0  0  0  0  0  0  0  0  0  0
    6.1437   -2.8300   -3.6869 H   0  0  0  0  0  0  0  0  0  0  0  0
    7.4605   -5.0291   -0.2382 H   0  0  0  0  0  0  0  0  0  0  0  0
  -10.2741   -0.5686    2.5160 H   0  0  0  0  0  0  0  0  0  0  0  0
  -11.4885   -0.7252    1.2400 H   0  0  0  0  0  0  0  0  0  0  0  0
   -9.0679   -3.9047    2.0854 H   0  0  0  0  0  0  0  0  0  0  0  0
   -8.8746   -2.4063    3.0054 H   0  0  0  0  0  0  0  0  0  0  0  0
    7.1112   -4.8852   -2.6902 H   0  0  0  0  0  0  0  0  0  0  0  0
    3.2479    1.8268   -1.4619 H   0  0  0  0  0  0  0  0  0  0  0  0
   -8.0456    0.4588   -1.5251 H   0  0  0  0  0  0  0  0  0  0  0  0
   -5.7215   -0.7460    1.9187 H   0  0  0  0  0  0  0  0  0  0  0  0
   -6.1138    1.6386   -2.4153 H   0  0  0  0  0  0  0  0  0  0  0  0
   -3.8026    0.4414    1.0418 H   0  0  0  0  0  0  0  0  0  0  0  0
    0.8652    3.5263   -2.6876 H   0  0  0  0  0  0  0  0  0  0  0  0
   -2.3769    0.4815   -0.3338 H   0  0  0  0  0  0  0  0  0  0  0  0
  1 23  1  0  0  0  0
  1 32  1  0  0  0  0
  2 26  1  0  0  0  0
  2 27  1  0  0  0  0
  3 20  2  0  0  0  0
  4 39  2  0  0  0  0
  5 11  1  0  0  0  0
  5 12  1  0  0  0  0
  5 15  1  0  0  0  0
  6 16  1  0  0  0  0
  6 20  1  0  0  0  0
  6 51  1  0  0  0  0
  7 21  1  0  0  0  0
  7 22  1  0  0  0  0
  7 28  1  0  0  0  0
  8 10  1  0  0  0  0
  8 31  1  0  0  0  0
  8 70  1  0  0  0  0
  9 35  1  0  0  0  0
  9 39  1  0  0  0  0
  9 71  1  0  0  0  0
 10 35  2  0  0  0  0
 11 13  1  0  0  0  0
 11 40  1  0  0  0  0
 11 41  1  0  0  0  0
 12 14  1  0  0  0  0
 12 42  1  0  0  0  0
 12 43  1  0  0  0  0
 13 14  1  0  0  0  0
 13 44  1  0  0  0  0
 13 45  1  0  0  0  0
 14 46  1  0  0  0  0
 14 47  1  0  0  0  0
 15 16  1  0  0  0  0
 15 48  1  0  0  0  0
 15 49  1  0  0  0  0
 16 17  1  0  0  0  0
 16 50  1  0  0  0  0
 17 18  2  0  0  0  0
 17 19  1  0  0  0  0
 18 24  1  0  0  0  0
 18 52  1  0  0  0  0
 19 25  2  0  0  0  0
 19 53  1  0  0  0  0
 20 23  1  0  0  0  0
 21 26  1  0  0  0  0
 21 54  1  0  0  0  0
 21 55  1  0  0  0  0
 22 27  1  0  0  0  0
 22 56  1  0  0  0  0
 22 57  1  0  0  0  0
 23 30  2  0  0  0  0
 24 29  2  0  0  0  0
 24 58  1  0  0  0  0
 25 29  1  0  0  0  0
 25 59  1  0  0  0  0
 26 60  1  0  0  0  0
 26 61  1  0  0  0  0
 27 62  1  0  0  0  0
 27 63  1  0  0  0  0
 28 33  2  0  0  0  0
 28 34  1  0  0  0  0
 29 64  1  0  0  0  0
 30 31  1  0  0  0  0
 30 65  1  0  0  0  0
 31 32  2  0  0  0  0
 32 35  1  0  0  0  0
 33 37  1  0  0  0  0
 33 66  1  0  0  0  0
 34 38  2  0  0  0  0
 34 67  1  0  0  0  0
 36 37  2  0  0  0  0
 36 38  1  0  0  0  0
 36 39  1  0  0  0  0
 37 68  1  0  0  0  0
 38 69  1  0  0  0  0
M  END
> <PUBCHEM_COMPOUND_CID>
11847343

> <PUBCHEM_CONFORMER_RMSD>
1.2

> <PUBCHEM_CONFORMER_DIVERSEORDER>
1
14
5
18
17
6
15
37
45
19
40
3
12
34
26
2
41
39
30
29
10
11
24
25
22
21
27
9
23
28
4
31
33
7
43
32
42
13
8
36
16
44
35
38
20

> <PUBCHEM_MMFF94_PARTIAL_CHARGES>
50
1 -0.11
10 -0.71
11 0.27
12 0.27
15 0.27
16 0.44
17 -0.14
18 -0.15
19 -0.15
2 -0.56
20 0.71
21 0.37
22 0.37
23 -0.05
24 -0.15
25 -0.15
26 0.28
27 0.28
28 0.1
29 -0.15
3 -0.57
30 -0.16
31 -0.05
32 0.08
33 -0.15
34 -0.15
35 0.34
36 0.09
37 -0.15
38 -0.15
39 0.54
4 -0.57
5 -0.81
51 0.37
52 0.15
53 0.15
58 0.15
59 0.15
6 -0.73
64 0.15
65 0.15
66 0.15
67 0.15
68 0.15
69 0.15
7 -0.84
70 0.27
71 0.37
8 0.21
9 -0.49

> <PUBCHEM_EFFECTIVE_ROTOR_COUNT>
12.2

> <PUBCHEM_PHARMACOPHORE_FEATURES>
14
1 2 acceptor
1 3 acceptor
1 4 acceptor
1 5 cation
1 6 donor
1 7 cation
1 8 donor
1 9 donor
5 1 23 30 31 32 rings
5 5 11 12 13 14 rings
5 8 10 31 32 35 rings
6 17 18 19 24 25 29 rings
6 2 7 21 22 26 27 rings
6 28 33 34 36 37 38 rings

> <PUBCHEM_HEAVY_ATOM_COUNT>
39

> <PUBCHEM_ATOM_DEF_STEREO_COUNT>
1

> <PUBCHEM_ATOM_UDEF_STEREO_COUNT>
0

> <PUBCHEM_BOND_DEF_STEREO_COUNT>
0

> <PUBCHEM_BOND_UDEF_STEREO_COUNT>
0

> <PUBCHEM_ISOTOPIC_ATOM_COUNT>
0

> <PUBCHEM_COMPONENT_COUNT>
1

> <PUBCHEM_CACTVS_TAUTO_COUNT>
19

> <PUBCHEM_CONFORMER_ID>
00B4C6AF00000001

> <PUBCHEM_MMFF94_ENERGY>
103.6945

> <PUBCHEM_FEATURE_SELFOVERLAP>
71.23

> <PUBCHEM_SHAPE_FINGERPRINT>
10162869 55 14273455877893068696
10533779 47 18341059566747938443
10625338 131 12751232597945347487
11409948 8 18188201126475008728
11411753 29 18200029530816656564
11411753 3 18191853545246674140
11607047 74 18042984240590689636
11828532 37 18334854962656070670
12120059 9 18043226033815373087
12758862 56 17675929777392049573
13782708 43 18269267955502236190
15145343 55 16950287312146235258
15392192 104 18335984276819547724
15400415 2 16597286647576241341
15510800 12 18335428941837627647
16067689 302 18188215393570051469
16991971 28 18113910342462844831
19315958 150 18202282537220447650
19841028 212 17676773188593277033
2026 5 18261397698537172895
21130935 74 18116143390153773792
212700 22 18115025320991092571
21362857 166 17313384458016600530
21781055 127 14261345861451995014
21814621 53 18199458883912705712
22002106 203 18115863178768295315
22149856 69 18336832996015440081
23522609 53 15768912706272042956
25242607 90 18113899416683157105
255183 451 17822301197265334845
2747138 104 18334292037486165477
3383291 50 17894911850099800003
44426699 153 18343867727370600872
57359948 33 11455887006312916120
58083652 198 17274240769729702152
9962374 69 17750232672799043765

> <PUBCHEM_SHAPE_MULTIPOLES>
758.96
36.4
4.33
2.82
64.78
2.95
0.81
22.46
22.92
-11.11
-0.33
-2.07
-1.65
12.26

> <PUBCHEM_SHAPE_SELFOVERLAP>
1644.214

> <PUBCHEM_SHAPE_VOLUME>
417.3

> <PUBCHEM_COORDINATE_TYPE>
2
5
10

$$$$
