15986273
  -OEChem-10052115183D

 28 30  0     0  0  0  0  0  0999 V2000
    5.5627    0.8930   -0.0059 Cl  0  0  0  0  0  0  0  0  0  0  0  0
    2.0862   -2.8961   -0.0200 O   0  0  0  0  0  0  0  0  0  0  0  0
   -2.8821    2.5340    1.1018 O   0  0  0  0  0  0  0  0  0  0  0  0
   -0.2444    0.7530    0.0179 N   0  0  0  0  0  0  0  0  0  0  0  0
   -0.0563   -2.2645   -0.0096 N   0  0  0  0  0  0  0  0  0  0  0  0
    1.8053    1.7993    0.0187 N   0  0  0  0  0  0  0  0  0  0  0  0
    3.1668    1.8683    0.0129 N   0  0  0  0  0  0  0  0  0  0  0  0
   -2.9052    2.5519   -1.1912 N   0  0  0  0  0  0  0  0  0  0  0  0
   -1.3249   -0.1255    0.0122 C   0  0  0  0  0  0  0  0  0  0  0  0
   -1.2382   -1.5122   -0.0005 C   0  0  0  0  0  0  0  0  0  0  0  0
   -2.6154    0.4585    0.0211 C   0  0  0  0  0  0  0  0  0  0  0  0
    1.1332    0.6126    0.0111 C   0  0  0  0  0  0  0  0  0  0  0  0
    1.8351   -0.5799   -0.0024 C   0  0  0  0  0  0  0  0  0  0  0  0
   -2.4248   -2.2801   -0.0038 C   0  0  0  0  0  0  0  0  0  0  0  0
    1.2820   -1.9557   -0.0104 C   0  0  0  0  0  0  0  0  0  0  0  0
   -3.7808   -0.3062    0.0176 C   0  0  0  0  0  0  0  0  0  0  0  0
   -3.6843   -1.6858    0.0052 C   0  0  0  0  0  0  0  0  0  0  0  0
    3.2392   -0.5002   -0.0087 C   0  0  0  0  0  0  0  0  0  0  0  0
   -2.8146    1.9072    0.0348 C   0  0  0  0  0  0  0  0  0  0  0  0
    3.8604    0.7285   -0.0008 C   0  0  0  0  0  0  0  0  0  0  0  0
   -0.4946    1.7370    0.0275 H   0  0  0  0  0  0  0  0  0  0  0  0
   -0.2144   -3.2707   -0.0172 H   0  0  0  0  0  0  0  0  0  0  0  0
   -2.3755   -3.3682   -0.0135 H   0  0  0  0  0  0  0  0  0  0  0  0
   -4.7613    0.1622    0.0251 H   0  0  0  0  0  0  0  0  0  0  0  0
   -4.5791   -2.3001    0.0025 H   0  0  0  0  0  0  0  0  0  0  0  0
    3.8598   -1.3930   -0.0194 H   0  0  0  0  0  0  0  0  0  0  0  0
   -2.8427    2.0494   -2.0709 H   0  0  0  0  0  0  0  0  0  0  0  0
   -3.0367    3.5565   -1.2442 H   0  0  0  0  0  0  0  0  0  0  0  0
  1 20  1  0  0  0  0
  2 15  2  0  0  0  0
  3 19  2  0  0  0  0
  4  9  1  0  0  0  0
  4 12  1  0  0  0  0
  4 21  1  0  0  0  0
  5 10  1  0  0  0  0
  5 15  1  0  0  0  0
  5 22  1  0  0  0  0
  6  7  1  0  0  0  0
  6 12  2  0  0  0  0
  7 20  2  0  0  0  0
  8 19  1  0  0  0  0
  8 27  1  0  0  0  0
  8 28  1  0  0  0  0
  9 10  1  0  0  0  0
  9 11  2  0  0  0  0
 10 14  2  0  0  0  0
 11 16  1  0  0  0  0
 11 19  1  0  0  0  0
 12 13  1  0  0  0  0
 13 15  1  0  0  0  0
 13 18  2  0  0  0  0
 14 17  1  0  0  0  0
 14 23  1  0  0  0  0
 16 17  2  0  0  0  0
 16 24  1  0  0  0  0
 17 25  1  0  0  0  0
 18 20  1  0  0  0  0
 18 26  1  0  0  0  0
M  END
> <PUBCHEM_COMPOUND_CID>
15986273

> <PUBCHEM_CONFORMER_RMSD>
0.6

> <PUBCHEM_CONFORMER_DIVERSEORDER>
1
2

> <PUBCHEM_MMFF94_PARTIAL_CHARGES>
28
1 -0.18
10 0.12
11 0.09
12 0.41
13 0.09
14 -0.15
15 0.54
16 -0.15
17 -0.15
18 -0.15
19 0.54
2 -0.57
20 0.49
21 0.4
22 0.37
23 0.15
24 0.15
25 0.15
26 0.15
27 0.37
28 0.37
3 -0.57
4 -0.6
5 -0.55
6 -0.31
7 -0.31
8 -0.8
9 0.1

> <PUBCHEM_EFFECTIVE_ROTOR_COUNT>
1.4

> <PUBCHEM_PHARMACOPHORE_FEATURES>
10
1 2 acceptor
1 3 acceptor
1 4 donor
1 5 donor
1 7 acceptor
1 8 donor
3 4 6 12 cation
6 6 7 12 13 18 20 rings
6 9 10 11 14 16 17 rings
7 4 5 9 10 12 13 15 rings

> <PUBCHEM_HEAVY_ATOM_COUNT>
20

> <PUBCHEM_ATOM_DEF_STEREO_COUNT>
0

> <PUBCHEM_ATOM_UDEF_STEREO_COUNT>
0

> <PUBCHEM_BOND_DEF_STEREO_COUNT>
0

> <PUBCHEM_BOND_UDEF_STEREO_COUNT>
0

> <PUBCHEM_ISOTOPIC_ATOM_COUNT>
0

> <PUBCHEM_COMPONENT_COUNT>
1

> <PUBCHEM_CACTVS_TAUTO_COUNT>
20

> <PUBCHEM_CONFORMER_ID>
00F3EE6100000001

> <PUBCHEM_MMFF94_ENERGY>
86.5599

> <PUBCHEM_FEATURE_SELFOVERLAP>
50.76

> <PUBCHEM_SHAPE_FINGERPRINT>
10411042 1 17546165659030080406
10608611 8 18409728430792749879
10616163 171 18411139168530402207
10646746 165 18412826902194833472
10670039 82 18261689163654722500
10967382 1 18410855421526236147
11578080 2 17096912586621270558
12390115 104 18271544025622573656
12403259 226 18125718139145296288
12403259 415 18272646900521069944
12403260 363 18338229487699167972
13140716 1 17977954801690634739
138480 1 17762338020241999650
14178342 30 18410845539054609712
14223421 5 18409450275984125015
14251751 93 18343300396603154838
14466204 15 18410002244244312544
15042514 8 18049726514015692466
15196674 1 18410856543019310442
15442244 35 18267021648324292946
15536298 74 18343023268228702254
16945 1 18410856589947660459
17492 89 18410291385173994787
18186145 218 18198065776514240717
19591789 44 18410856581610771134
200 152 18201431532484626007
20510252 161 18270684301950101881
21267235 1 18338243789666301370
21279426 13 18340774720258986062
21501502 16 18338514140762007499
21524375 3 18341051925410527982
2334 1 18338797814835755235
23366157 5 18041564624918375138
23402539 116 18269267031620199623
23558518 356 18261119547595610931
23559900 14 18269829981584547104
23566358 2 18342461395953103615
238 59 17033841181211291845
2748010 2 18267308638202529007
2871803 45 18338793519863217191
350125 39 18410577322473259825
4214541 1 18410856572899634088
5104073 3 18410291381141732986
58051976 378 18413107285769822790
59755656 215 18410857654972598887
7364860 26 18341615876117936990
7832392 63 18268149751491232115
9709674 26 18411986861904526142

> <PUBCHEM_SHAPE_MULTIPOLES>
376.82
8.39
3.06
0.69
6.83
0.12
0.02
-2.59
0.01
-1.66
0.05
-0.29
-0.27
0.05

> <PUBCHEM_SHAPE_SELFOVERLAP>
824.995

> <PUBCHEM_SHAPE_VOLUME>
202.3

> <PUBCHEM_COORDINATE_TYPE>
2
5
10

$$$$
