11442914
  -OEChem-10052115183D

 56 60  0     0  0  0  0  0  0999 V2000
   -3.5248    1.4142    0.7305 S   0  0  0  0  0  0  0  0  0  0  0  0
    5.1340    0.7228   -1.0498 O   0  0  0  0  0  0  0  0  0  0  0  0
   -2.9494   -2.7235   -0.8850 N   0  0  0  0  0  0  0  0  0  0  0  0
    4.3675   -0.0922    1.0088 N   0  0  0  0  0  0  0  0  0  0  0  0
   -0.6240   -2.4915   -0.5301 N   0  0  0  0  0  0  0  0  0  0  0  0
    6.6368   -0.0081    0.5862 N   0  0  0  0  0  0  0  0  0  0  0  0
  -10.6013    0.1413    0.6363 N   0  0  0  0  0  0  0  0  0  0  0  0
   -1.2193    0.3175    0.5447 C   0  0  0  0  0  0  0  0  0  0  0  0
   -2.1428   -0.6599    0.0439 C   0  0  0  0  0  0  0  0  0  0  0  0
    0.2143    0.2125    0.6636 C   0  0  0  0  0  0  0  0  0  0  0  0
   -3.4562   -0.1842    0.0892 C   0  0  0  0  0  0  0  0  0  0  0  0
   -1.8351    1.4789    0.9468 C   0  0  0  0  0  0  0  0  0  0  0  0
   -1.9244   -1.9532   -0.4567 C   0  0  0  0  0  0  0  0  0  0  0  0
    0.7756   -0.2898    1.8337 C   0  0  0  0  0  0  0  0  0  0  0  0
    1.0268    0.6143   -0.3926 C   0  0  0  0  0  0  0  0  0  0  0  0
   -4.5293   -0.9687   -0.3502 C   0  0  0  0  0  0  0  0  0  0  0  0
    2.9808    0.0099    0.8932 C   0  0  0  0  0  0  0  0  0  0  0  0
    2.1620   -0.3913    1.9488 C   0  0  0  0  0  0  0  0  0  0  0  0
    2.4131    0.5126   -0.2775 C   0  0  0  0  0  0  0  0  0  0  0  0
   -4.2002   -2.2264   -0.8240 C   0  0  0  0  0  0  0  0  0  0  0  0
    7.8925    0.1966   -0.0329 C   0  0  0  0  0  0  0  0  0  0  0  0
    5.3614    0.2573    0.0622 C   0  0  0  0  0  0  0  0  0  0  0  0
   -5.8711   -0.4954   -0.3056 C   0  0  0  0  0  0  0  0  0  0  0  0
   10.2868    0.0705    0.0442 C   0  0  0  0  0  0  0  0  0  0  0  0
    9.0490   -0.1318    0.6547 C   0  0  0  0  0  0  0  0  0  0  0  0
    7.9387    0.7217   -1.3138 C   0  0  0  0  0  0  0  0  0  0  0  0
   10.3504    0.5984   -1.2454 C   0  0  0  0  0  0  0  0  0  0  0  0
    9.1765    0.9240   -1.9245 C   0  0  0  0  0  0  0  0  0  0  0  0
   11.5423   -0.2779    0.7696 C   0  0  0  0  0  0  0  0  0  0  0  0
   -7.0099   -0.0935   -0.2678 C   0  0  0  0  0  0  0  0  0  0  0  0
   -8.3581    0.3824   -0.2229 C   0  0  0  0  0  0  0  0  0  0  0  0
   -8.7445    1.4990   -0.9521 C   0  0  0  0  0  0  0  0  0  0  0  0
   -9.3122   -0.2566    0.5488 C   0  0  0  0  0  0  0  0  0  0  0  0
  -10.0622    1.9388   -0.8878 C   0  0  0  0  0  0  0  0  0  0  0  0
  -10.9436    1.2314   -0.0863 C   0  0  0  0  0  0  0  0  0  0  0  0
   -1.3813    2.3702    1.3598 H   0  0  0  0  0  0  0  0  0  0  0  0
    0.1509   -0.6079    2.6648 H   0  0  0  0  0  0  0  0  0  0  0  0
    0.5981    1.0068   -1.3116 H   0  0  0  0  0  0  0  0  0  0  0  0
    2.5907   -0.7855    2.8667 H   0  0  0  0  0  0  0  0  0  0  0  0
    2.9771    0.8430   -1.1380 H   0  0  0  0  0  0  0  0  0  0  0  0
   -4.9675   -2.9060   -1.1855 H   0  0  0  0  0  0  0  0  0  0  0  0
    4.7058   -0.4678    1.8912 H   0  0  0  0  0  0  0  0  0  0  0  0
    0.1984   -1.9935   -0.2359 H   0  0  0  0  0  0  0  0  0  0  0  0
   -0.5217   -3.4280   -0.8995 H   0  0  0  0  0  0  0  0  0  0  0  0
    6.6714   -0.3956    1.5257 H   0  0  0  0  0  0  0  0  0  0  0  0
    8.9978   -0.5448    1.6590 H   0  0  0  0  0  0  0  0  0  0  0  0
    7.0797    0.9992   -1.9058 H   0  0  0  0  0  0  0  0  0  0  0  0
   11.3085    0.7588   -1.7327 H   0  0  0  0  0  0  0  0  0  0  0  0
    9.2275    1.3346   -2.9288 H   0  0  0  0  0  0  0  0  0  0  0  0
   11.4280   -0.1301    1.8489 H   0  0  0  0  0  0  0  0  0  0  0  0
   11.8053   -1.3240    0.5842 H   0  0  0  0  0  0  0  0  0  0  0  0
   12.3755    0.3553    0.4465 H   0  0  0  0  0  0  0  0  0  0  0  0
   -8.0330    2.0368   -1.5735 H   0  0  0  0  0  0  0  0  0  0  0  0
   -9.0710   -1.1344    1.1413 H   0  0  0  0  0  0  0  0  0  0  0  0
  -10.3888    2.8078   -1.4474 H   0  0  0  0  0  0  0  0  0  0  0  0
  -11.9823    1.5336   -0.0020 H   0  0  0  0  0  0  0  0  0  0  0  0
  1 11  1  0  0  0  0
  1 12  1  0  0  0  0
  2 22  2  0  0  0  0
  3 13  2  0  0  0  0
  3 20  1  0  0  0  0
  4 17  1  0  0  0  0
  4 22  1  0  0  0  0
  4 42  1  0  0  0  0
  5 13  1  0  0  0  0
  5 43  1  0  0  0  0
  5 44  1  0  0  0  0
  6 21  1  0  0  0  0
  6 22  1  0  0  0  0
  6 45  1  0  0  0  0
  7 33  1  0  0  0  0
  7 35  2  0  0  0  0
  8  9  1  0  0  0  0
  8 10  1  0  0  0  0
  8 12  2  0  0  0  0
  9 11  2  0  0  0  0
  9 13  1  0  0  0  0
 10 14  2  0  0  0  0
 10 15  1  0  0  0  0
 11 16  1  0  0  0  0
 12 36  1  0  0  0  0
 14 18  1  0  0  0  0
 14 37  1  0  0  0  0
 15 19  2  0  0  0  0
 15 38  1  0  0  0  0
 16 20  2  0  0  0  0
 16 23  1  0  0  0  0
 17 18  2  0  0  0  0
 17 19  1  0  0  0  0
 18 39  1  0  0  0  0
 19 40  1  0  0  0  0
 20 41  1  0  0  0  0
 21 25  1  0  0  0  0
 21 26  2  0  0  0  0
 23 30  3  0  0  0  0
 24 25  2  0  0  0  0
 24 27  1  0  0  0  0
 24 29  1  0  0  0  0
 25 46  1  0  0  0  0
 26 28  1  0  0  0  0
 26 47  1  0  0  0  0
 27 28  2  0  0  0  0
 27 48  1  0  0  0  0
 28 49  1  0  0  0  0
 29 50  1  0  0  0  0
 29 51  1  0  0  0  0
 29 52  1  0  0  0  0
 30 31  1  0  0  0  0
 31 32  1  0  0  0  0
 31 33  2  0  0  0  0
 32 34  2  0  0  0  0
 32 53  1  0  0  0  0
 33 54  1  0  0  0  0
 34 35  1  0  0  0  0
 34 55  1  0  0  0  0
 35 56  1  0  0  0  0
M  END
> <PUBCHEM_COMPOUND_CID>
11442914

> <PUBCHEM_CONFORMER_RMSD>
0.8

> <PUBCHEM_CONFORMER_DIVERSEORDER>
1
9
7
16
4
6
14
11
12
15
8
5
3
2
13
10

> <PUBCHEM_MMFF94_PARTIAL_CHARGES>
52
1 -0.08
10 0.05
11 0.04
12 -0.11
13 0.41
14 -0.15
15 -0.15
16 0.07
17 0.12
18 -0.15
19 -0.15
2 -0.57
20 0.16
21 0.12
22 0.69
23 -0.07
24 -0.14
25 -0.15
26 -0.15
27 -0.15
28 -0.15
29 0.14
3 -0.62
30 -0.07
31 0.07
32 -0.15
33 0.16
34 -0.15
35 0.16
36 0.15
37 0.15
38 0.15
39 0.15
4 -0.55
40 0.15
41 0.15
42 0.37
43 0.4
44 0.4
45 0.37
46 0.15
47 0.15
48 0.15
49 0.15
5 -0.9
53 0.15
54 0.15
55 0.15
56 0.15
6 -0.55
7 -0.62
8 -0.05

> <PUBCHEM_EFFECTIVE_ROTOR_COUNT>
5

> <PUBCHEM_PHARMACOPHORE_FEATURES>
11
1 2 acceptor
1 4 donor
1 5 donor
1 6 donor
1 7 acceptor
3 3 5 13 cation
5 1 8 9 11 12 rings
6 10 14 15 17 18 19 rings
6 21 24 25 26 27 28 rings
6 3 9 11 13 16 20 rings
6 7 31 32 33 34 35 rings

> <PUBCHEM_HEAVY_ATOM_COUNT>
35

> <PUBCHEM_ATOM_DEF_STEREO_COUNT>
0

> <PUBCHEM_ATOM_UDEF_STEREO_COUNT>
0

> <PUBCHEM_BOND_DEF_STEREO_COUNT>
0

> <PUBCHEM_BOND_UDEF_STEREO_COUNT>
0

> <PUBCHEM_ISOTOPIC_ATOM_COUNT>
0

> <PUBCHEM_COMPONENT_COUNT>
1

> <PUBCHEM_CACTVS_TAUTO_COUNT>
6

> <PUBCHEM_CONFORMER_ID>
00AE9AE200000001

> <PUBCHEM_MMFF94_ENERGY>
106.5449

> <PUBCHEM_FEATURE_SELFOVERLAP>
55.936

> <PUBCHEM_SHAPE_FINGERPRINT>
10165383 225 18341892983492312943
106641 1 12324240564006046291
10674148 151 18202561795550773003
10883706 142 14273455876996321929
11211813 89 18060137648438167905
11409948 35 17988083280222223982
11410812 94 13470418743264404523
12144603 126 18040714761994552992
12522641 33 18260269633961376386
12539745 222 12031797946187823731
12559415 86 18261679159921580612
12664476 115 14418134028253353900
12741549 16 15626223515835702560
12758862 11 17703503384788027627
13740195 50 10881405335293110293
13947947 74 17989490710043033235
14040221 8 18202571674419327864
14117953 113 18060420226773535461
14251764 46 17167863062802212864
15061470 23 17748825211135631660
15065858 18 16702016504410127014
15183329 4 17749104522719702402
15219648 73 14261361211243189894
15247644 1 14549019887886788348
15392192 104 9583524209766203996
15510794 2 16415765211303748620
15890870 6 18412262831007469831
16087824 20 18341048537319875345
16664035 7 10015869786203960267
16728433 110 15554441917588237448
20609170 92 18269272371008444821
21057603 130 13984666980553463147
21360443 89 7853564709372416777
21792934 111 16343978131696833578
232437 2 16515683342740276488
23399689 5 18334295345618792573
249057 3 18343302600222252576
3092352 35 17675925417857170051
335352 9 18272928333017014575
3991529 128 18333736810885956617
4017518 198 17203890773590539175
4625314 4 17489018378887609024
58083652 198 15482390958573896154
59521270 166 18411416185974547221
59521660 218 18338237047364576171
59682541 35 12685092588087519351
6691757 9 17988654003981717011
67123 10 16805041821848112729
9663363 56 16630805513778924810

> <PUBCHEM_SHAPE_MULTIPOLES>
693.36
43.99
1.68
1.34
25.38
0.8
-0.09
-15.7
8.87
-3.41
0.59
1.81
-0.08
-1.24

> <PUBCHEM_SHAPE_SELFOVERLAP>
1527.798

> <PUBCHEM_SHAPE_VOLUME>
373.3

> <PUBCHEM_COORDINATE_TYPE>
2
5
10

$$$$
