11809063
  -OEChem-10052115143D

 38 43  0     0  0  0  0  0  0999 V2000
    2.2564    3.1297   -0.0004 O   0  0  0  0  0  0  0  0  0  0  0  0
    1.4856   -2.0591    0.0005 N   0  0  0  0  0  0  0  0  0  0  0  0
   -0.0357    3.5711   -0.0006 N   0  0  0  0  0  0  0  0  0  0  0  0
   -0.7900   -0.9953    0.0006 C   0  0  0  0  0  0  0  0  0  0  0  0
   -1.4931    0.2353    0.0006 C   0  0  0  0  0  0  0  0  0  0  0  0
   -0.7857    1.4124    0.0007 C   0  0  0  0  0  0  0  0  0  0  0  0
    0.6096   -1.0055    0.0007 C   0  0  0  0  0  0  0  0  0  0  0  0
    1.3647    0.1784    0.0008 C   0  0  0  0  0  0  0  0  0  0  0  0
    0.6223    1.3770    0.0008 C   0  0  0  0  0  0  0  0  0  0  0  0
   -1.7657   -2.1618    0.0003 C   0  0  0  0  0  0  0  0  0  0  0  0
   -2.9156   -0.0478    0.0002 C   0  0  0  0  0  0  0  0  0  0  0  0
   -3.0990   -1.4495   -0.0001 C   0  0  0  0  0  0  0  0  0  0  0  0
   -1.2697    2.8202   -0.0002 C   0  0  0  0  0  0  0  0  0  0  0  0
    2.7479   -0.2143    0.0004 C   0  0  0  0  0  0  0  0  0  0  0  0
    2.7835   -1.6125    0.0001 C   0  0  0  0  0  0  0  0  0  0  0  0
    1.0960    2.7671   -0.0003 C   0  0  0  0  0  0  0  0  0  0  0  0
   -4.0154    0.7951    0.0000 C   0  0  0  0  0  0  0  0  0  0  0  0
   -4.3608   -2.0197   -0.0006 C   0  0  0  0  0  0  0  0  0  0  0  0
    3.9850    0.4682    0.0005 C   0  0  0  0  0  0  0  0  0  0  0  0
    3.9747   -2.3495   -0.0007 C   0  0  0  0  0  0  0  0  0  0  0  0
   -5.2936    0.2264   -0.0005 C   0  0  0  0  0  0  0  0  0  0  0  0
   -5.4648   -1.1672   -0.0008 C   0  0  0  0  0  0  0  0  0  0  0  0
    5.1851   -0.2544   -0.0005 C   0  0  0  0  0  0  0  0  0  0  0  0
    5.1781   -1.6443   -0.0013 C   0  0  0  0  0  0  0  0  0  0  0  0
   -1.6434   -2.7643    0.9050 H   0  0  0  0  0  0  0  0  0  0  0  0
   -1.6429   -2.7644   -0.9042 H   0  0  0  0  0  0  0  0  0  0  0  0
   -1.8300    3.0709   -0.9044 H   0  0  0  0  0  0  0  0  0  0  0  0
   -1.8301    3.0719    0.9034 H   0  0  0  0  0  0  0  0  0  0  0  0
    1.2139   -3.0326    0.0004 H   0  0  0  0  0  0  0  0  0  0  0  0
    0.0023    4.5855   -0.0012 H   0  0  0  0  0  0  0  0  0  0  0  0
   -3.9115    1.8741    0.0001 H   0  0  0  0  0  0  0  0  0  0  0  0
   -4.4923   -3.0960   -0.0007 H   0  0  0  0  0  0  0  0  0  0  0  0
    4.0362    1.5507    0.0010 H   0  0  0  0  0  0  0  0  0  0  0  0
    3.9661   -3.4346   -0.0011 H   0  0  0  0  0  0  0  0  0  0  0  0
   -6.1680    0.8721   -0.0007 H   0  0  0  0  0  0  0  0  0  0  0  0
   -6.4684   -1.5841   -0.0012 H   0  0  0  0  0  0  0  0  0  0  0  0
    6.1315    0.2800   -0.0006 H   0  0  0  0  0  0  0  0  0  0  0  0
    6.1188   -2.1883   -0.0021 H   0  0  0  0  0  0  0  0  0  0  0  0
  1 16  2  0  0  0  0
  2  7  1  0  0  0  0
  2 15  1  0  0  0  0
  2 29  1  0  0  0  0
  3 13  1  0  0  0  0
  3 16  1  0  0  0  0
  3 30  1  0  0  0  0
  4  5  2  0  0  0  0
  4  7  1  0  0  0  0
  4 10  1  0  0  0  0
  5  6  1  0  0  0  0
  5 11  1  0  0  0  0
  6  9  2  0  0  0  0
  6 13  1  0  0  0  0
  7  8  2  0  0  0  0
  8  9  1  0  0  0  0
  8 14  1  0  0  0  0
  9 16  1  0  0  0  0
 10 12  1  0  0  0  0
 10 25  1  0  0  0  0
 10 26  1  0  0  0  0
 11 12  1  0  0  0  0
 11 17  2  0  0  0  0
 12 18  2  0  0  0  0
 13 27  1  0  0  0  0
 13 28  1  0  0  0  0
 14 15  1  0  0  0  0
 14 19  2  0  0  0  0
 15 20  2  0  0  0  0
 17 21  1  0  0  0  0
 17 31  1  0  0  0  0
 18 22  1  0  0  0  0
 18 32  1  0  0  0  0
 19 23  1  0  0  0  0
 19 33  1  0  0  0  0
 20 24  1  0  0  0  0
 20 34  1  0  0  0  0
 21 22  2  0  0  0  0
 21 35  1  0  0  0  0
 22 36  1  0  0  0  0
 23 24  2  0  0  0  0
 23 37  1  0  0  0  0
 24 38  1  0  0  0  0
M  END
> <PUBCHEM_COMPOUND_CID>
11809063

> <PUBCHEM_CONFORMER_RMSD>
0.6

> <PUBCHEM_CONFORMER_DIVERSEORDER>
1

> <PUBCHEM_MMFF94_PARTIAL_CHARGES>
30
1 -0.57
10 0.29
12 -0.14
13 0.44
15 -0.15
16 0.54
17 -0.15
18 -0.15
19 -0.15
2 0.03
20 -0.15
21 -0.15
22 -0.15
23 -0.15
24 -0.15
29 0.27
3 -0.73
30 0.37
31 0.15
32 0.15
33 0.15
34 0.15
35 0.15
36 0.15
37 0.15
38 0.15
4 -0.14
6 -0.14
7 -0.15
9 0.09

> <PUBCHEM_EFFECTIVE_ROTOR_COUNT>
0.6

> <PUBCHEM_PHARMACOPHORE_FEATURES>
10
1 1 acceptor
1 2 cation
1 2 donor
1 3 donor
5 2 7 8 14 15 rings
5 3 6 9 13 16 rings
5 4 5 10 11 12 rings
6 11 12 17 18 21 22 rings
6 14 15 19 20 23 24 rings
6 4 5 6 7 8 9 rings

> <PUBCHEM_HEAVY_ATOM_COUNT>
24

> <PUBCHEM_ATOM_DEF_STEREO_COUNT>
0

> <PUBCHEM_ATOM_UDEF_STEREO_COUNT>
0

> <PUBCHEM_BOND_DEF_STEREO_COUNT>
0

> <PUBCHEM_BOND_UDEF_STEREO_COUNT>
0

> <PUBCHEM_ISOTOPIC_ATOM_COUNT>
0

> <PUBCHEM_COMPONENT_COUNT>
1

> <PUBCHEM_CACTVS_TAUTO_COUNT>
5

> <PUBCHEM_CONFORMER_ID>
00B4312700000001

> <PUBCHEM_MMFF94_ENERGY>
73.7414

> <PUBCHEM_FEATURE_SELFOVERLAP>
51.157

> <PUBCHEM_SHAPE_FINGERPRINT>
10319926 262 17979892945298218154
10411042 1 18410856546765476162
10622 236 17628896105486583551
10675989 125 16316384435009018829
10688039 33 18114183008134726637
10906281 52 18266762253721573463
10967382 1 18266459991092379780
1100329 8 18338234984909511139
11045515 52 18186520968910776325
11578080 2 17386825288641032340
11963148 33 17471851880206911803
12166972 35 17821452339970819646
12236239 1 17822011978156509822
12516196 113 18412261739848133451
12553582 1 18338503184105295530
12788726 201 18189896418236869586
13004483 165 18338224964961819146
13009979 54 18059871566434400833
13140716 1 18266741457468606632
13544653 18 18334020479493631730
138480 1 14663579756736654464
13862211 1 18410570673779638887
14347332 77 18122628258696650310
14787075 74 18187087269228559074
14790565 3 17547294402210541353
14866123 147 18052542062925680617
15042514 8 18050283666021083914
15196674 1 18410855455886195367
15352361 1 18410855447248547651
15442244 35 18412266159939069865
15927050 60 17765154265221591380
1601671 61 18413390933947256930
16087824 20 18193840337099199637
17492 89 18122905597561877827
17980427 23 17489880314932300097
19591789 44 18410292523218053877
200 152 18202280299437010803
20028762 73 18130503149927242623
20510252 161 18198059166891823280
21029758 11 18410292505921971281
21049683 271 18188782780345917653
21236236 1 18270117890596099953
21267235 1 18410864252005851171
21279426 13 18264766571698117261
21478907 32 18265895757165452010
21641784 216 18041860414957482116
21792934 111 18339629053952460457
221357 26 18335693954114586495
221490 88 18191592050061717371
22182313 1 18265026150721283540
2297311 6 18341059510554907646
23352939 185 18272093794463574312
23366157 5 17970345029958878916
23402539 116 18342451513360157263
23557571 272 18129105520265324422
23559900 14 18412256268048943777
24771293 8 18129088091293649976
3004659 81 18114181917661406542
3178227 256 18335435560587881203
335352 9 18410855439523874197
3421961 26 18339922722336133841
34934 24 18411131446237336674
350125 39 18410295817437260669
5104073 3 18411699876537334651
5283173 99 18042678412632081317
59755656 215 18338240358573364982
6443956 14 18409168852404733612
7364860 26 18267585899726475961
8863177 126 17824559680206628379
9709674 26 18119530083958215107

> <PUBCHEM_SHAPE_MULTIPOLES>
478.08
10.47
3.42
0.61
1.38
2.7
0
-6.09
0
-0.83
0
0.01
-0.02
0

> <PUBCHEM_SHAPE_SELFOVERLAP>
1125.178

> <PUBCHEM_SHAPE_VOLUME>
245.1

> <PUBCHEM_COORDINATE_TYPE>
2
5
10

$$$$
