11235063
  -OEChem-10062122003D

 51 54  0     0  0  0  0  0  0999 V2000
    5.1955   -0.2339   -1.0364 O   0  0  0  0  0  0  0  0  0  0  0  0
    4.4012    4.4729    0.2236 O   0  0  0  0  0  0  0  0  0  0  0  0
   -4.4221    0.2707    0.0982 N   0  0  0  0  0  0  0  0  0  0  0  0
   -2.6815    0.8769    1.5791 N   0  0  0  0  0  0  0  0  0  0  0  0
   -0.2858   -2.1954    0.1583 N   0  0  0  0  0  0  0  0  0  0  0  0
   -0.6119   -0.3572    1.6093 N   0  0  0  0  0  0  0  0  0  0  0  0
   -3.2711   -2.5466   -1.7726 N   0  0  0  0  0  0  0  0  0  0  0  0
    3.5591    1.0836    0.0107 N   0  0  0  0  0  0  0  0  0  0  0  0
    3.5174    3.4281    0.4649 N   0  0  0  0  0  0  0  0  0  0  0  0
   -5.2942    1.3286    0.5621 C   0  0  0  0  0  0  0  0  0  0  0  0
   -4.9713    2.6411   -0.1414 C   0  0  0  0  0  0  0  0  0  0  0  0
   -6.7337    1.0657    0.1372 C   0  0  0  0  0  0  0  0  0  0  0  0
   -5.6716    2.5425   -1.4947 C   0  0  0  0  0  0  0  0  0  0  0  0
   -6.8074    1.5356   -1.3141 C   0  0  0  0  0  0  0  0  0  0  0  0
   -3.1489    0.0534    0.5962 C   0  0  0  0  0  0  0  0  0  0  0  0
   -2.3705   -0.9912    0.0934 C   0  0  0  0  0  0  0  0  0  0  0  0
   -1.1122   -1.1481    0.6375 C   0  0  0  0  0  0  0  0  0  0  0  0
   -1.4376    0.6210    2.0272 C   0  0  0  0  0  0  0  0  0  0  0  0
    1.1073   -2.3283    0.0508 C   0  0  0  0  0  0  0  0  0  0  0  0
   -2.8682   -1.8507   -0.9379 C   0  0  0  0  0  0  0  0  0  0  0  0
    1.7224   -3.5818    0.1438 C   0  0  0  0  0  0  0  0  0  0  0  0
    1.8953   -1.1902   -0.1531 C   0  0  0  0  0  0  0  0  0  0  0  0
    3.2812   -1.3042   -0.2625 C   0  0  0  0  0  0  0  0  0  0  0  0
    3.1084   -3.6956    0.0345 C   0  0  0  0  0  0  0  0  0  0  0  0
    3.8877   -2.5569   -0.1687 C   0  0  0  0  0  0  0  0  0  0  0  0
    0.9122   -4.8182    0.3610 C   0  0  0  0  0  0  0  0  0  0  0  0
    4.0946   -0.1173   -0.4743 C   0  0  0  0  0  0  0  0  0  0  0  0
    4.1287    2.3634   -0.0323 C   0  0  0  0  0  0  0  0  0  0  0  0
    5.3741    2.6405   -0.5930 C   0  0  0  0  0  0  0  0  0  0  0  0
    5.5030    3.9914   -0.4068 C   0  0  0  0  0  0  0  0  0  0  0  0
   -5.2388    1.4228    1.6525 H   0  0  0  0  0  0  0  0  0  0  0  0
   -3.9000    2.8353   -0.2538 H   0  0  0  0  0  0  0  0  0  0  0  0
   -5.4025    3.4758    0.4251 H   0  0  0  0  0  0  0  0  0  0  0  0
   -7.4154    1.6723    0.7464 H   0  0  0  0  0  0  0  0  0  0  0  0
   -7.0332    0.0178    0.2412 H   0  0  0  0  0  0  0  0  0  0  0  0
   -6.0415    3.5190   -1.8233 H   0  0  0  0  0  0  0  0  0  0  0  0
   -4.9745    2.1822   -2.2601 H   0  0  0  0  0  0  0  0  0  0  0  0
   -7.7830    1.9796   -1.5375 H   0  0  0  0  0  0  0  0  0  0  0  0
   -6.6692    0.6910   -1.9990 H   0  0  0  0  0  0  0  0  0  0  0  0
   -4.6319   -0.1202   -0.8141 H   0  0  0  0  0  0  0  0  0  0  0  0
   -0.8009   -3.0555   -0.0020 H   0  0  0  0  0  0  0  0  0  0  0  0
   -1.0610    1.2718    2.8067 H   0  0  0  0  0  0  0  0  0  0  0  0
    1.3993   -0.2322   -0.2806 H   0  0  0  0  0  0  0  0  0  0  0  0
    3.5972   -4.6636    0.1056 H   0  0  0  0  0  0  0  0  0  0  0  0
    4.9663   -2.6679   -0.2460 H   0  0  0  0  0  0  0  0  0  0  0  0
    0.2956   -4.7244    1.2612 H   0  0  0  0  0  0  0  0  0  0  0  0
    1.5473   -5.7001    0.5001 H   0  0  0  0  0  0  0  0  0  0  0  0
    0.2696   -5.0121   -0.5041 H   0  0  0  0  0  0  0  0  0  0  0  0
    2.6693    1.0774    0.4999 H   0  0  0  0  0  0  0  0  0  0  0  0
    6.1012    2.0014   -1.0684 H   0  0  0  0  0  0  0  0  0  0  0  0
    6.2648    4.7179   -0.6469 H   0  0  0  0  0  0  0  0  0  0  0  0
  1 27  2  0  0  0  0
  2  9  1  0  0  0  0
  2 30  1  0  0  0  0
  3 10  1  0  0  0  0
  3 15  1  0  0  0  0
  3 40  1  0  0  0  0
  4 15  2  0  0  0  0
  4 18  1  0  0  0  0
  5 17  1  0  0  0  0
  5 19  1  0  0  0  0
  5 41  1  0  0  0  0
  6 17  1  0  0  0  0
  6 18  2  0  0  0  0
  7 20  3  0  0  0  0
  8 27  1  0  0  0  0
  8 28  1  0  0  0  0
  8 49  1  0  0  0  0
  9 28  2  0  0  0  0
 10 11  1  0  0  0  0
 10 12  1  0  0  0  0
 10 31  1  0  0  0  0
 11 13  1  0  0  0  0
 11 32  1  0  0  0  0
 11 33  1  0  0  0  0
 12 14  1  0  0  0  0
 12 34  1  0  0  0  0
 12 35  1  0  0  0  0
 13 14  1  0  0  0  0
 13 36  1  0  0  0  0
 13 37  1  0  0  0  0
 14 38  1  0  0  0  0
 14 39  1  0  0  0  0
 15 16  1  0  0  0  0
 16 17  2  0  0  0  0
 16 20  1  0  0  0  0
 18 42  1  0  0  0  0
 19 21  2  0  0  0  0
 19 22  1  0  0  0  0
 21 24  1  0  0  0  0
 21 26  1  0  0  0  0
 22 23  2  0  0  0  0
 22 43  1  0  0  0  0
 23 25  1  0  0  0  0
 23 27  1  0  0  0  0
 24 25  2  0  0  0  0
 24 44  1  0  0  0  0
 25 45  1  0  0  0  0
 26 46  1  0  0  0  0
 26 47  1  0  0  0  0
 26 48  1  0  0  0  0
 28 29  1  0  0  0  0
 29 30  2  0  0  0  0
 29 50  1  0  0  0  0
 30 51  1  0  0  0  0
M  END
> <PUBCHEM_COMPOUND_CID>
11235063

> <PUBCHEM_CONFORMER_RMSD>
1

> <PUBCHEM_CONFORMER_DIVERSEORDER>
1
63
101
53
14
75
85
12
93
82
65
76
61
92
71
69
100
68
18
38
23
34
86
24
51
64
22
83
89
45
106
40
19
104
102
103
56
99
78
54
42
91
96
94
73
55
33
7
107
70
36
59
84
10
81
79
41
17
50
39
97
13
21
98
43
9
57
48
74
105
26
28
27
80
87
58
47
66
62
11
15
88
31
77
52
46
60
5
20
4
72
25
29
8
3
30
49
37
2
95
6
67
16
35
32
90
44

> <PUBCHEM_MMFF94_PARTIAL_CHARGES>
35
1 -0.57
10 0.37
15 0.41
16 0.07
17 0.41
18 0.47
19 0.1
2 -0.02
20 0.48
21 -0.14
22 -0.15
23 0.09
24 -0.15
25 -0.15
26 0.14
27 0.54
28 0.35
29 -0.15
3 -0.87
30 -0.01
4 -0.62
40 0.4
41 0.4
42 0.15
43 0.15
44 0.15
45 0.15
49 0.37
5 -0.6
50 0.15
51 0.15
6 -0.62
7 -0.56
8 -0.49
9 -0.41

> <PUBCHEM_EFFECTIVE_ROTOR_COUNT>
8

> <PUBCHEM_PHARMACOPHORE_FEATURES>
12
1 1 acceptor
1 3 donor
1 5 cation
1 5 donor
1 7 acceptor
1 8 donor
3 3 4 15 cation
3 4 6 18 cation
5 10 11 12 13 14 rings
5 2 9 28 29 30 rings
6 19 21 22 23 24 25 rings
6 4 6 15 16 17 18 rings

> <PUBCHEM_HEAVY_ATOM_COUNT>
30

> <PUBCHEM_ATOM_DEF_STEREO_COUNT>
0

> <PUBCHEM_ATOM_UDEF_STEREO_COUNT>
0

> <PUBCHEM_BOND_DEF_STEREO_COUNT>
0

> <PUBCHEM_BOND_UDEF_STEREO_COUNT>
0

> <PUBCHEM_ISOTOPIC_ATOM_COUNT>
0

> <PUBCHEM_COMPONENT_COUNT>
1

> <PUBCHEM_CACTVS_TAUTO_COUNT>
27

> <PUBCHEM_CONFORMER_ID>
00AB6EF700000001

> <PUBCHEM_MMFF94_ENERGY>
94.1872

> <PUBCHEM_FEATURE_SELFOVERLAP>
61.027

> <PUBCHEM_SHAPE_FINGERPRINT>
10258939 38 17825124841846427667
10673678 19 18411421700511861135
10675989 125 18411985732729229752
10937287 8 18338803441569973706
11374522 174 18189637057873517877
11479125 193 18336808849952116741
12788726 201 17274543092914803603
13583140 156 18190759539476736603
13878862 14 18189039937217402316
13944108 23 18191314784432733380
13965767 371 18041271184473436294
14739800 52 17387119893839376457
15082195 135 18342452625629949931
15198563 99 17476363176357226238
15439362 3 18410578427176322364
19053607 189 18338508768096310352
20715895 44 18411134753900088800
21033648 29 17603310370764232036
21049683 118 17385721391936160403
21133410 221 16120757720304444240
21344244 78 17611168378916994282
21388113 180 18335421283109468293
22122407 14 18267035968146158857
23522609 53 17774455876290535385
23559900 14 18338238137410498411
2838139 119 18262232210645336565
376196 1 18334577962307704602
4173938 77 18268160776746049989
474 4 18411426102896102962
6036956 94 17470731477457015237
6371009 1 18341611486977696688
6697151 62 17683224886180365915
9981440 41 18194965382148866834

> <PUBCHEM_SHAPE_MULTIPOLES>
570.78
15.8
6.04
1.25
14.74
0.52
-0.15
17.38
4.82
-10.11
0.53
1.46
0.13
0.08

> <PUBCHEM_SHAPE_SELFOVERLAP>
1237.358

> <PUBCHEM_SHAPE_VOLUME>
308.8

> <PUBCHEM_COORDINATE_TYPE>
2
5
10

$$$$
