5328134
  -OEChem-10062121583D

 65 67  0     0  0  0  0  0  0999 V2000
   -4.5754   -0.5558   -2.7826 Cl  0  0  0  0  0  0  0  0  0  0  0  0
   -4.6752   -1.0867    2.6708 Cl  0  0  0  0  0  0  0  0  0  0  0  0
   -1.3040    2.9967    0.3754 O   0  0  0  0  0  0  0  0  0  0  0  0
    8.3101    0.7154    0.3650 N   0  0  0  0  0  0  0  0  0  0  0  0
    2.8174   -2.1737   -0.0529 N   0  0  0  0  0  0  0  0  0  0  0  0
    0.8314   -0.9674    0.0289 N   0  0  0  0  0  0  0  0  0  0  0  0
    0.8328   -3.3642   -0.2046 N   0  0  0  0  0  0  0  0  0  0  0  0
   -1.1432    0.2392    0.1108 N   0  0  0  0  0  0  0  0  0  0  0  0
   -3.1177    1.5130    0.1993 N   0  0  0  0  0  0  0  0  0  0  0  0
   -3.4789    3.7791    0.4131 N   0  0  0  0  0  0  0  0  0  0  0  0
    7.4770   -0.4728    0.2212 C   0  0  0  0  0  0  0  0  0  0  0  0
    5.9986   -0.0856    0.2058 C   0  0  0  0  0  0  0  0  0  0  0  0
    5.1057   -1.3230    0.0647 C   0  0  0  0  0  0  0  0  0  0  0  0
    9.6240    0.3615    0.9048 C   0  0  0  0  0  0  0  0  0  0  0  0
    8.4571    1.4002   -0.9205 C   0  0  0  0  0  0  0  0  0  0  0  0
    3.6185   -0.9806    0.0775 C   0  0  0  0  0  0  0  0  0  0  0  0
   10.3796   -0.5581   -0.0323 C   0  0  0  0  0  0  0  0  0  0  0  0
    9.2652    2.6739   -0.7814 C   0  0  0  0  0  0  0  0  0  0  0  0
    1.4315   -2.1716   -0.0777 C   0  0  0  0  0  0  0  0  0  0  0  0
   -1.2344   -2.1235   -0.1213 C   0  0  0  0  0  0  0  0  0  0  0  0
   -0.5059   -0.9351    0.0076 C   0  0  0  0  0  0  0  0  0  0  0  0
   -3.2862   -0.8659   -0.0359 C   0  0  0  0  0  0  0  0  0  0  0  0
   -2.6362   -2.0828   -0.1428 C   0  0  0  0  0  0  0  0  0  0  0  0
   -2.4979    0.2584    0.0882 C   0  0  0  0  0  0  0  0  0  0  0  0
   -0.5093   -3.3082   -0.2236 C   0  0  0  0  0  0  0  0  0  0  0  0
   -4.7329   -0.8177   -0.0575 C   0  0  0  0  0  0  0  0  0  0  0  0
   -5.4078   -0.6776   -1.2701 C   0  0  0  0  0  0  0  0  0  0  0  0
   -5.4520   -0.9117    1.1341 C   0  0  0  0  0  0  0  0  0  0  0  0
   -6.8018   -0.6313   -1.2911 C   0  0  0  0  0  0  0  0  0  0  0  0
   -6.8460   -0.8654    1.1129 C   0  0  0  0  0  0  0  0  0  0  0  0
   -2.5113    2.7725    0.3324 C   0  0  0  0  0  0  0  0  0  0  0  0
   -7.5208   -0.7252   -0.0997 C   0  0  0  0  0  0  0  0  0  0  0  0
   -3.1505    5.1790    0.5548 C   0  0  0  0  0  0  0  0  0  0  0  0
   -2.7616    5.7949   -0.7733 C   0  0  0  0  0  0  0  0  0  0  0  0
    7.7173   -1.0468   -0.6829 H   0  0  0  0  0  0  0  0  0  0  0  0
    7.6224   -1.1473    1.0757 H   0  0  0  0  0  0  0  0  0  0  0  0
    5.7441    0.4423    1.1336 H   0  0  0  0  0  0  0  0  0  0  0  0
    5.7730    0.5939   -0.6230 H   0  0  0  0  0  0  0  0  0  0  0  0
    5.3512   -1.8459   -0.8687 H   0  0  0  0  0  0  0  0  0  0  0  0
    5.3223   -2.0249    0.8803 H   0  0  0  0  0  0  0  0  0  0  0  0
    9.4931   -0.1407    1.8723 H   0  0  0  0  0  0  0  0  0  0  0  0
   10.2217    1.2481    1.1418 H   0  0  0  0  0  0  0  0  0  0  0  0
    7.4687    1.7118   -1.2771 H   0  0  0  0  0  0  0  0  0  0  0  0
    8.8685    0.7693   -1.7166 H   0  0  0  0  0  0  0  0  0  0  0  0
    3.3991   -0.2926   -0.7479 H   0  0  0  0  0  0  0  0  0  0  0  0
    3.3732   -0.4687    1.0158 H   0  0  0  0  0  0  0  0  0  0  0  0
    9.8457   -1.4842   -0.2628 H   0  0  0  0  0  0  0  0  0  0  0  0
   10.6753   -0.0758   -0.9681 H   0  0  0  0  0  0  0  0  0  0  0  0
   11.3140   -0.8620    0.4552 H   0  0  0  0  0  0  0  0  0  0  0  0
    9.1628    3.2753   -1.6919 H   0  0  0  0  0  0  0  0  0  0  0  0
   10.3347    2.4829   -0.6518 H   0  0  0  0  0  0  0  0  0  0  0  0
    8.9126    3.2889    0.0540 H   0  0  0  0  0  0  0  0  0  0  0  0
    3.2738   -3.0755   -0.1315 H   0  0  0  0  0  0  0  0  0  0  0  0
   -3.2036   -3.0064   -0.2431 H   0  0  0  0  0  0  0  0  0  0  0  0
   -1.0037   -4.2696   -0.3262 H   0  0  0  0  0  0  0  0  0  0  0  0
   -4.1330    1.5255    0.1825 H   0  0  0  0  0  0  0  0  0  0  0  0
   -7.3441   -0.5224   -2.2270 H   0  0  0  0  0  0  0  0  0  0  0  0
   -7.4224   -0.9370    2.0319 H   0  0  0  0  0  0  0  0  0  0  0  0
   -8.6062   -0.6890   -0.1161 H   0  0  0  0  0  0  0  0  0  0  0  0
   -4.4590    3.5198    0.3596 H   0  0  0  0  0  0  0  0  0  0  0  0
   -4.0308    5.6830    0.9657 H   0  0  0  0  0  0  0  0  0  0  0  0
   -2.3286    5.2785    1.2714 H   0  0  0  0  0  0  0  0  0  0  0  0
   -2.5411    6.8596   -0.6499 H   0  0  0  0  0  0  0  0  0  0  0  0
   -3.5721    5.6949   -1.5031 H   0  0  0  0  0  0  0  0  0  0  0  0
   -1.8747    5.3099   -1.1937 H   0  0  0  0  0  0  0  0  0  0  0  0
  1 27  1  0  0  0  0
  2 28  1  0  0  0  0
  3 31  2  0  0  0  0
  4 11  1  0  0  0  0
  4 14  1  0  0  0  0
  4 15  1  0  0  0  0
  5 16  1  0  0  0  0
  5 19  1  0  0  0  0
  5 53  1  0  0  0  0
  6 19  2  0  0  0  0
  6 21  1  0  0  0  0
  7 19  1  0  0  0  0
  7 25  2  0  0  0  0
  8 21  2  0  0  0  0
  8 24  1  0  0  0  0
  9 24  1  0  0  0  0
  9 31  1  0  0  0  0
  9 56  1  0  0  0  0
 10 31  1  0  0  0  0
 10 33  1  0  0  0  0
 10 60  1  0  0  0  0
 11 12  1  0  0  0  0
 11 35  1  0  0  0  0
 11 36  1  0  0  0  0
 12 13  1  0  0  0  0
 12 37  1  0  0  0  0
 12 38  1  0  0  0  0
 13 16  1  0  0  0  0
 13 39  1  0  0  0  0
 13 40  1  0  0  0  0
 14 17  1  0  0  0  0
 14 41  1  0  0  0  0
 14 42  1  0  0  0  0
 15 18  1  0  0  0  0
 15 43  1  0  0  0  0
 15 44  1  0  0  0  0
 16 45  1  0  0  0  0
 16 46  1  0  0  0  0
 17 47  1  0  0  0  0
 17 48  1  0  0  0  0
 17 49  1  0  0  0  0
 18 50  1  0  0  0  0
 18 51  1  0  0  0  0
 18 52  1  0  0  0  0
 20 21  1  0  0  0  0
 20 23  2  0  0  0  0
 20 25  1  0  0  0  0
 22 23  1  0  0  0  0
 22 24  2  0  0  0  0
 22 26  1  0  0  0  0
 23 54  1  0  0  0  0
 25 55  1  0  0  0  0
 26 27  2  0  0  0  0
 26 28  1  0  0  0  0
 27 29  1  0  0  0  0
 28 30  2  0  0  0  0
 29 32  2  0  0  0  0
 29 57  1  0  0  0  0
 30 32  1  0  0  0  0
 30 58  1  0  0  0  0
 32 59  1  0  0  0  0
 33 34  1  0  0  0  0
 33 61  1  0  0  0  0
 33 62  1  0  0  0  0
 34 63  1  0  0  0  0
 34 64  1  0  0  0  0
 34 65  1  0  0  0  0
M  END
> <PUBCHEM_COMPOUND_CID>
5328134

> <PUBCHEM_CONFORMER_RMSD>
1.2

> <PUBCHEM_CONFORMER_DIVERSEORDER>
1
71
34
66
30
65
48
70
62
42
73
19
26
20
75
23
63
40
35
58
74
38
61
24
56
45
25
57
13
44
54
64
51
46
32
11
60
53
16
55
27
41
31
9
69
47
21
37
59
8
15
39
67
43
36
18
28
17
50
33
4
72
3
52
29
6
10
49
7
22
68
12
2
5
14

> <PUBCHEM_MMFF94_PARTIAL_CHARGES>
34
1 -0.18
10 -0.73
11 0.27
14 0.27
15 0.27
16 0.37
19 0.72
2 -0.18
21 0.62
23 -0.15
24 0.43
25 0.16
27 0.18
28 0.18
29 -0.15
3 -0.57
30 -0.15
31 0.69
32 -0.15
33 0.3
4 -0.81
5 -0.87
53 0.4
54 0.15
55 0.15
56 0.37
57 0.15
58 0.15
59 0.15
6 -0.62
60 0.37
7 -0.62
8 -0.62
9 -0.55

> <PUBCHEM_EFFECTIVE_ROTOR_COUNT>
13

> <PUBCHEM_PHARMACOPHORE_FEATURES>
10
1 10 donor
1 3 acceptor
1 4 cation
1 5 donor
1 7 acceptor
1 9 donor
4 5 6 7 19 cation
6 26 27 28 29 30 32 rings
6 6 7 19 20 21 25 rings
6 8 20 21 22 23 24 rings

> <PUBCHEM_HEAVY_ATOM_COUNT>
34

> <PUBCHEM_ATOM_DEF_STEREO_COUNT>
0

> <PUBCHEM_ATOM_UDEF_STEREO_COUNT>
0

> <PUBCHEM_BOND_DEF_STEREO_COUNT>
0

> <PUBCHEM_BOND_UDEF_STEREO_COUNT>
0

> <PUBCHEM_ISOTOPIC_ATOM_COUNT>
0

> <PUBCHEM_COMPONENT_COUNT>
1

> <PUBCHEM_CACTVS_TAUTO_COUNT>
24

> <PUBCHEM_CONFORMER_ID>
00514D0600000001

> <PUBCHEM_MMFF94_ENERGY>
84.326

> <PUBCHEM_FEATURE_SELFOVERLAP>
50.832

> <PUBCHEM_SHAPE_FINGERPRINT>
10 15 17894909646528745674
10050765 1 18123469371494833794
10369192 42 16988565692780702278
10580692 12 18411418390147675850
10670039 82 18412538795788741560
11578080 2 17056922263231236339
11621639 254 18271800267634661788
12728208 25 12179839495256199948
12741549 16 17822017523929863349
13165053 182 18115859712361046925
13911987 19 18336530661131679167
14118638 360 18334854975213879554
15276724 80 18273209781522581006
15289351 153 18337101273744300842
15347591 1 18194401078779736066
17899979 19 18408041840117230909
20721686 146 16629416736330825097
20721686 56 18338515360606540657
20766409 102 18409453578967710173
22311459 1 18412543228216232650
24771293 8 18201727249588759827
283562 15 18264205825754242379
437795 83 18340477876998078244
550186 72 18338518534672346021
9953998 17 16298384694816307194
9961470 85 18053094318616711480

> <PUBCHEM_SHAPE_MULTIPOLES>
662.71
28.44
5.08
1.4
90.79
10.7
-0.14
5.02
-0.4
-5.16
-0.18
-2.86
-0.23
-0.77

> <PUBCHEM_SHAPE_SELFOVERLAP>
1374.441

> <PUBCHEM_SHAPE_VOLUME>
380.9

> <PUBCHEM_COORDINATE_TYPE>
2
5
10

$$$$
