24856363
  -OEChem-10062122023D

 50 53  0     0  0  0  0  0  0999 V2000
   -5.8430    0.4416   -0.5268 O   0  0  0  0  0  0  0  0  0  0  0  0
    4.7651   -0.9141   -1.0685 O   0  0  0  0  0  0  0  0  0  0  0  0
   -4.2120    1.8057    0.3982 N   0  0  0  0  0  0  0  0  0  0  0  0
    4.6248    0.2455    0.9346 N   0  0  0  0  0  0  0  0  0  0  0  0
    6.3082    1.8913    0.3659 C   0  0  0  0  0  0  0  0  0  0  0  0
    6.6854    1.9089   -1.0865 C   0  0  0  0  0  0  0  0  0  0  0  0
    7.7154    2.2181   -0.0400 C   0  0  0  0  0  0  0  0  0  0  0  0
   -5.0005    3.0167    0.4227 C   0  0  0  0  0  0  0  0  0  0  0  0
   -5.1068    3.8971   -0.7879 C   0  0  0  0  0  0  0  0  0  0  0  0
   -4.3488    4.3683    0.4185 C   0  0  0  0  0  0  0  0  0  0  0  0
    6.0260    0.5864    1.0294 C   0  0  0  0  0  0  0  0  0  0  0  0
   -4.6903    0.5806   -0.0810 C   0  0  0  0  0  0  0  0  0  0  0  0
    4.0776   -0.4923   -0.1217 C   0  0  0  0  0  0  0  0  0  0  0  0
   -3.7821   -0.5536   -0.0160 C   0  0  0  0  0  0  0  0  0  0  0  0
    2.6438   -0.7326   -0.0859 C   0  0  0  0  0  0  0  0  0  0  0  0
   -2.4031   -0.3466   -0.0470 C   0  0  0  0  0  0  0  0  0  0  0  0
   -1.5329   -1.4350    0.0154 C   0  0  0  0  0  0  0  0  0  0  0  0
   -4.2911   -1.8490    0.0772 C   0  0  0  0  0  0  0  0  0  0  0  0
   -0.1067   -1.1941   -0.0184 C   0  0  0  0  0  0  0  0  0  0  0  0
   -2.0419   -2.7303    0.1088 C   0  0  0  0  0  0  0  0  0  0  0  0
    1.9720   -0.7661    1.1362 C   0  0  0  0  0  0  0  0  0  0  0  0
    1.9403   -0.9301   -1.2741 C   0  0  0  0  0  0  0  0  0  0  0  0
   -3.4210   -2.9374    0.1397 C   0  0  0  0  0  0  0  0  0  0  0  0
    0.5968   -0.9968    1.1698 C   0  0  0  0  0  0  0  0  0  0  0  0
    0.5652   -1.1607   -1.2403 C   0  0  0  0  0  0  0  0  0  0  0  0
   -1.1405   -3.9213    0.1778 C   0  0  0  0  0  0  0  0  0  0  0  0
    5.7025    2.7030    0.7503 H   0  0  0  0  0  0  0  0  0  0  0  0
    6.7819    0.9711   -1.6189 H   0  0  0  0  0  0  0  0  0  0  0  0
    6.3183    2.7291   -1.6913 H   0  0  0  0  0  0  0  0  0  0  0  0
    8.0424    3.2461    0.0566 H   0  0  0  0  0  0  0  0  0  0  0  0
    8.4916    1.4834    0.1358 H   0  0  0  0  0  0  0  0  0  0  0  0
   -5.8887    2.9138    1.0382 H   0  0  0  0  0  0  0  0  0  0  0  0
   -4.5354    3.6341   -1.6697 H   0  0  0  0  0  0  0  0  0  0  0  0
   -6.0653    4.3572   -0.9941 H   0  0  0  0  0  0  0  0  0  0  0  0
   -3.2695    4.4219    0.3447 H   0  0  0  0  0  0  0  0  0  0  0  0
   -4.7968    5.1470    1.0235 H   0  0  0  0  0  0  0  0  0  0  0  0
    6.6211   -0.2281    0.6010 H   0  0  0  0  0  0  0  0  0  0  0  0
    6.2675    0.6558    2.0951 H   0  0  0  0  0  0  0  0  0  0  0  0
   -3.2912    1.8688    0.8222 H   0  0  0  0  0  0  0  0  0  0  0  0
    4.0188    0.6387    1.6469 H   0  0  0  0  0  0  0  0  0  0  0  0
   -1.9827    0.6508   -0.1518 H   0  0  0  0  0  0  0  0  0  0  0  0
   -5.3622   -2.0315    0.1072 H   0  0  0  0  0  0  0  0  0  0  0  0
    2.4854   -0.6487    2.0859 H   0  0  0  0  0  0  0  0  0  0  0  0
    2.4443   -0.9037   -2.2368 H   0  0  0  0  0  0  0  0  0  0  0  0
   -3.8354   -3.9394    0.2132 H   0  0  0  0  0  0  0  0  0  0  0  0
    0.0891   -1.0271    2.1311 H   0  0  0  0  0  0  0  0  0  0  0  0
    0.0318   -1.3122   -2.1758 H   0  0  0  0  0  0  0  0  0  0  0  0
   -1.7086   -4.8558    0.2482 H   0  0  0  0  0  0  0  0  0  0  0  0
   -0.4979   -3.8714    1.0626 H   0  0  0  0  0  0  0  0  0  0  0  0
   -0.5205   -3.9919   -0.7219 H   0  0  0  0  0  0  0  0  0  0  0  0
  1 12  2  0  0  0  0
  2 13  2  0  0  0  0
  3  8  1  0  0  0  0
  3 12  1  0  0  0  0
  3 39  1  0  0  0  0
  4 11  1  0  0  0  0
  4 13  1  0  0  0  0
  4 40  1  0  0  0  0
  5  6  1  0  0  0  0
  5  7  1  0  0  0  0
  5 11  1  0  0  0  0
  5 27  1  0  0  0  0
  6  7  1  0  0  0  0
  6 28  1  0  0  0  0
  6 29  1  0  0  0  0
  7 30  1  0  0  0  0
  7 31  1  0  0  0  0
  8  9  1  0  0  0  0
  8 10  1  0  0  0  0
  8 32  1  0  0  0  0
  9 10  1  0  0  0  0
  9 33  1  0  0  0  0
  9 34  1  0  0  0  0
 10 35  1  0  0  0  0
 10 36  1  0  0  0  0
 11 37  1  0  0  0  0
 11 38  1  0  0  0  0
 12 14  1  0  0  0  0
 13 15  1  0  0  0  0
 14 16  2  0  0  0  0
 14 18  1  0  0  0  0
 15 21  2  0  0  0  0
 15 22  1  0  0  0  0
 16 17  1  0  0  0  0
 16 41  1  0  0  0  0
 17 19  1  0  0  0  0
 17 20  2  0  0  0  0
 18 23  2  0  0  0  0
 18 42  1  0  0  0  0
 19 24  2  0  0  0  0
 19 25  1  0  0  0  0
 20 23  1  0  0  0  0
 20 26  1  0  0  0  0
 21 24  1  0  0  0  0
 21 43  1  0  0  0  0
 22 25  2  0  0  0  0
 22 44  1  0  0  0  0
 23 45  1  0  0  0  0
 24 46  1  0  0  0  0
 25 47  1  0  0  0  0
 26 48  1  0  0  0  0
 26 49  1  0  0  0  0
 26 50  1  0  0  0  0
M  END
> <PUBCHEM_COMPOUND_CID>
24856363

> <PUBCHEM_CONFORMER_RMSD>
1

> <PUBCHEM_CONFORMER_DIVERSEORDER>
1
15
10
16
6
8
9
19
3
12
11
17
18
4
13
5
2
7
14

> <PUBCHEM_MMFF94_PARTIAL_CHARGES>
43
1 -0.57
10 -0.2
11 0.4
12 0.54
13 0.54
14 0.09
15 0.09
16 -0.15
18 -0.15
2 -0.57
20 -0.14
21 -0.15
22 -0.15
23 -0.15
24 -0.15
25 -0.15
26 0.14
27 0.1
28 0.1
29 0.1
3 -0.58
30 0.1
31 0.1
32 0.1
33 0.1
34 0.1
35 0.1
36 0.1
39 0.37
4 -0.73
40 0.37
41 0.15
42 0.15
43 0.15
44 0.15
45 0.15
46 0.15
47 0.15
5 -0.19
6 -0.2
7 -0.2
8 0.05
9 -0.2

> <PUBCHEM_EFFECTIVE_ROTOR_COUNT>
9.2

> <PUBCHEM_PHARMACOPHORE_FEATURES>
6
1 1 acceptor
1 2 acceptor
1 3 donor
1 4 donor
6 14 16 17 18 20 23 rings
6 15 19 21 22 24 25 rings

> <PUBCHEM_HEAVY_ATOM_COUNT>
26

> <PUBCHEM_ATOM_DEF_STEREO_COUNT>
0

> <PUBCHEM_ATOM_UDEF_STEREO_COUNT>
0

> <PUBCHEM_BOND_DEF_STEREO_COUNT>
0

> <PUBCHEM_BOND_UDEF_STEREO_COUNT>
0

> <PUBCHEM_ISOTOPIC_ATOM_COUNT>
0

> <PUBCHEM_COMPONENT_COUNT>
1

> <PUBCHEM_CACTVS_TAUTO_COUNT>
4

> <PUBCHEM_CONFORMER_ID>
017B472B00000001

> <PUBCHEM_MMFF94_ENERGY>
78.1648

> <PUBCHEM_FEATURE_SELFOVERLAP>
30.446

> <PUBCHEM_SHAPE_FINGERPRINT>
10 15 18261958539075563643
10087517 78 18335417997480157341
10411042 1 17762055845798010747
10883706 163 18260263040691049325
11135609 201 18339931407720122209
11408170 253 18340499962137346768
12107183 9 18118673332419274586
12236239 1 17822282535537604298
13073987 5 18333732429128252234
13167372 99 18407757050174652792
13782708 43 11025799808118200652
13911987 19 16702027503779278102
13965767 371 17752486456544650735
14251764 30 8934995967144222100
14251764 75 17839466584099583345
14347329 18 18342731884435184977
14598715 104 17987785428466427704
14739800 52 18338218410788536938
14790565 3 18194120711983189417
15183329 4 14405197192164213788
155225 5 18340206293473948849
15604295 49 18127686253267448536
15684393 108 12390925987123143433
16120349 189 18263075540248213829
16126227 98 18342182120817787345
16728433 281 18270137738147234468
17980427 23 17968376870212911062
20058555 10 18411417310876858888
21424621 283 18333453127557292074
21795232 40 18115294572011286077
22122407 14 18042697268119181352
23522609 53 17676781954763934068
23559900 14 18129669573963083286
23569914 152 16839965408487827220
2748736 6 18337663105708876229
2838139 119 18271799160066004624
3418910 222 17898586516011092276
397830 11 10665230410613222638
4073 2 18114464587013936138
4144715 1 18335991947414685322
44249763 50 17631434808977437900
445580 37 18339088185064184972
5104073 3 17967531246807555410
5283173 99 18341895207894872066
563151 74 15575265473137216329
6327066 14 18263918852971674421
636775 72 18339921632232748392
7808743 9 18410570652715954089
7970288 3 9222070756818734841
8863177 126 7997679896814984300
9849439 229 18120936097600899073
9981440 41 18263086535696814107

> <PUBCHEM_SHAPE_MULTIPOLES>
513.37
17.95
4.72
1.05
25.8
3.54
-0.07
19.51
-0.48
-8.59
0.06
0.92
0.02
0.06

> <PUBCHEM_SHAPE_SELFOVERLAP>
1100.758

> <PUBCHEM_SHAPE_VOLUME>
285.1

> <PUBCHEM_COORDINATE_TYPE>
2
5
10

$$$$
