17754772
  -OEChem-10052120443D

 41 44  0     1  0  0  0  0  0999 V2000
    1.3646    0.3782   -0.2729 N   0  0  0  0  0  0  0  0  0  0  0  0
    1.0204    0.0815   -1.5377 N   0  0  0  0  0  0  0  0  0  0  0  0
   -2.4364    1.1822    1.3334 N   0  0  0  0  0  0  0  0  0  0  0  0
    2.3519    3.9741   -0.2950 N   0  0  0  0  0  0  0  0  0  0  0  0
   -5.2896   -1.1206   -0.3637 N   0  0  0  0  0  0  0  0  0  0  0  0
   -4.7775    0.5139    1.3334 N   0  0  0  0  0  0  0  0  0  0  0  0
    3.5142   -0.8069   -0.0765 C   0  0  0  0  0  0  0  0  0  0  0  0
    4.9672   -0.7527    0.3847 C   0  0  0  0  0  0  0  0  0  0  0  0
    2.9387   -1.9211    0.7918 C   0  0  0  0  0  0  0  0  0  0  0  0
    2.7849    0.5155    0.0850 C   0  0  1  0  0  0  0  0  0  0  0  0
    5.3517   -2.2169    0.5734 C   0  0  0  0  0  0  0  0  0  0  0  0
    4.0445   -2.9710    0.8235 C   0  0  0  0  0  0  0  0  0  0  0  0
    3.5011    1.6393   -0.6839 C   0  0  0  0  0  0  0  0  0  0  0  0
    0.3008    0.5206    0.5688 C   0  0  0  0  0  0  0  0  0  0  0  0
   -0.8171    0.3017   -0.1987 C   0  0  0  0  0  0  0  0  0  0  0  0
    2.8592    2.9447   -0.4658 C   0  0  0  0  0  0  0  0  0  0  0  0
   -0.3136    0.0361   -1.4862 C   0  0  0  0  0  0  0  0  0  0  0  0
   -2.1563    0.3553    0.2994 C   0  0  0  0  0  0  0  0  0  0  0  0
   -3.1733   -0.4208   -0.2547 C   0  0  0  0  0  0  0  0  0  0  0  0
   -4.4363   -0.2870    0.3090 C   0  0  0  0  0  0  0  0  0  0  0  0
   -3.2863   -1.3708   -1.3017 C   0  0  0  0  0  0  0  0  0  0  0  0
   -4.6006   -1.7851   -1.3458 C   0  0  0  0  0  0  0  0  0  0  0  0
   -3.7123    1.2098    1.7801 C   0  0  0  0  0  0  0  0  0  0  0  0
    3.4904   -1.1302   -1.1271 H   0  0  0  0  0  0  0  0  0  0  0  0
    5.0587   -0.2215    1.3401 H   0  0  0  0  0  0  0  0  0  0  0  0
    5.6282   -0.2672   -0.3397 H   0  0  0  0  0  0  0  0  0  0  0  0
    2.0071   -2.3343    0.3927 H   0  0  0  0  0  0  0  0  0  0  0  0
    2.7414   -1.5651    1.8107 H   0  0  0  0  0  0  0  0  0  0  0  0
    2.7842    0.7903    1.1503 H   0  0  0  0  0  0  0  0  0  0  0  0
    6.0566   -2.3389    1.4021 H   0  0  0  0  0  0  0  0  0  0  0  0
    5.8367   -2.6052   -0.3297 H   0  0  0  0  0  0  0  0  0  0  0  0
    3.8881   -3.7131    0.0321 H   0  0  0  0  0  0  0  0  0  0  0  0
    4.0589   -3.5071    1.7777 H   0  0  0  0  0  0  0  0  0  0  0  0
    4.5441    1.7272   -0.3621 H   0  0  0  0  0  0  0  0  0  0  0  0
    3.5160    1.4184   -1.7581 H   0  0  0  0  0  0  0  0  0  0  0  0
    0.4302    0.7573    1.6168 H   0  0  0  0  0  0  0  0  0  0  0  0
   -0.8469   -0.1718   -2.4022 H   0  0  0  0  0  0  0  0  0  0  0  0
   -2.5102   -1.7398   -1.9565 H   0  0  0  0  0  0  0  0  0  0  0  0
   -6.2747   -1.2295   -0.1661 H   0  0  0  0  0  0  0  0  0  0  0  0
   -5.1051   -2.4950   -1.9858 H   0  0  0  0  0  0  0  0  0  0  0  0
   -3.9037    1.8823    2.6093 H   0  0  0  0  0  0  0  0  0  0  0  0
  1  2  1  0  0  0  0
  1 10  1  0  0  0  0
  1 14  1  0  0  0  0
  2 17  2  0  0  0  0
  3 18  1  0  0  0  0
  3 23  2  0  0  0  0
  4 16  3  0  0  0  0
  5 20  1  0  0  0  0
  5 22  1  0  0  0  0
  5 39  1  0  0  0  0
  6 20  2  0  0  0  0
  6 23  1  0  0  0  0
  7  8  1  0  0  0  0
  7  9  1  0  0  0  0
  7 10  1  0  0  0  0
  7 24  1  0  0  0  0
  8 11  1  0  0  0  0
  8 25  1  0  0  0  0
  8 26  1  0  0  0  0
  9 12  1  0  0  0  0
  9 27  1  0  0  0  0
  9 28  1  0  0  0  0
 10 13  1  0  0  0  0
 10 29  1  0  0  0  0
 11 12  1  0  0  0  0
 11 30  1  0  0  0  0
 11 31  1  0  0  0  0
 12 32  1  0  0  0  0
 12 33  1  0  0  0  0
 13 16  1  0  0  0  0
 13 34  1  0  0  0  0
 13 35  1  0  0  0  0
 14 15  2  0  0  0  0
 14 36  1  0  0  0  0
 15 17  1  0  0  0  0
 15 18  1  0  0  0  0
 17 37  1  0  0  0  0
 18 19  2  0  0  0  0
 19 20  1  0  0  0  0
 19 21  1  0  0  0  0
 21 22  2  0  0  0  0
 21 38  1  0  0  0  0
 22 40  1  0  0  0  0
 23 41  1  0  0  0  0
M  END
> <PUBCHEM_COMPOUND_CID>
17754772

> <PUBCHEM_CONFORMER_RMSD>
0.8

> <PUBCHEM_CONFORMER_DIVERSEORDER>
1
84
23
114
50
9
129
102
36
80
21
25
92
6
24
31
123
127
75
40
95
108
93
60
37
124
11
52
2
39
112
87
69
53
103
26
18
49
19
94
89
27
17
128
126
63
29
122
51
105
100
22
70
107
34
33
61
28
47
86
4
42
7
106
83
15
41
82
64
90
110
113
109
59
78
20
121
125
35
16
14
57
79
76
30
56
62
111
104
45
66
10
32
99
12
118
81
54
13
48
43
85
67
117
65
5
46
116
130
71
119
115
97
55
3
91
120
96
44
88
58
68
77
72
73
38
8
98
74
101

> <PUBCHEM_MMFF94_PARTIAL_CHARGES>
23
1 0.31
10 0.26
13 0.2
14 -0.3
15 -0.05
16 0.36
17 0.14
18 0.36
2 -0.71
20 0.11
21 -0.15
22 -0.3
23 0.47
3 -0.62
36 0.15
37 0.15
38 0.15
39 0.27
4 -0.56
40 0.15
41 0.15
5 0.03
6 -0.57

> <PUBCHEM_EFFECTIVE_ROTOR_COUNT>
5

> <PUBCHEM_PHARMACOPHORE_FEATURES>
9
1 2 acceptor
1 4 acceptor
1 5 donor
3 3 6 23 cation
3 5 6 20 cation
5 1 2 14 15 17 rings
5 5 19 20 21 22 rings
5 7 8 9 11 12 rings
6 3 6 18 19 20 23 rings

> <PUBCHEM_HEAVY_ATOM_COUNT>
23

> <PUBCHEM_ATOM_DEF_STEREO_COUNT>
0

> <PUBCHEM_ATOM_UDEF_STEREO_COUNT>
1

> <PUBCHEM_BOND_DEF_STEREO_COUNT>
0

> <PUBCHEM_BOND_UDEF_STEREO_COUNT>
0

> <PUBCHEM_ISOTOPIC_ATOM_COUNT>
0

> <PUBCHEM_COMPONENT_COUNT>
1

> <PUBCHEM_CACTVS_TAUTO_COUNT>
3

> <PUBCHEM_CONFORMER_ID>
010EEA9400000001

> <PUBCHEM_MMFF94_ENERGY>
37.2462

> <PUBCHEM_FEATURE_SELFOVERLAP>
45.949

> <PUBCHEM_SHAPE_FINGERPRINT>
10319926 262 17060062471743932662
10366900 7 18113909294438219652
10912923 1 18201163234298650793
12107183 9 18124883356533009585
12236239 1 18343582936473363250
12553582 1 18263078826024658882
12596602 18 17846774097016824370
12616971 3 18412550907517154513
12633257 1 18272376330249525895
12670546 56 18272365386430282161
12788726 201 17774733068651718027
12839892 36 17632293454286298927
13009979 54 18059862723075918504
13167823 11 18341895203457719935
13533116 47 18335139834170963123
13544653 18 18041282050234390142
13583140 156 18262528124874600673
13631057 29 17834958946453575687
13911852 28 18118961400191960994
13955234 65 18264204876075872696
14178342 30 17773886306863699071
14386348 63 16443351952837240258
14739800 52 17559665338552586592
14849402 71 18271519923210692488
15142526 21 17764586916937510808
15250474 111 18272082846550258351
16752209 62 13407081422035609665
17349148 13 18060418014743824855
17818456 19 17916033347419170633
17857418 61 18413101749562532067
17870717 6 15213024812982679243
1813 80 18264216824616803126
18681886 176 17346045579641702076
19377110 9 18129947895894695747
20645477 70 17822286903334292442
21033648 29 17240754133909529381
21065198 48 18344146998754612496
21728266 224 17989197153798234799
2255824 54 18410296951862125108
23366157 5 17913199038882915401
23557571 272 16414935066380636513
23559900 14 18262233438647001128
25147074 1 18202007654955154913
3004659 81 18131358522079093381
312423 11 18343309196759113445
314194 84 18187086109835601618
345986 75 18118392956958856000
3633792 109 18335965533386680359
3737641 26 17976259037387321874
474 4 18047756180625693676
5104073 3 17988930011148263227
5312544 6 18267866270996656196
573450 72 18060137622436528147
67856867 119 18271803579044027016
6823239 73 15430044278957690740
7970288 3 18192424178754455042
9981440 41 17617373322094850568

> <PUBCHEM_SHAPE_MULTIPOLES>
443.44
12.16
3
1.37
3.03
1.75
-0.02
-6.32
-1.84
-4.56
0.05
1.33
0
-2.84

> <PUBCHEM_SHAPE_SELFOVERLAP>
972.722

> <PUBCHEM_SHAPE_VOLUME>
237.2

> <PUBCHEM_COORDINATE_TYPE>
2
5
10

$$$$
