9946124
  -OEChem-10062121543D

 32 35  0     0  0  0  0  0  0999 V2000
    6.4638   -2.1891    1.3833 Cl  0  0  0  0  0  0  0  0  0  0  0  0
   -2.4853    1.7960    0.6872 S   0  0  0  0  0  0  0  0  0  0  0  0
    1.7975    0.1377   -1.3164 O   0  0  0  0  0  0  0  0  0  0  0  0
   -4.7666   -0.2134    0.4566 O   0  0  0  0  0  0  0  0  0  0  0  0
    1.2021    3.3549    0.2976 N   0  0  0  0  0  0  0  0  0  0  0  0
   -3.5684   -1.7822   -0.5957 N   0  0  0  0  0  0  0  0  0  0  0  0
   -4.8547   -2.2628   -0.4359 N   0  0  0  0  0  0  0  0  0  0  0  0
   -6.8097   -1.2750    0.5769 N   0  0  0  0  0  0  0  0  0  0  0  0
   -0.2302    1.0307   -0.3186 C   0  0  0  0  0  0  0  0  0  0  0  0
   -0.8275    2.1099    0.3393 C   0  0  0  0  0  0  0  0  0  0  0  0
   -1.1677   -0.0373   -0.5196 C   0  0  0  0  0  0  0  0  0  0  0  0
    1.1288    1.1385   -0.6706 C   0  0  0  0  0  0  0  0  0  0  0  0
   -2.4179    0.2483   -0.0244 C   0  0  0  0  0  0  0  0  0  0  0  0
   -0.1014    3.2638    0.6408 C   0  0  0  0  0  0  0  0  0  0  0  0
    1.7787    2.3154   -0.3362 C   0  0  0  0  0  0  0  0  0  0  0  0
   -3.5654   -0.5852   -0.0605 C   0  0  0  0  0  0  0  0  0  0  0  0
    2.8961   -0.4103   -0.6808 C   0  0  0  0  0  0  0  0  0  0  0  0
    2.8104   -0.7276    0.6637 C   0  0  0  0  0  0  0  0  0  0  0  0
    4.0562   -0.6287   -1.4039 C   0  0  0  0  0  0  0  0  0  0  0  0
    3.9189   -1.2803    1.3051 C   0  0  0  0  0  0  0  0  0  0  0  0
    5.1647   -1.1815   -0.7625 C   0  0  0  0  0  0  0  0  0  0  0  0
   -5.5185   -1.3144    0.1828 C   0  0  0  0  0  0  0  0  0  0  0  0
    5.0962   -1.5074    0.5920 C   0  0  0  0  0  0  0  0  0  0  0  0
   -0.9160   -0.9705   -1.0103 H   0  0  0  0  0  0  0  0  0  0  0  0
   -0.5319    4.1179    1.1491 H   0  0  0  0  0  0  0  0  0  0  0  0
    2.8242    2.4712   -0.5863 H   0  0  0  0  0  0  0  0  0  0  0  0
    1.9003   -0.5789    1.2369 H   0  0  0  0  0  0  0  0  0  0  0  0
    4.1113   -0.3751   -2.4583 H   0  0  0  0  0  0  0  0  0  0  0  0
    3.8498   -1.5331    2.3601 H   0  0  0  0  0  0  0  0  0  0  0  0
    6.0753   -1.3525   -1.3309 H   0  0  0  0  0  0  0  0  0  0  0  0
   -7.2004   -0.4683    1.0525 H   0  0  0  0  0  0  0  0  0  0  0  0
   -7.4437   -2.0505    0.4146 H   0  0  0  0  0  0  0  0  0  0  0  0
  1 23  1  0  0  0  0
  2 10  1  0  0  0  0
  2 13  1  0  0  0  0
  3 12  1  0  0  0  0
  3 17  1  0  0  0  0
  4 16  1  0  0  0  0
  4 22  1  0  0  0  0
  5 14  2  0  0  0  0
  5 15  1  0  0  0  0
  6  7  1  0  0  0  0
  6 16  2  0  0  0  0
  7 22  2  0  0  0  0
  8 22  1  0  0  0  0
  8 31  1  0  0  0  0
  8 32  1  0  0  0  0
  9 10  2  0  0  0  0
  9 11  1  0  0  0  0
  9 12  1  0  0  0  0
 10 14  1  0  0  0  0
 11 13  2  0  0  0  0
 11 24  1  0  0  0  0
 12 15  2  0  0  0  0
 13 16  1  0  0  0  0
 14 25  1  0  0  0  0
 15 26  1  0  0  0  0
 17 18  2  0  0  0  0
 17 19  1  0  0  0  0
 18 20  1  0  0  0  0
 18 27  1  0  0  0  0
 19 21  2  0  0  0  0
 19 28  1  0  0  0  0
 20 23  2  0  0  0  0
 20 29  1  0  0  0  0
 21 23  1  0  0  0  0
 21 30  1  0  0  0  0
M  END
> <PUBCHEM_COMPOUND_CID>
9946124

> <PUBCHEM_CONFORMER_RMSD>
0.6

> <PUBCHEM_CONFORMER_DIVERSEORDER>
1
24
14
23
10
13
25
4
26
28
32
7
21
6
31
5
19
8
22
11
20
12
2
9
29
3
27
30
34
33
17
16
18
15

> <PUBCHEM_MMFF94_PARTIAL_CHARGES>
31
1 -0.18
10 0.04
11 -0.15
12 0.08
13 0.04
14 0.16
15 0.16
16 0.48
17 0.08
18 -0.15
19 -0.15
2 -0.08
20 -0.15
21 -0.15
22 0.56
23 0.18
24 0.15
25 0.15
26 0.15
27 0.15
28 0.15
29 0.15
3 -0.17
30 0.15
31 0.4
32 0.4
4 -0.28
5 -0.62
6 -0.34
7 -0.34
8 -0.88

> <PUBCHEM_EFFECTIVE_ROTOR_COUNT>
3

> <PUBCHEM_PHARMACOPHORE_FEATURES>
8
1 3 acceptor
1 5 acceptor
1 8 donor
3 7 8 22 cation
5 2 9 10 11 13 rings
5 4 6 7 16 22 rings
6 17 18 19 20 21 23 rings
6 5 9 10 12 14 15 rings

> <PUBCHEM_HEAVY_ATOM_COUNT>
23

> <PUBCHEM_ATOM_DEF_STEREO_COUNT>
0

> <PUBCHEM_ATOM_UDEF_STEREO_COUNT>
0

> <PUBCHEM_BOND_DEF_STEREO_COUNT>
0

> <PUBCHEM_BOND_UDEF_STEREO_COUNT>
0

> <PUBCHEM_ISOTOPIC_ATOM_COUNT>
0

> <PUBCHEM_COMPONENT_COUNT>
1

> <PUBCHEM_CACTVS_TAUTO_COUNT>
3

> <PUBCHEM_CONFORMER_ID>
0097C40C00000001

> <PUBCHEM_MMFF94_ENERGY>
54.3969

> <PUBCHEM_FEATURE_SELFOVERLAP>
40.662

> <PUBCHEM_SHAPE_FINGERPRINT>
10622 236 17315617510007707090
10753850 27 18113335301659572314
1100329 8 18339359789842676119
11265709 11 18412265029750773724
11578080 2 17968642853448794236
12107183 9 18270976656997001321
12166972 35 17821729425338024646
12236239 1 18041001700549602222
12516196 113 18411418419056704602
12553582 1 18341889688503492951
12633257 1 18200611266940543783
12788726 201 18337686225627846888
12892183 10 16629970914916314166
13533116 47 18265898132704210625
13540713 5 18267890365700902865
13955234 65 18050573133811191553
14178342 30 17916037762893216769
14251751 18 18260260837308561069
14705955 166 17131552730540067995
15042514 8 18269560429188935292
15163728 17 9295287287334779280
15183329 4 16370715999020243111
15188451 53 18341324522368064902
15342168 16 10159702382657944225
15927050 60 17764872785675411926
17134984 74 16443066118780143114
17492 89 18053383486022345303
1813 80 18341900683746247508
18222031 100 18272092703367658134
19784866 240 17967535653311845735
1979834 28 17346612875674662047
200 152 16951417516448719980
20028762 73 18131069380924376903
20554085 129 12396580806090342852
20567600 70 18337389456483851658
20832881 197 18334295379476558899
21033648 29 16630241398834441731
21344244 78 17561367309305545329
21421861 104 18270118053446278073
21756936 100 12318868372184540758
23366157 5 18192435396744503197
23522609 53 17972634093315591357
23559900 14 18042123331491009133
25147074 1 18267607799849718437
3004659 81 18334020505279227759
314194 84 18333456451693570322
335352 9 18341336617987747661
3411729 13 17986952058529017976
3421961 26 18341612680345562737
351380 3 18333732411805802059
439807 62 17894634764495418707
4409770 3 18045213835323441245
46194498 28 15864638382860570127
463206 1 18334857255188029163
465052 167 18410019865888680735
5104073 3 18273500073998949297
559249 180 18334574595479904003
6058803 2 17841723108582333293
76465 3 18335420162096032612
7970288 3 18409727344172156218
8863177 126 17970925581453580163
9841814 1 18270691972740781684

> <PUBCHEM_SHAPE_MULTIPOLES>
447.39
13.99
3.18
1.14
2.84
2.45
0.01
-15.77
-3
0.79
-0.68
-1.4
-0.24
-1.29

> <PUBCHEM_SHAPE_SELFOVERLAP>
982.376

> <PUBCHEM_SHAPE_VOLUME>
244.7

> <PUBCHEM_COORDINATE_TYPE>
2
5
10

$$$$
