910649
  -OEChem-10062122033D

 32 35  0     0  0  0  0  0  0999 V2000
    1.3880    3.2342    0.0028 O   0  0  0  0  0  0  0  0  0  0  0  0
   -2.5409    1.3609    0.0021 N   0  0  0  0  0  0  0  0  0  0  0  0
    1.8189    0.3684    1.1258 N   0  0  0  0  0  0  0  0  0  0  0  0
   -1.3402   -0.5095    0.0042 N   0  0  0  0  0  0  0  0  0  0  0  0
    1.7551    0.4108   -1.0955 N   0  0  0  0  0  0  0  0  0  0  0  0
    0.0453    2.8465   -0.0034 N   0  0  0  0  0  0  0  0  0  0  0  0
   -1.2924    0.8038    0.0045 C   0  0  0  0  0  0  0  0  0  0  0  0
    1.1998    0.7512    0.0092 C   0  0  0  0  0  0  0  0  0  0  0  0
   -3.4553    0.3390    0.0004 C   0  0  0  0  0  0  0  0  0  0  0  0
    2.9333   -0.3168    0.7146 C   0  0  0  0  0  0  0  0  0  0  0  0
   -0.0659    1.5304    0.0070 C   0  0  0  0  0  0  0  0  0  0  0  0
   -2.6811   -0.8181    0.0016 C   0  0  0  0  0  0  0  0  0  0  0  0
    2.8708   -0.2765   -0.6756 C   0  0  0  0  0  0  0  0  0  0  0  0
   -4.8506    0.3276   -0.0020 C   0  0  0  0  0  0  0  0  0  0  0  0
    3.9592   -0.9491    1.4179 C   0  0  0  0  0  0  0  0  0  0  0  0
   -3.3201   -2.0695    0.0003 C   0  0  0  0  0  0  0  0  0  0  0  0
    3.8835   -0.8988   -1.4248 C   0  0  0  0  0  0  0  0  0  0  0  0
   -5.4699   -0.9266   -0.0031 C   0  0  0  0  0  0  0  0  0  0  0  0
    4.9589   -1.5632    0.6561 C   0  0  0  0  0  0  0  0  0  0  0  0
   -4.7200   -2.1050   -0.0021 C   0  0  0  0  0  0  0  0  0  0  0  0
    4.9236   -1.5397   -0.7400 C   0  0  0  0  0  0  0  0  0  0  0  0
   -2.7542    2.3495    0.0018 H   0  0  0  0  0  0  0  0  0  0  0  0
    1.5393    0.5388    2.0836 H   0  0  0  0  0  0  0  0  0  0  0  0
   -5.4303    1.2436   -0.0029 H   0  0  0  0  0  0  0  0  0  0  0  0
    3.9843   -0.9660    2.5015 H   0  0  0  0  0  0  0  0  0  0  0  0
   -2.7464   -2.9909    0.0013 H   0  0  0  0  0  0  0  0  0  0  0  0
    3.8652   -0.8860   -2.5099 H   0  0  0  0  0  0  0  0  0  0  0  0
   -6.5556   -0.9843   -0.0050 H   0  0  0  0  0  0  0  0  0  0  0  0
    5.7786   -2.0682    1.1613 H   0  0  0  0  0  0  0  0  0  0  0  0
   -5.2299   -3.0650   -0.0031 H   0  0  0  0  0  0  0  0  0  0  0  0
    5.7150   -2.0259   -1.3047 H   0  0  0  0  0  0  0  0  0  0  0  0
    1.3112    4.2032   -0.0052 H   0  0  0  0  0  0  0  0  0  0  0  0
  1  6  1  0  0  0  0
  1 32  1  0  0  0  0
  2  7  1  0  0  0  0
  2  9  1  0  0  0  0
  2 22  1  0  0  0  0
  3  8  1  0  0  0  0
  3 10  1  0  0  0  0
  3 23  1  0  0  0  0
  4  7  2  0  0  0  0
  4 12  1  0  0  0  0
  5  8  2  0  0  0  0
  5 13  1  0  0  0  0
  6 11  2  0  0  0  0
  7 11  1  0  0  0  0
  8 11  1  0  0  0  0
  9 12  1  0  0  0  0
  9 14  2  0  0  0  0
 10 13  1  0  0  0  0
 10 15  2  0  0  0  0
 12 16  2  0  0  0  0
 13 17  2  0  0  0  0
 14 18  1  0  0  0  0
 14 24  1  0  0  0  0
 15 19  1  0  0  0  0
 15 25  1  0  0  0  0
 16 20  1  0  0  0  0
 16 26  1  0  0  0  0
 17 21  1  0  0  0  0
 17 27  1  0  0  0  0
 18 20  2  0  0  0  0
 18 28  1  0  0  0  0
 19 21  2  0  0  0  0
 19 29  1  0  0  0  0
 20 30  1  0  0  0  0
 21 31  1  0  0  0  0
M  END
> <PUBCHEM_COMPOUND_CID>
910649

> <PUBCHEM_CONFORMER_RMSD>
0.6

> <PUBCHEM_CONFORMER_DIVERSEORDER>
1
5
2
4
3

> <PUBCHEM_MMFF94_PARTIAL_CHARGES>
32
1 -0.34
10 -0.15
11 0.62
12 0.23
13 0.23
14 -0.15
15 -0.15
16 -0.15
17 -0.15
18 -0.15
19 -0.15
2 0.03
20 -0.15
21 -0.15
22 0.27
23 0.27
24 0.15
25 0.15
26 0.15
27 0.15
28 0.15
29 0.15
3 0.03
30 0.15
31 0.15
32 0.4
4 -0.57
5 -0.57
6 -0.51
7 0.1
8 0.1
9 -0.15

> <PUBCHEM_EFFECTIVE_ROTOR_COUNT>
2

> <PUBCHEM_PHARMACOPHORE_FEATURES>
10
1 1 anion
1 2 donor
1 3 donor
1 6 acceptor
3 2 4 7 cation
3 3 5 8 cation
5 2 4 7 9 12 rings
5 3 5 8 10 13 rings
6 10 13 15 17 19 21 rings
6 9 12 14 16 18 20 rings

> <PUBCHEM_HEAVY_ATOM_COUNT>
21

> <PUBCHEM_ATOM_DEF_STEREO_COUNT>
0

> <PUBCHEM_ATOM_UDEF_STEREO_COUNT>
0

> <PUBCHEM_BOND_DEF_STEREO_COUNT>
0

> <PUBCHEM_BOND_UDEF_STEREO_COUNT>
0

> <PUBCHEM_ISOTOPIC_ATOM_COUNT>
0

> <PUBCHEM_COMPONENT_COUNT>
1

> <PUBCHEM_CACTVS_TAUTO_COUNT>
3

> <PUBCHEM_CONFORMER_ID>
000DE53900000001

> <PUBCHEM_MMFF94_ENERGY>
51.9236

> <PUBCHEM_FEATURE_SELFOVERLAP>
50.965

> <PUBCHEM_SHAPE_FINGERPRINT>
11046707 91 18408603630249731482
11578080 2 17604688024765066708
11796584 16 18410009897063812647
12236239 1 17749392525139321974
12363563 72 18411707590287788038
12516196 113 18413387644345089184
12553582 1 18335696122424412651
12555020 224 18337662097340822519
12596602 18 13973674031741679367
12633257 1 18341907294265100027
12788726 201 18116438033495179528
12892183 10 16558755568064998426
13402501 40 18131078086801830790
13533116 47 18125438859719981979
13955234 65 18053105309052874249
14178342 30 17988095374248047169
14386348 63 18131352977387402222
14528608 73 7925914760090618483
14576447 43 17967253070803375906
15188451 53 17274531131673964423
15196674 1 18410574024191415075
15342816 4 18335141973312583510
15352361 1 18411700976027830079
15537594 2 18186807933024444491
15885798 251 18411699872173599792
17492 89 18123188167728758367
17804303 29 18409167723234224245
1813 80 18411423895055812468
18222031 100 18272088305231411244
19141452 34 17917990598929538399
193927 3 18342465849908146099
200 152 17386010520765695656
20028762 73 18059852926298520279
20374829 77 18410292493211376511
20388580 30 18260552242439791596
20403669 9 18413390934132217679
20645477 70 18266176321904371687
20832881 197 18333168367109902649
21033648 29 17059761231195487019
21250096 35 18408038502785041842
21267235 1 18408610279714057403
221490 88 18191312782529183899
22950370 63 18408890624322792498
23366157 5 18044095880588871453
23557571 272 18129666275147871276
23559900 14 18339918316179749017
239999 70 18343302574668778586
26918003 58 17489868224177283835
2916195 48 11242267276396385078
3004659 81 18186524293605587022
312423 11 18337686320523582105
314173 41 18409733971210949342
314173 85 18343585114016455624
335352 9 18410292489681320117
3411729 13 18199179784348289808
3421961 26 18341330093056634096
351380 3 18187083936022941619
38570 142 13972820919010437170
4325135 7 18335139813413395652
44062 13 18335699473211404287
463206 1 18260263049091001946
465052 167 18339088197933613439
5104073 3 18270970167195597403
559249 180 18261387794173205091
7364860 26 18197781213482918080
7970288 3 18409164394197694434
8863177 126 17824841159430703635
960060 61 17458347454733474798
9709674 26 18120093033827045483
9841814 1 18261666069146157560

> <PUBCHEM_SHAPE_MULTIPOLES>
401.4
11.76
2.44
0.99
3.07
1.46
0
-8.44
0.01
0.32
0
-1.38
-0.23
0

> <PUBCHEM_SHAPE_SELFOVERLAP>
914.179

> <PUBCHEM_SHAPE_VOLUME>
210.8

> <PUBCHEM_COORDINATE_TYPE>
2
5
10

$$$$
