21362698
  -OEChem-10062121583D

 22 24  0     0  0  0  0  0  0999 V2000
    2.2523    2.8435   -0.0002 Cl  0  0  0  0  0  0  0  0  0  0  0  0
    3.3702   -2.5551    0.0002 Cl  0  0  0  0  0  0  0  0  0  0  0  0
    3.9060    0.3678   -0.0013 O   0  0  0  0  0  0  0  0  0  0  0  0
   -0.7554    1.6895    0.0003 N   0  0  0  0  0  0  0  0  0  0  0  0
   -4.0843    0.0646   -0.0003 N   0  0  0  0  0  0  0  0  0  0  0  0
   -0.0560   -0.4831    0.0004 C   0  0  0  0  0  0  0  0  0  0  0  0
   -1.4049   -0.5012    0.0003 C   0  0  0  0  0  0  0  0  0  0  0  0
    0.3802    0.9207    0.0003 C   0  0  0  0  0  0  0  0  0  0  0  0
   -1.8689    0.9053    0.0003 C   0  0  0  0  0  0  0  0  0  0  0  0
    0.8838   -1.5696    0.0003 C   0  0  0  0  0  0  0  0  0  0  0  0
    1.6829    1.2217    0.0002 C   0  0  0  0  0  0  0  0  0  0  0  0
   -2.3549   -1.5994   -0.0004 C   0  0  0  0  0  0  0  0  0  0  0  0
   -3.1928    1.1213    0.0001 C   0  0  0  0  0  0  0  0  0  0  0  0
    2.1966   -1.2945    0.0004 C   0  0  0  0  0  0  0  0  0  0  0  0
    2.7033    0.1210    0.0001 C   0  0  0  0  0  0  0  0  0  0  0  0
   -3.6580   -1.2526   -0.0007 C   0  0  0  0  0  0  0  0  0  0  0  0
   -0.7623    2.6972    0.0001 H   0  0  0  0  0  0  0  0  0  0  0  0
    0.5151   -2.5895    0.0003 H   0  0  0  0  0  0  0  0  0  0  0  0
   -2.0277   -2.6304   -0.0007 H   0  0  0  0  0  0  0  0  0  0  0  0
   -3.6496    2.1020    0.0000 H   0  0  0  0  0  0  0  0  0  0  0  0
   -4.4623   -1.9772   -0.0012 H   0  0  0  0  0  0  0  0  0  0  0  0
   -5.0774    0.2593   -0.0010 H   0  0  0  0  0  0  0  0  0  0  0  0
  1 11  1  0  0  0  0
  2 14  1  0  0  0  0
  3 15  2  0  0  0  0
  4  8  1  0  0  0  0
  4  9  1  0  0  0  0
  4 17  1  0  0  0  0
  5 13  1  0  0  0  0
  5 16  1  0  0  0  0
  5 22  1  0  0  0  0
  6  7  2  0  0  0  0
  6  8  1  0  0  0  0
  6 10  1  0  0  0  0
  7  9  1  0  0  0  0
  7 12  1  0  0  0  0
  8 11  2  0  0  0  0
  9 13  2  0  0  0  0
 10 14  2  0  0  0  0
 10 18  1  0  0  0  0
 11 15  1  0  0  0  0
 12 16  2  0  0  0  0
 12 19  1  0  0  0  0
 13 20  1  0  0  0  0
 14 15  1  0  0  0  0
 16 21  1  0  0  0  0
M  END
> <PUBCHEM_COMPOUND_CID>
21362698

> <PUBCHEM_CONFORMER_RMSD>
0.4

> <PUBCHEM_CONFORMER_DIVERSEORDER>
1

> <PUBCHEM_MMFF94_PARTIAL_CHARGES>
20
1 -0.14
10 -0.15
11 0.15
12 -0.15
13 -0.05
14 0.15
15 0.54
16 -0.05
17 0.4
18 0.15
19 0.15
2 -0.14
20 0.15
21 0.15
22 0.4
3 -0.57
4 -0.6
5 -0.6
8 0.1
9 0.1

> <PUBCHEM_EFFECTIVE_ROTOR_COUNT>
0

> <PUBCHEM_PHARMACOPHORE_FEATURES>
8
1 3 acceptor
1 4 cation
1 4 donor
1 5 cation
1 5 donor
5 4 6 7 8 9 rings
6 5 7 9 12 13 16 rings
6 6 8 10 11 14 15 rings

> <PUBCHEM_HEAVY_ATOM_COUNT>
16

> <PUBCHEM_ATOM_DEF_STEREO_COUNT>
0

> <PUBCHEM_ATOM_UDEF_STEREO_COUNT>
0

> <PUBCHEM_BOND_DEF_STEREO_COUNT>
0

> <PUBCHEM_BOND_UDEF_STEREO_COUNT>
0

> <PUBCHEM_ISOTOPIC_ATOM_COUNT>
0

> <PUBCHEM_COMPONENT_COUNT>
1

> <PUBCHEM_CACTVS_TAUTO_COUNT>
12

> <PUBCHEM_CONFORMER_ID>
0145F80A00000001

> <PUBCHEM_MMFF94_ENERGY>
61.939

> <PUBCHEM_FEATURE_SELFOVERLAP>
40.796

> <PUBCHEM_SHAPE_FINGERPRINT>
10608611 8 18408881854268904757
10616163 171 18340771566962037495
10967382 1 18410575127644413382
11132069 177 18410568474724280306
11471102 20 18410006615834996439
11578080 2 17097190776379977270
11769659 78 18411978035846615231
12032990 46 18338520733346883279
13140716 1 18050561048015235610
13221675 6 18411138034674691455
13296908 3 18409731729333167723
13897977 150 18410290354259660357
14144814 61 18411700959011192443
14325111 11 18338517559608709601
14576447 43 18128242583815748031
14790565 3 15749812651978057580
15196674 1 18410575046024249479
15219456 202 18410009923028411983
15375462 6 18337391663854344701
15442244 35 18339925887721541809
15536298 74 18342457015376611610
16945 1 18410575058914575524
17804303 29 18339366240608650535
17990270 104 18410011026882590330
19591789 44 16678673064945395505
200 152 18131342030074589671
20559304 39 18410292519228989696
20645477 70 18409442618221057655
21267235 1 18410865368781653231
21501502 16 18411984658918047365
221490 88 18335991946881792330
2255824 54 18263365952998957084
2334 1 18266741474812155237
23366157 5 18113619010530778244
23463225 33 18410856559650339151
23559900 14 18340199700867109882
2748010 2 18265334086954042389
3312278 4 18412266142342300449
335352 9 18122344579957799805
5104073 3 18411419475492163707
53812653 166 18342452668906566616
7364860 26 18413107286144375376
8809292 202 18261680281113948363
9709674 26 18409171042875205115

> <PUBCHEM_SHAPE_MULTIPOLES>
317.18
6.6
2.64
0.61
2.1
0.38
0
-1.48
0
-2.11
0
-0.02
-0.01
0

> <PUBCHEM_SHAPE_SELFOVERLAP>
693.99

> <PUBCHEM_SHAPE_VOLUME>
173.7

> <PUBCHEM_COORDINATE_TYPE>
2
5
10

$$$$
