49830492
  -OEChem-10062121553D

 27 29  0     0  0  0  0  0  0999 V2000
    5.9249    0.5868   -0.0519 Cl  0  0  0  0  0  0  0  0  0  0  0  0
   -3.2537    2.4583   -0.2960 O   0  0  0  0  0  0  0  0  0  0  0  0
   -4.4644    0.4539   -0.0646 N   0  0  0  0  0  0  0  0  0  0  0  0
   -2.6685   -0.9531    0.1044 C   0  0  0  0  0  0  0  0  0  0  0  0
   -2.1834    0.3468   -0.0467 C   0  0  0  0  0  0  0  0  0  0  0  0
   -4.1580   -0.9545    0.1011 C   0  0  0  0  0  0  0  0  0  0  0  0
    0.0540   -0.4258    0.0498 C   0  0  0  0  0  0  0  0  0  0  0  0
   -0.8349    0.6427   -0.0778 C   0  0  0  0  0  0  0  0  0  0  0  0
   -3.3311    1.2522   -0.1555 C   0  0  0  0  0  0  0  0  0  0  0  0
   -1.7919   -2.0139    0.2310 C   0  0  0  0  0  0  0  0  0  0  0  0
   -0.4199   -1.7422    0.2028 C   0  0  0  0  0  0  0  0  0  0  0  0
    1.4800   -0.1788    0.0243 C   0  0  0  0  0  0  0  0  0  0  0  0
    2.3476   -1.1540   -0.4678 C   0  0  0  0  0  0  0  0  0  0  0  0
    1.9870    1.0334    0.4924 C   0  0  0  0  0  0  0  0  0  0  0  0
    3.7220   -0.9172   -0.4914 C   0  0  0  0  0  0  0  0  0  0  0  0
    3.3613    1.2703    0.4689 C   0  0  0  0  0  0  0  0  0  0  0  0
    4.2289    0.2950   -0.0230 C   0  0  0  0  0  0  0  0  0  0  0  0
   -4.5739   -1.5073   -0.7449 H   0  0  0  0  0  0  0  0  0  0  0  0
   -4.5782   -1.2970    1.0499 H   0  0  0  0  0  0  0  0  0  0  0  0
   -0.5190    1.6692   -0.2257 H   0  0  0  0  0  0  0  0  0  0  0  0
   -2.1517   -3.0293    0.3564 H   0  0  0  0  0  0  0  0  0  0  0  0
   -5.4102    0.8198   -0.1095 H   0  0  0  0  0  0  0  0  0  0  0  0
    0.2517   -2.5866    0.3370 H   0  0  0  0  0  0  0  0  0  0  0  0
    1.9976   -2.0995   -0.8729 H   0  0  0  0  0  0  0  0  0  0  0  0
    1.3534    1.8097    0.9126 H   0  0  0  0  0  0  0  0  0  0  0  0
    4.3860   -1.6831   -0.8840 H   0  0  0  0  0  0  0  0  0  0  0  0
    3.7434    2.2167    0.8432 H   0  0  0  0  0  0  0  0  0  0  0  0
  1 17  1  0  0  0  0
  2  9  2  0  0  0  0
  3  6  1  0  0  0  0
  3  9  1  0  0  0  0
  3 22  1  0  0  0  0
  4  5  2  0  0  0  0
  4  6  1  0  0  0  0
  4 10  1  0  0  0  0
  5  8  1  0  0  0  0
  5  9  1  0  0  0  0
  6 18  1  0  0  0  0
  6 19  1  0  0  0  0
  7  8  2  0  0  0  0
  7 11  1  0  0  0  0
  7 12  1  0  0  0  0
  8 20  1  0  0  0  0
 10 11  2  0  0  0  0
 10 21  1  0  0  0  0
 11 23  1  0  0  0  0
 12 13  2  0  0  0  0
 12 14  1  0  0  0  0
 13 15  1  0  0  0  0
 13 24  1  0  0  0  0
 14 16  2  0  0  0  0
 14 25  1  0  0  0  0
 15 17  2  0  0  0  0
 15 26  1  0  0  0  0
 16 17  1  0  0  0  0
 16 27  1  0  0  0  0
M  END
> <PUBCHEM_COMPOUND_CID>
49830492

> <PUBCHEM_CONFORMER_RMSD>
0.6

> <PUBCHEM_CONFORMER_DIVERSEORDER>
1

> <PUBCHEM_MMFF94_PARTIAL_CHARGES>
23
1 -0.18
10 -0.15
11 -0.15
13 -0.15
14 -0.15
15 -0.15
16 -0.15
17 0.18
2 -0.57
20 0.15
21 0.15
22 0.37
23 0.15
24 0.15
25 0.15
26 0.15
27 0.15
3 -0.73
4 -0.14
5 0.09
6 0.44
8 -0.15
9 0.54

> <PUBCHEM_EFFECTIVE_ROTOR_COUNT>
1.4

> <PUBCHEM_PHARMACOPHORE_FEATURES>
5
1 2 acceptor
1 3 donor
5 3 4 5 6 9 rings
6 12 13 14 15 16 17 rings
6 4 5 7 8 10 11 rings

> <PUBCHEM_HEAVY_ATOM_COUNT>
17

> <PUBCHEM_ATOM_DEF_STEREO_COUNT>
0

> <PUBCHEM_ATOM_UDEF_STEREO_COUNT>
0

> <PUBCHEM_BOND_DEF_STEREO_COUNT>
0

> <PUBCHEM_BOND_UDEF_STEREO_COUNT>
0

> <PUBCHEM_ISOTOPIC_ATOM_COUNT>
0

> <PUBCHEM_COMPONENT_COUNT>
1

> <PUBCHEM_CACTVS_TAUTO_COUNT>
2

> <PUBCHEM_CONFORMER_ID>
02F85A5C00000001

> <PUBCHEM_MMFF94_ENERGY>
53.3594

> <PUBCHEM_FEATURE_SELFOVERLAP>
25.46

> <PUBCHEM_SHAPE_FINGERPRINT>
10411042 1 17832427871114190339
10498660 4 18188765050932033093
10608611 8 18341328980718016192
10646746 165 18409448072618240972
11471102 20 18202002123263877494
12107183 9 17756414964235206832
12173636 292 18409163286422205591
12236239 1 17095520716843454882
12390115 104 18198639756524349233
12403259 415 18272364291287845257
12500047 106 18411134753572943342
12916748 109 18334863813523059171
13081056 2 18341894116625168321
15042514 8 18191873546598160779
15196674 1 18411138000552349366
15219456 202 18343304768711212742
15375358 24 18343865519968413158
18186145 218 18201445731113548571
200 152 17275386512268803570
20279233 1 18343027709224684918
20510252 161 18413390930179745745
20645477 56 18410012143426283761
20645477 70 17489316239750259862
21267235 1 18338243751058925562
21279426 13 18197220252768709558
221357 26 18202280290741568129
23175994 123 17418100939974538560
23402539 116 18412256259443204462
23402655 69 18131068208260257796
23557571 272 18341058471019659244
23559900 14 18342172297747097904
3004659 81 18334581197256510526
351380 180 18413385449273883551
3545911 37 18342460352629250792
4028521 119 18335693923828347157
4214541 1 18411138034769656448
474 4 16589161617829429700
495365 180 17489292110502340018
5104073 3 18410012104908878426
542803 24 17458346360080920340
69090 78 18272367598607809295
7364860 26 18266456512596878642
77779 3 18411420609331692006
9709674 26 18341619230255325686

> <PUBCHEM_SHAPE_MULTIPOLES>
340.87
10.25
1.87
0.68
6.72
0.15
0.01
2.45
-0.42
-1.37
-0.01
0.16
-0.01
0.63

> <PUBCHEM_SHAPE_SELFOVERLAP>
753.027

> <PUBCHEM_SHAPE_VOLUME>
185

> <PUBCHEM_COORDINATE_TYPE>
2
5
10

$$$$
