23647265
  -OEChem-10062122003D

 40 43  0     0  0  0  0  0  0999 V2000
    5.5544    1.7594    0.3744 O   0  0  0  0  0  0  0  0  0  0  0  0
    4.6316   -0.1383    1.2194 O   0  0  0  0  0  0  0  0  0  0  0  0
   -1.9519   -2.4773    0.1197 N   0  0  0  0  0  0  0  0  0  0  0  0
   -4.6840    2.3057    0.0772 N   0  0  0  0  0  0  0  0  0  0  0  0
    2.4622   -0.8669   -0.3562 N   0  0  0  0  0  0  0  0  0  0  0  0
   -3.8121    3.1832    0.6014 N   0  0  0  0  0  0  0  0  0  0  0  0
    0.2285   -1.6570   -0.1175 N   0  0  0  0  0  0  0  0  0  0  0  0
   -0.1892   -4.0190    0.1128 N   0  0  0  0  0  0  0  0  0  0  0  0
   -2.9157    1.0798    0.5014 C   0  0  0  0  0  0  0  0  0  0  0  0
   -4.2073    1.0254   -0.0105 C   0  0  0  0  0  0  0  0  0  0  0  0
   -2.7096   -1.2851    0.0783 C   0  0  0  0  0  0  0  0  0  0  0  0
   -2.1449   -0.0937    0.5506 C   0  0  0  0  0  0  0  0  0  0  0  0
   -4.7890   -0.1517   -0.4862 C   0  0  0  0  0  0  0  0  0  0  0  0
   -4.0094   -1.3116   -0.4308 C   0  0  0  0  0  0  0  0  0  0  0  0
   -2.7377    2.4338    0.8583 C   0  0  0  0  0  0  0  0  0  0  0  0
    2.2886    0.5229   -0.4585 C   0  0  0  0  0  0  0  0  0  0  0  0
   -0.5709   -2.7299    0.0342 C   0  0  0  0  0  0  0  0  0  0  0  0
    1.5463   -1.9354   -0.1959 C   0  0  0  0  0  0  0  0  0  0  0  0
    3.2716    1.4028   -0.0052 C   0  0  0  0  0  0  0  0  0  0  0  0
    1.1140    1.0205   -1.0228 C   0  0  0  0  0  0  0  0  0  0  0  0
    3.0800    2.7799   -0.1165 C   0  0  0  0  0  0  0  0  0  0  0  0
    2.0654   -3.2122   -0.1288 C   0  0  0  0  0  0  0  0  0  0  0  0
    0.9224    2.3976   -1.1341 C   0  0  0  0  0  0  0  0  0  0  0  0
    1.9053    3.2773   -0.6810 C   0  0  0  0  0  0  0  0  0  0  0  0
    1.1414   -4.2250    0.0273 C   0  0  0  0  0  0  0  0  0  0  0  0
    4.5099    0.9151    0.5890 C   0  0  0  0  0  0  0  0  0  0  0  0
   -1.1588   -0.0456    0.9965 H   0  0  0  0  0  0  0  0  0  0  0  0
   -5.7985   -0.1701   -0.8815 H   0  0  0  0  0  0  0  0  0  0  0  0
   -4.4361   -2.2438   -0.7954 H   0  0  0  0  0  0  0  0  0  0  0  0
   -2.5078   -3.3270    0.0967 H   0  0  0  0  0  0  0  0  0  0  0  0
   -1.8675    2.9041    1.2942 H   0  0  0  0  0  0  0  0  0  0  0  0
   -5.5950    2.6468   -0.2032 H   0  0  0  0  0  0  0  0  0  0  0  0
    3.4205   -1.1470   -0.1685 H   0  0  0  0  0  0  0  0  0  0  0  0
    0.3441    0.3746   -1.4310 H   0  0  0  0  0  0  0  0  0  0  0  0
    3.8200    3.4922    0.2387 H   0  0  0  0  0  0  0  0  0  0  0  0
    3.1253   -3.4247   -0.1937 H   0  0  0  0  0  0  0  0  0  0  0  0
    0.0119    2.7851   -1.5818 H   0  0  0  0  0  0  0  0  0  0  0  0
    1.7551    4.3495   -0.7667 H   0  0  0  0  0  0  0  0  0  0  0  0
    1.4548   -5.2617    0.0897 H   0  0  0  0  0  0  0  0  0  0  0  0
    6.3838    1.4241    0.7770 H   0  0  0  0  0  0  0  0  0  0  0  0
  1 26  1  0  0  0  0
  1 40  1  0  0  0  0
  2 26  2  0  0  0  0
  3 11  1  0  0  0  0
  3 17  1  0  0  0  0
  3 30  1  0  0  0  0
  4  6  1  0  0  0  0
  4 10  1  0  0  0  0
  4 32  1  0  0  0  0
  5 16  1  0  0  0  0
  5 18  1  0  0  0  0
  5 33  1  0  0  0  0
  6 15  2  0  0  0  0
  7 17  1  0  0  0  0
  7 18  2  0  0  0  0
  8 17  2  0  0  0  0
  8 25  1  0  0  0  0
  9 10  2  0  0  0  0
  9 12  1  0  0  0  0
  9 15  1  0  0  0  0
 10 13  1  0  0  0  0
 11 12  2  0  0  0  0
 11 14  1  0  0  0  0
 12 27  1  0  0  0  0
 13 14  2  0  0  0  0
 13 28  1  0  0  0  0
 14 29  1  0  0  0  0
 15 31  1  0  0  0  0
 16 19  1  0  0  0  0
 16 20  2  0  0  0  0
 18 22  1  0  0  0  0
 19 21  2  0  0  0  0
 19 26  1  0  0  0  0
 20 23  1  0  0  0  0
 20 34  1  0  0  0  0
 21 24  1  0  0  0  0
 21 35  1  0  0  0  0
 22 25  2  0  0  0  0
 22 36  1  0  0  0  0
 23 24  2  0  0  0  0
 23 37  1  0  0  0  0
 24 38  1  0  0  0  0
 25 39  1  0  0  0  0
M  END
> <PUBCHEM_COMPOUND_CID>
23647265

> <PUBCHEM_CONFORMER_RMSD>
1

> <PUBCHEM_CONFORMER_DIVERSEORDER>
1
93
74
112
2
24
80
65
97
42
57
91
105
12
96
73
115
51
20
16
82
44
58
11
99
39
35
25
71
70
8
56
98
67
46
89
30
23
29
40
10
108
84
88
37
110
109
114
66
41
86
14
81
22
113
95
52
32
103
50
13
63
68
83
64
92
72
75
31
5
43
107
36
47
18
101
60
3
102
90
61
28
59
53
78
76
85
27
21
104
34
111
45
26
48
17
4
79
77
15
9
49
69
55
19
62
87
38
33
6
100
54
106
94
7

> <PUBCHEM_MMFF94_PARTIAL_CHARGES>
39
1 -0.65
10 -0.15
11 0.1
12 -0.15
13 -0.15
14 -0.15
15 0.14
16 0.1
17 0.72
18 0.41
19 0.09
2 -0.57
20 -0.15
21 -0.15
22 -0.15
23 -0.15
24 -0.15
25 0.16
26 0.63
27 0.15
28 0.15
29 0.15
3 -0.6
30 0.4
31 0.15
32 0.27
33 0.4
34 0.15
35 0.15
36 0.15
37 0.15
38 0.15
39 0.15
4 0.3
40 0.5
5 -0.6
6 -0.71
7 -0.62
8 -0.62

> <PUBCHEM_EFFECTIVE_ROTOR_COUNT>
5

> <PUBCHEM_PHARMACOPHORE_FEATURES>
12
1 1 acceptor
1 2 acceptor
1 3 donor
1 4 donor
1 5 donor
1 6 acceptor
3 1 2 26 anion
4 3 7 8 17 cation
5 4 6 9 10 15 rings
6 16 19 20 21 23 24 rings
6 7 8 17 18 22 25 rings
6 9 10 11 12 13 14 rings

> <PUBCHEM_HEAVY_ATOM_COUNT>
26

> <PUBCHEM_ATOM_DEF_STEREO_COUNT>
0

> <PUBCHEM_ATOM_UDEF_STEREO_COUNT>
0

> <PUBCHEM_BOND_DEF_STEREO_COUNT>
0

> <PUBCHEM_BOND_UDEF_STEREO_COUNT>
0

> <PUBCHEM_ISOTOPIC_ATOM_COUNT>
0

> <PUBCHEM_COMPONENT_COUNT>
1

> <PUBCHEM_CACTVS_TAUTO_COUNT>
26

> <PUBCHEM_CONFORMER_ID>
0168D42100000001

> <PUBCHEM_MMFF94_ENERGY>
92.877

> <PUBCHEM_FEATURE_SELFOVERLAP>
61.045

> <PUBCHEM_SHAPE_FINGERPRINT>
10708813 3 18268437836559761441
11370993 70 18411417345045965649
11513181 2 18131632244629896583
12107183 9 18335688456788829314
12403260 363 18337946921463167167
12422481 6 18045763625501459114
12788726 201 17760940927472788422
12925494 130 17905337226287253905
12978246 48 18336833112005372417
13140716 1 17832149689828288802
138480 1 17977669705898224727
14466204 15 18410849963029387864
14790565 3 18335991947578384740
15003188 8 18336818693721375997
15256400 18 18339080501235791076
15420108 30 18270101445193099974
17492 89 18339365167637563887
17818456 19 18121214548540318428
19591789 44 18337955563691786334
19930381 70 18409168779875397733
20715895 44 18335975411916845421
20739085 24 18260548875507009556
21796203 349 16971158006015796714
21860390 5 18054793879766573047
22113638 7 18192710266034710253
22393880 68 18271254806750880095
22749437 52 18410298050967694341
23559900 14 18056473959113577402
352729 6 18121228833127246063
392239 28 18265625462511203451
474 4 18409164394439670371
5081480 168 17485123754046573318
6328613 192 18189340250812794620
6371009 1 18266726043036832917
7064713 232 18411971464857980056
79837 15 18264211481266426491
84936 182 18343019956534279371
9981440 41 18409166644997376323

> <PUBCHEM_SHAPE_MULTIPOLES>
493.44
9.64
5.29
0.87
0.76
3.43
-0.02
-6.73
1.52
-0.83
-0.07
-0.21
-0.34
-0.75

> <PUBCHEM_SHAPE_SELFOVERLAP>
1099.49

> <PUBCHEM_SHAPE_VOLUME>
260.2

> <PUBCHEM_COORDINATE_TYPE>
2
5
10

$$$$
