49830663
  -OEChem-10052115183D

 61 64  0     0  0  0  0  0  0999 V2000
   -0.1193    3.1251   -0.2806 O   0  0  0  0  0  0  0  0  0  0  0  0
    0.7566   -5.3644   -0.2311 O   0  0  0  0  0  0  0  0  0  0  0  0
    2.9795    0.1327    0.2863 N   0  0  0  0  0  0  0  0  0  0  0  0
    4.2496    0.4742    0.0096 N   0  0  0  0  0  0  0  0  0  0  0  0
    0.6895    1.0094    0.3008 N   0  0  0  0  0  0  0  0  0  0  0  0
   -1.5699    1.4392    0.4525 N   0  0  0  0  0  0  0  0  0  0  0  0
   -0.3025   -3.4940   -1.1011 N   0  0  0  0  0  0  0  0  0  0  0  0
   -3.4586   -4.6677   -0.5202 N   0  0  0  0  0  0  0  0  0  0  0  0
    5.3476    2.4908   -0.7867 C   0  0  0  0  0  0  0  0  0  0  0  0
    4.1425    1.7454   -0.3860 C   0  0  0  0  0  0  0  0  0  0  0  0
    5.5749    3.7581    0.1068 C   0  0  0  0  0  0  0  0  0  0  0  0
    5.2604    2.9900   -2.2696 C   0  0  0  0  0  0  0  0  0  0  0  0
    6.7053    1.7001   -0.7108 C   0  0  0  0  0  0  0  0  0  0  0  0
    2.8145    2.2121   -0.3619 C   0  0  0  0  0  0  0  0  0  0  0  0
    2.0811    1.1382    0.0800 C   0  0  0  0  0  0  0  0  0  0  0  0
    2.6952   -1.1575    0.7371 C   0  0  0  0  0  0  0  0  0  0  0  0
    1.8392   -1.9796    0.0041 C   0  0  0  0  0  0  0  0  0  0  0  0
    3.2677   -1.6251    1.9200 C   0  0  0  0  0  0  0  0  0  0  0  0
   -0.3085    1.9793    0.1150 C   0  0  0  0  0  0  0  0  0  0  0  0
    1.5556   -3.2691    0.4540 C   0  0  0  0  0  0  0  0  0  0  0  0
   -2.8233    2.0623    0.4119 C   0  0  0  0  0  0  0  0  0  0  0  0
    2.9845   -2.9148    2.3698 C   0  0  0  0  0  0  0  0  0  0  0  0
   -4.0016    1.3392    0.1657 C   0  0  0  0  0  0  0  0  0  0  0  0
    2.1283   -3.7368    1.6369 C   0  0  0  0  0  0  0  0  0  0  0  0
   -5.2402    2.0233    0.1362 C   0  0  0  0  0  0  0  0  0  0  0  0
   -2.8654    3.4404    0.6259 C   0  0  0  0  0  0  0  0  0  0  0  0
    0.6628   -4.1268   -0.3093 C   0  0  0  0  0  0  0  0  0  0  0  0
   -3.9780   -0.0481   -0.0518 C   0  0  0  0  0  0  0  0  0  0  0  0
   -5.2638    3.4105    0.3538 C   0  0  0  0  0  0  0  0  0  0  0  0
   -4.0834    4.1131    0.5969 C   0  0  0  0  0  0  0  0  0  0  0  0
   -6.4186    1.3000   -0.1099 C   0  0  0  0  0  0  0  0  0  0  0  0
   -5.1586   -0.7508   -0.2950 C   0  0  0  0  0  0  0  0  0  0  0  0
   -6.3765   -0.0780   -0.3240 C   0  0  0  0  0  0  0  0  0  0  0  0
   -1.2753   -4.2073   -1.8974 C   0  0  0  0  0  0  0  0  0  0  0  0
   -2.4915   -4.4631   -1.1280 C   0  0  0  0  0  0  0  0  0  0  0  0
    5.6885    3.4743    1.1596 H   0  0  0  0  0  0  0  0  0  0  0  0
    6.4720    4.3097   -0.1963 H   0  0  0  0  0  0  0  0  0  0  0  0
    4.7240    4.4458    0.0398 H   0  0  0  0  0  0  0  0  0  0  0  0
    6.1590    3.5449   -2.5619 H   0  0  0  0  0  0  0  0  0  0  0  0
    4.3995    3.6532   -2.4126 H   0  0  0  0  0  0  0  0  0  0  0  0
    5.1436    2.1438   -2.9567 H   0  0  0  0  0  0  0  0  0  0  0  0
    7.5531    2.3204   -1.0233 H   0  0  0  0  0  0  0  0  0  0  0  0
    6.6784    0.8167   -1.3595 H   0  0  0  0  0  0  0  0  0  0  0  0
    6.8995    1.3567    0.3121 H   0  0  0  0  0  0  0  0  0  0  0  0
    2.4515    3.1931   -0.6312 H   0  0  0  0  0  0  0  0  0  0  0  0
    0.3852    0.1072    0.6538 H   0  0  0  0  0  0  0  0  0  0  0  0
    1.4390   -1.6100   -0.9368 H   0  0  0  0  0  0  0  0  0  0  0  0
    3.9337   -0.9965    2.5063 H   0  0  0  0  0  0  0  0  0  0  0  0
    3.4289   -3.2781    3.2918 H   0  0  0  0  0  0  0  0  0  0  0  0
   -1.5681    0.4324    0.5746 H   0  0  0  0  0  0  0  0  0  0  0  0
    1.9167   -4.7365    2.0074 H   0  0  0  0  0  0  0  0  0  0  0  0
   -1.9803    4.0228    0.8603 H   0  0  0  0  0  0  0  0  0  0  0  0
   -3.0605   -0.6288   -0.0531 H   0  0  0  0  0  0  0  0  0  0  0  0
   -6.2047    3.9566    0.3379 H   0  0  0  0  0  0  0  0  0  0  0  0
   -4.1173    5.1843    0.7731 H   0  0  0  0  0  0  0  0  0  0  0  0
   -7.3819    1.8052   -0.1372 H   0  0  0  0  0  0  0  0  0  0  0  0
   -5.1272   -1.8231   -0.4645 H   0  0  0  0  0  0  0  0  0  0  0  0
   -7.2950   -0.6255   -0.5139 H   0  0  0  0  0  0  0  0  0  0  0  0
   -0.3974   -2.4842   -1.0765 H   0  0  0  0  0  0  0  0  0  0  0  0
   -1.4956   -3.5876   -2.7720 H   0  0  0  0  0  0  0  0  0  0  0  0
   -0.8362   -5.1473   -2.2465 H   0  0  0  0  0  0  0  0  0  0  0  0
  1 19  2  0  0  0  0
  2 27  2  0  0  0  0
  3  4  1  0  0  0  0
  3 15  1  0  0  0  0
  3 16  1  0  0  0  0
  4 10  2  0  0  0  0
  5 15  1  0  0  0  0
  5 19  1  0  0  0  0
  5 46  1  0  0  0  0
  6 19  1  0  0  0  0
  6 21  1  0  0  0  0
  6 50  1  0  0  0  0
  7 27  1  0  0  0  0
  7 34  1  0  0  0  0
  7 59  1  0  0  0  0
  8 35  3  0  0  0  0
  9 10  1  0  0  0  0
  9 11  1  0  0  0  0
  9 12  1  0  0  0  0
  9 13  1  0  0  0  0
 10 14  1  0  0  0  0
 11 36  1  0  0  0  0
 11 37  1  0  0  0  0
 11 38  1  0  0  0  0
 12 39  1  0  0  0  0
 12 40  1  0  0  0  0
 12 41  1  0  0  0  0
 13 42  1  0  0  0  0
 13 43  1  0  0  0  0
 13 44  1  0  0  0  0
 14 15  2  0  0  0  0
 14 45  1  0  0  0  0
 16 17  1  0  0  0  0
 16 18  2  0  0  0  0
 17 20  2  0  0  0  0
 17 47  1  0  0  0  0
 18 22  1  0  0  0  0
 18 48  1  0  0  0  0
 20 24  1  0  0  0  0
 20 27  1  0  0  0  0
 21 23  1  0  0  0  0
 21 26  2  0  0  0  0
 22 24  2  0  0  0  0
 22 49  1  0  0  0  0
 23 25  1  0  0  0  0
 23 28  2  0  0  0  0
 24 51  1  0  0  0  0
 25 29  1  0  0  0  0
 25 31  2  0  0  0  0
 26 30  1  0  0  0  0
 26 52  1  0  0  0  0
 28 32  1  0  0  0  0
 28 53  1  0  0  0  0
 29 30  2  0  0  0  0
 29 54  1  0  0  0  0
 30 55  1  0  0  0  0
 31 33  1  0  0  0  0
 31 56  1  0  0  0  0
 32 33  2  0  0  0  0
 32 57  1  0  0  0  0
 33 58  1  0  0  0  0
 34 35  1  0  0  0  0
 34 60  1  0  0  0  0
 34 61  1  0  0  0  0
M  END
> <PUBCHEM_COMPOUND_CID>
49830663

> <PUBCHEM_CONFORMER_RMSD>
1.2

> <PUBCHEM_CONFORMER_DIVERSEORDER>
1
75
94
39
66
72
78
21
138
87
55
80
139
96
124
150
48
60
119
117
116
77
102
123
98
35
7
118
133
156
33
143
101
108
134
92
20
74
142
63
141
86
41
99
23
100
95
37
71
132
97
28
131
130
145
59
19
105
151
11
157
34
17
83
127
29
30
109
122
43
106
57
76
15
121
146
22
64
114
113
4
153
58
61
84
144
65
111
6
54
128
103
47
67
56
82
5
70
91
24
158
155
53
136
89
149
81
36
46
93
32
159
129
104
147
135
90
73
62
69
126
125
26
154
52
152
115
148
18
112
140
110
49
79
8
40
88
14
44
42
85
38
13
68
45
120
31
10
137
12
25
107
16
27
50
9
2
51
3

> <PUBCHEM_MMFF94_PARTIAL_CHARGES>
45
1 -0.57
10 0.11
14 -0.15
15 -0.09
16 -0.02
17 -0.15
18 -0.15
19 0.69
2 -0.57
20 0.09
21 0.12
22 -0.15
24 -0.15
26 -0.15
27 0.54
28 -0.15
29 -0.15
3 0.59
30 -0.15
31 -0.15
32 -0.15
33 -0.15
34 0.5
35 0.36
4 -0.71
45 0.15
46 0.37
47 0.15
48 0.15
49 0.15
5 -0.49
50 0.37
51 0.15
52 0.15
53 0.15
54 0.15
55 0.15
56 0.15
57 0.15
58 0.15
59 0.37
6 -0.55
7 -0.73
8 -0.56
9 0.18

> <PUBCHEM_EFFECTIVE_ROTOR_COUNT>
9

> <PUBCHEM_PHARMACOPHORE_FEATURES>
12
1 1 acceptor
1 2 acceptor
1 4 acceptor
1 5 donor
1 6 donor
1 7 donor
1 8 acceptor
4 9 11 12 13 hydrophobe
5 3 4 10 14 15 rings
6 16 17 18 20 22 24 rings
6 21 23 25 26 29 30 rings
6 23 25 28 31 32 33 rings

> <PUBCHEM_HEAVY_ATOM_COUNT>
35

> <PUBCHEM_ATOM_DEF_STEREO_COUNT>
0

> <PUBCHEM_ATOM_UDEF_STEREO_COUNT>
0

> <PUBCHEM_BOND_DEF_STEREO_COUNT>
0

> <PUBCHEM_BOND_UDEF_STEREO_COUNT>
0

> <PUBCHEM_ISOTOPIC_ATOM_COUNT>
0

> <PUBCHEM_COMPONENT_COUNT>
1

> <PUBCHEM_CACTVS_TAUTO_COUNT>
14

> <PUBCHEM_CONFORMER_ID>
02F85B0700000001

> <PUBCHEM_MMFF94_ENERGY>
118.4369

> <PUBCHEM_FEATURE_SELFOVERLAP>
60.974

> <PUBCHEM_SHAPE_FINGERPRINT>
10190206 1 18121212340979863380
10595046 47 18336265661296198073
11135926 11 18335698317416990765
11136131 41 18261948562199260370
11204353 107 18266738172388922049
11513181 2 18130504128979053447
12107183 9 17617096906753476065
12788726 201 17975970187961664018
13165053 182 16307127148551275076
13590594 115 17690565607758378794
1361 2 18333736827369980808
13692114 37 18270674377166689356
14790565 3 18410858780528739508
15001296 14 18409165493782512583
15250474 111 18339633444005213521
15264996 163 17832136496248249663
15320467 1 18340484586396305511
15400415 2 18412264995913924377
15781502 409 18341626900960967414
16993438 75 18044666523034234475
18365409 1 18120945159317061100
18681886 176 18267862797006339570
19311894 1 17836929275612144758
1979834 28 17767671772533072107
20580484 21 17115231365907556849
21133410 62 18043793489870769239
23559900 14 17910391693433223937
23929065 36 17838041960690503944
4073 2 18114472210079687681
6036956 94 18410004417750621189
6176135 31 18053377709353869515
6608658 132 17985531498133114623
9658208 31 18268715077553793360
9980921 221 17975149935292012988

> <PUBCHEM_SHAPE_MULTIPOLES>
678.66
14.78
8.16
1.42
5.37
9.02
0.08
-16.17
-2.02
0.01
-1.35
-1.68
1.15
-4.92

> <PUBCHEM_SHAPE_SELFOVERLAP>
1473.731

> <PUBCHEM_SHAPE_VOLUME>
367.1

> <PUBCHEM_COORDINATE_TYPE>
2
5
10

$$$$
