447721
  -OEChem-10062121583D

 66 70  0     1  0  0  0  0  0999 V2000
    1.3694   -4.9798    1.6470 F   0  0  0  0  0  0  0  0  0  0  0  0
    2.0359   -5.8251   -0.2358 F   0  0  0  0  0  0  0  0  0  0  0  0
   -0.0836   -5.7942    0.2491 F   0  0  0  0  0  0  0  0  0  0  0  0
   -6.8999    1.2526   -1.5433 N   0  0  0  0  0  0  0  0  0  0  0  0
   -2.1807    0.9453    1.0865 N   0  0  0  0  0  0  0  0  0  0  0  0
   -2.4544   -0.5943   -0.4903 N   0  0  0  0  0  0  0  0  0  0  0  0
    0.9842    1.5739    1.2245 N   0  0  0  0  0  0  0  0  0  0  0  0
    2.9340    2.8634    1.4270 N   0  0  0  0  0  0  0  0  0  0  0  0
    2.4129    1.3622    3.1535 N   0  0  0  0  0  0  0  0  0  0  0  0
   -4.4703    0.8275    0.0306 C   0  0  0  0  0  0  0  0  0  0  0  0
   -4.6060    1.9825   -0.9742 C   0  0  0  0  0  0  0  0  0  0  0  0
   -5.4094   -0.3255   -0.3576 C   0  0  0  0  0  0  0  0  0  0  0  0
   -6.0694    2.3903   -1.1469 C   0  0  0  0  0  0  0  0  0  0  0  0
   -6.8404    0.1754   -0.5548 C   0  0  0  0  0  0  0  0  0  0  0  0
   -3.0298    0.3684    0.1885 C   0  0  0  0  0  0  0  0  0  0  0  0
   -0.9779    0.3066    0.9745 C   0  0  0  0  0  0  0  0  0  0  0  0
   -1.1716   -0.6396   -0.0044 C   0  0  0  0  0  0  0  0  0  0  0  0
   -2.4995    2.0309    1.9875 C   0  0  0  0  0  0  0  0  0  0  0  0
    0.1833    0.6376    1.7681 C   0  0  0  0  0  0  0  0  0  0  0  0
   -0.1860   -1.5644   -0.4777 C   0  0  0  0  0  0  0  0  0  0  0  0
   -0.0477   -2.8147    0.1298 C   0  0  0  0  0  0  0  0  0  0  0  0
    0.6419   -1.2196   -1.5486 C   0  0  0  0  0  0  0  0  0  0  0  0
    0.4196    0.0243    2.9777 C   0  0  0  0  0  0  0  0  0  0  0  0
    0.9129   -3.7149   -0.3310 C   0  0  0  0  0  0  0  0  0  0  0  0
    2.0676    1.8848    1.9615 C   0  0  0  0  0  0  0  0  0  0  0  0
    1.6025   -2.1197   -2.0094 C   0  0  0  0  0  0  0  0  0  0  0  0
    2.6985    3.5047    0.1715 C   0  0  2  0  0  0  0  0  0  0  0  0
    1.5632    0.4309    3.6344 C   0  0  0  0  0  0  0  0  0  0  0  0
    1.7380   -3.3674   -1.4007 C   0  0  0  0  0  0  0  0  0  0  0  0
    1.0579   -5.0495    0.3190 C   0  0  0  0  0  0  0  0  0  0  0  0
    3.1085    2.5943   -0.9660 C   0  0  0  0  0  0  0  0  0  0  0  0
    3.4179    4.8516    0.1459 C   0  0  0  0  0  0  0  0  0  0  0  0
    2.4084    2.6461   -2.1586 C   0  0  0  0  0  0  0  0  0  0  0  0
    4.1743    1.7295   -0.7882 C   0  0  0  0  0  0  0  0  0  0  0  0
    2.7860    1.8068   -3.2068 C   0  0  0  0  0  0  0  0  0  0  0  0
    4.5520    0.8901   -1.8365 C   0  0  0  0  0  0  0  0  0  0  0  0
    3.8578    0.9288   -3.0456 C   0  0  0  0  0  0  0  0  0  0  0  0
   -4.8201    1.1910    1.0069 H   0  0  0  0  0  0  0  0  0  0  0  0
   -4.1914    1.6811   -1.9458 H   0  0  0  0  0  0  0  0  0  0  0  0
   -4.0241    2.8517   -0.6477 H   0  0  0  0  0  0  0  0  0  0  0  0
   -5.3959   -1.1006    0.4185 H   0  0  0  0  0  0  0  0  0  0  0  0
   -5.0616   -0.8033   -1.2834 H   0  0  0  0  0  0  0  0  0  0  0  0
   -6.4556    2.8293   -0.2191 H   0  0  0  0  0  0  0  0  0  0  0  0
   -6.1426    3.1671   -1.9158 H   0  0  0  0  0  0  0  0  0  0  0  0
   -7.2596    0.5199    0.3982 H   0  0  0  0  0  0  0  0  0  0  0  0
   -7.4725   -0.6524   -0.8942 H   0  0  0  0  0  0  0  0  0  0  0  0
   -6.5666    0.8970   -2.4397 H   0  0  0  0  0  0  0  0  0  0  0  0
   -2.9760    2.8354    1.4238 H   0  0  0  0  0  0  0  0  0  0  0  0
   -1.5953    2.4250    2.4551 H   0  0  0  0  0  0  0  0  0  0  0  0
   -3.1730    1.6472    2.7580 H   0  0  0  0  0  0  0  0  0  0  0  0
   -0.6880   -3.0925    0.9649 H   0  0  0  0  0  0  0  0  0  0  0  0
    0.5467   -0.2520   -2.0355 H   0  0  0  0  0  0  0  0  0  0  0  0
   -0.2366   -0.7273    3.3981 H   0  0  0  0  0  0  0  0  0  0  0  0
    2.2430   -1.8515   -2.8443 H   0  0  0  0  0  0  0  0  0  0  0  0
    1.6274    3.7316    0.0772 H   0  0  0  0  0  0  0  0  0  0  0  0
    1.8363    0.0060    4.5944 H   0  0  0  0  0  0  0  0  0  0  0  0
    2.4916   -4.0550   -1.7745 H   0  0  0  0  0  0  0  0  0  0  0  0
    3.7678    3.0718    1.9647 H   0  0  0  0  0  0  0  0  0  0  0  0
    4.5033    4.7290    0.2403 H   0  0  0  0  0  0  0  0  0  0  0  0
    3.0841    5.4888    0.9725 H   0  0  0  0  0  0  0  0  0  0  0  0
    3.2251    5.3834   -0.7922 H   0  0  0  0  0  0  0  0  0  0  0  0
    1.5728    3.3266   -2.2939 H   0  0  0  0  0  0  0  0  0  0  0  0
    4.7479    1.6894    0.1327 H   0  0  0  0  0  0  0  0  0  0  0  0
    2.2448    1.8361   -4.1480 H   0  0  0  0  0  0  0  0  0  0  0  0
    5.3888    0.2089   -1.7128 H   0  0  0  0  0  0  0  0  0  0  0  0
    4.1515    0.2750   -3.8616 H   0  0  0  0  0  0  0  0  0  0  0  0
  1 30  1  0  0  0  0
  2 30  1  0  0  0  0
  3 30  1  0  0  0  0
  4 13  1  0  0  0  0
  4 14  1  0  0  0  0
  4 47  1  0  0  0  0
  5 15  1  0  0  0  0
  5 16  1  0  0  0  0
  5 18  1  0  0  0  0
  6 15  2  0  0  0  0
  6 17  1  0  0  0  0
  7 19  2  0  0  0  0
  7 25  1  0  0  0  0
  8 25  1  0  0  0  0
  8 27  1  0  0  0  0
  8 58  1  0  0  0  0
  9 25  2  0  0  0  0
  9 28  1  0  0  0  0
 10 11  1  0  0  0  0
 10 12  1  0  0  0  0
 10 15  1  0  0  0  0
 10 38  1  0  0  0  0
 11 13  1  0  0  0  0
 11 39  1  0  0  0  0
 11 40  1  0  0  0  0
 12 14  1  0  0  0  0
 12 41  1  0  0  0  0
 12 42  1  0  0  0  0
 13 43  1  0  0  0  0
 13 44  1  0  0  0  0
 14 45  1  0  0  0  0
 14 46  1  0  0  0  0
 16 17  2  0  0  0  0
 16 19  1  0  0  0  0
 17 20  1  0  0  0  0
 18 48  1  0  0  0  0
 18 49  1  0  0  0  0
 18 50  1  0  0  0  0
 19 23  1  0  0  0  0
 20 21  2  0  0  0  0
 20 22  1  0  0  0  0
 21 24  1  0  0  0  0
 21 51  1  0  0  0  0
 22 26  2  0  0  0  0
 22 52  1  0  0  0  0
 23 28  2  0  0  0  0
 23 53  1  0  0  0  0
 24 29  2  0  0  0  0
 24 30  1  0  0  0  0
 26 29  1  0  0  0  0
 26 54  1  0  0  0  0
 27 31  1  0  0  0  0
 27 32  1  0  0  0  0
 27 55  1  0  0  0  0
 28 56  1  0  0  0  0
 29 57  1  0  0  0  0
 31 33  2  0  0  0  0
 31 34  1  0  0  0  0
 32 59  1  0  0  0  0
 32 60  1  0  0  0  0
 32 61  1  0  0  0  0
 33 35  1  0  0  0  0
 33 62  1  0  0  0  0
 34 36  2  0  0  0  0
 34 63  1  0  0  0  0
 35 37  2  0  0  0  0
 35 64  1  0  0  0  0
 36 37  1  0  0  0  0
 36 65  1  0  0  0  0
 37 66  1  0  0  0  0
M  END
> <PUBCHEM_COMPOUND_CID>
447721

> <PUBCHEM_CONFORMER_RMSD>
1

> <PUBCHEM_CONFORMER_DIVERSEORDER>
1
93
117
233
98
60
258
204
42
205
53
35
121
113
77
232
237
25
257
89
189
108
253
81
126
187
185
201
194
146
198
58
48
111
192
148
87
62
150
55
234
28
54
163
101
202
156
219
172
254
61
243
102
166
39
59
51
71
208
209
183
57
248
266
170
241
182
92
262
38
154
83
44
149
85
236
67
107
129
134
147
184
84
14
265
171
186
250
151
199
240
188
130
226
124
22
207
131
74
155
238
193
37
225
211
66
177
251
159
13
244
29
90
255
19
153
145
73
239
206
167
132
224
217
27
20
12
9
23
68
36
261
41
247
242
72
123
141
178
18
180
235
160
96
115
196
116
158
246
128
190
122
118
168
249
165
56
34
220
144
50
112
231
69
105
109
164
245
223
214
191
215
119
140
212
30
221
195
228
259
142
210
136
179
80
263
99
125
218
173
227
120
181
264
162
203
95
91
256
5
252
49
46
88
11
78
176
32
70
10
86
157
45
260
114
82
133
75
33
106
169
43
200
76
127
4
65
40
230
17
175
21
3
100
161
229
152
24
143
47
197
137
52
79
103
104
110
64
139
216
138
2
26
63
15
31
16
213
174
7
135
97
222
94
6
8

> <PUBCHEM_MMFF94_PARTIAL_CHARGES>
47
1 -0.34
10 0.18
13 0.27
14 0.27
15 0.01
16 -0.2
17 0.17
18 0.26
19 0.36
2 -0.34
20 0.05
21 -0.15
22 -0.15
23 -0.15
24 -0.14
25 0.72
26 -0.15
27 0.51
28 0.16
29 -0.15
3 -0.34
30 1.16
31 -0.14
33 -0.15
34 -0.15
35 -0.15
36 -0.15
37 -0.15
4 -0.9
47 0.36
5 0.05
51 0.15
52 0.15
53 0.15
54 0.15
56 0.15
57 0.15
58 0.4
6 -0.57
62 0.15
63 0.15
64 0.15
65 0.15
66 0.15
7 -0.62
8 -0.87
9 -0.62

> <PUBCHEM_EFFECTIVE_ROTOR_COUNT>
8.2

> <PUBCHEM_PHARMACOPHORE_FEATURES>
11
1 4 cation
1 4 donor
1 7 acceptor
1 8 donor
3 5 6 15 cation
4 7 8 9 25 cation
5 5 6 15 16 17 rings
6 20 21 22 24 26 29 rings
6 31 33 34 35 36 37 rings
6 4 10 11 12 13 14 rings
6 7 9 19 23 25 28 rings

> <PUBCHEM_HEAVY_ATOM_COUNT>
37

> <PUBCHEM_ATOM_DEF_STEREO_COUNT>
1

> <PUBCHEM_ATOM_UDEF_STEREO_COUNT>
0

> <PUBCHEM_BOND_DEF_STEREO_COUNT>
0

> <PUBCHEM_BOND_UDEF_STEREO_COUNT>
0

> <PUBCHEM_ISOTOPIC_ATOM_COUNT>
0

> <PUBCHEM_COMPONENT_COUNT>
1

> <PUBCHEM_CACTVS_TAUTO_COUNT>
3

> <PUBCHEM_CONFORMER_ID>
0006D4E900000001

> <PUBCHEM_MMFF94_ENERGY>
85.009

> <PUBCHEM_FEATURE_SELFOVERLAP>
55.823

> <PUBCHEM_SHAPE_FINGERPRINT>
10675989 125 18202290207679188872
10721379 63 18271531871128707473
11582403 64 17313394486110517599
11763715 3 16160164813494853865
12160290 23 17411324825869375419
12422481 6 12396573091854097597
12633257 1 14129883916437870641
12788726 201 17398090038475709643
133893 2 18129949962306773801
13636023 20 18126291839639392724
14068700 675 17617940231744718335
15082195 135 18264194822048348741
17899979 19 18116719504952577486
19309040 13 16517961643019195644
20775438 99 16056300839036063581
21716022 299 18055925294300380582
23366157 5 18270115708979164539
23559900 14 18193829350603433199
23569914 152 15479304384986232133
4046055 25 17474386872904383895
44802255 64 17827954972054470500
57527452 28 18342735175313939626
57527585 103 17120077239803747782
5951187 136 17167876265474094693
6669772 16 17059760234816016204

> <PUBCHEM_SHAPE_MULTIPOLES>
709.74
10.52
6.81
3.19
21.1
12.3
1.39
-11.74
-7.37
-6.17
0.27
-3.34
-1.51
0.65

> <PUBCHEM_SHAPE_SELFOVERLAP>
1551.426

> <PUBCHEM_SHAPE_VOLUME>
387.4

> <PUBCHEM_COORDINATE_TYPE>
2
5
10

$$$$
