45375866
  -OEChem-10052115143D

 68 72  0     0  0  0  0  0  0999 V2000
    3.5485   -2.6799   -0.6866 S   0  0  0  0  0  0  0  0  0  0  0  0
    4.6543   -3.4512   -0.1609 O   0  0  0  0  0  0  0  0  0  0  0  0
    2.7995   -3.1388   -1.8367 O   0  0  0  0  0  0  0  0  0  0  0  0
    4.0712   -1.0736   -0.9682 N   0  0  0  0  0  0  0  0  0  0  0  0
    4.3857    1.7841   -0.9140 N   0  0  0  0  0  0  0  0  0  0  0  0
   -3.0732    0.8450    0.6143 N   0  0  0  0  0  0  0  0  0  0  0  0
    1.4753    3.7443   -0.5804 N   0  0  0  0  0  0  0  0  0  0  0  0
   -5.2718   -2.1272   -1.4034 N   0  0  0  0  0  0  0  0  0  0  0  0
   -6.3997    2.2276    0.2859 N   0  0  0  0  0  0  0  0  0  0  0  0
    3.0771   -0.1825   -1.6311 C   0  0  0  0  0  0  0  0  0  0  0  0
    4.7201   -0.3977    0.1910 C   0  0  0  0  0  0  0  0  0  0  0  0
    3.7619    1.1132   -2.0634 C   0  0  0  0  0  0  0  0  0  0  0  0
    5.3733    0.9022   -0.2765 C   0  0  0  0  0  0  0  0  0  0  0  0
    5.0096    3.0401   -1.3285 C   0  0  0  0  0  0  0  0  0  0  0  0
    2.4061   -2.4060    0.6312 C   0  0  0  0  0  0  0  0  0  0  0  0
    1.0643   -2.1489    0.3498 C   0  0  0  0  0  0  0  0  0  0  0  0
    2.8458   -2.4470    1.9544 C   0  0  0  0  0  0  0  0  0  0  0  0
    0.1622   -1.9325    1.3916 C   0  0  0  0  0  0  0  0  0  0  0  0
    1.9437   -2.2310    2.9961 C   0  0  0  0  0  0  0  0  0  0  0  0
    0.6020   -1.9736    2.7148 C   0  0  0  0  0  0  0  0  0  0  0  0
   -1.2371   -1.6644    1.0987 C   0  0  0  0  0  0  0  0  0  0  0  0
   -1.0434    2.0261    1.2527 C   0  0  0  0  0  0  0  0  0  0  0  0
    0.0971    2.7610    0.8724 C   0  0  0  0  0  0  0  0  0  0  0  0
   -1.9286    1.5795    0.2648 C   0  0  0  0  0  0  0  0  0  0  0  0
    0.3082    3.0205   -0.4835 C   0  0  0  0  0  0  0  0  0  0  0  0
   -3.1977   -1.3464   -0.4376 C   0  0  0  0  0  0  0  0  0  0  0  0
   -3.8111   -0.1558   -0.0643 C   0  0  0  0  0  0  0  0  0  0  0  0
   -1.7766   -1.6007   -0.1415 C   0  0  0  0  0  0  0  0  0  0  0  0
   -1.6925    1.8537   -1.0810 C   0  0  0  0  0  0  0  0  0  0  0  0
   -0.5679    2.5805   -1.4820 C   0  0  0  0  0  0  0  0  0  0  0  0
    1.1772    3.3540    1.5842 C   0  0  0  0  0  0  0  0  0  0  0  0
   -1.3235    1.7165    2.6915 C   0  0  0  0  0  0  0  0  0  0  0  0
   -3.9650   -2.2918   -1.0990 C   0  0  0  0  0  0  0  0  0  0  0  0
    2.0077    3.9509    0.6639 C   0  0  0  0  0  0  0  0  0  0  0  0
   -5.1541    0.0503   -0.3599 C   0  0  0  0  0  0  0  0  0  0  0  0
   -5.8339   -0.9573   -1.0249 C   0  0  0  0  0  0  0  0  0  0  0  0
   -3.3733   -3.5953   -1.5305 C   0  0  0  0  0  0  0  0  0  0  0  0
   -5.8415    1.2520   -0.0034 C   0  0  0  0  0  0  0  0  0  0  0  0
    2.6671   -0.6705   -2.5210 H   0  0  0  0  0  0  0  0  0  0  0  0
    2.2535    0.0498   -0.9477 H   0  0  0  0  0  0  0  0  0  0  0  0
    5.4921   -1.0445    0.6202 H   0  0  0  0  0  0  0  0  0  0  0  0
    3.9825   -0.1612    0.9648 H   0  0  0  0  0  0  0  0  0  0  0  0
    4.5109    0.8943   -2.8362 H   0  0  0  0  0  0  0  0  0  0  0  0
    3.0072    1.7682   -2.5148 H   0  0  0  0  0  0  0  0  0  0  0  0
    6.1937    0.6738   -0.9701 H   0  0  0  0  0  0  0  0  0  0  0  0
    5.8101    1.4023    0.5963 H   0  0  0  0  0  0  0  0  0  0  0  0
    5.4160    3.5706   -0.4603 H   0  0  0  0  0  0  0  0  0  0  0  0
    5.8225    2.8805   -2.0463 H   0  0  0  0  0  0  0  0  0  0  0  0
    4.2746    3.7078   -1.7901 H   0  0  0  0  0  0  0  0  0  0  0  0
    0.7613   -2.1212   -0.6904 H   0  0  0  0  0  0  0  0  0  0  0  0
    3.8860   -2.6439    2.1978 H   0  0  0  0  0  0  0  0  0  0  0  0
    2.2863   -2.2620    4.0263 H   0  0  0  0  0  0  0  0  0  0  0  0
   -0.0854   -1.8064    3.5405 H   0  0  0  0  0  0  0  0  0  0  0  0
   -1.8906   -1.5364    1.9590 H   0  0  0  0  0  0  0  0  0  0  0  0
   -1.1867   -1.7419   -1.0408 H   0  0  0  0  0  0  0  0  0  0  0  0
   -3.5068    1.1333    1.4864 H   0  0  0  0  0  0  0  0  0  0  0  0
   -2.3819    1.5139   -1.8509 H   0  0  0  0  0  0  0  0  0  0  0  0
   -0.3848    2.7939   -2.5297 H   0  0  0  0  0  0  0  0  0  0  0  0
    1.3385    3.3507    2.6533 H   0  0  0  0  0  0  0  0  0  0  0  0
    1.8781    4.0764   -1.4457 H   0  0  0  0  0  0  0  0  0  0  0  0
   -0.4824    1.9813    3.3393 H   0  0  0  0  0  0  0  0  0  0  0  0
   -1.5125    0.6515    2.8453 H   0  0  0  0  0  0  0  0  0  0  0  0
   -2.1937    2.2858    3.0352 H   0  0  0  0  0  0  0  0  0  0  0  0
    2.9282    4.5043    0.7842 H   0  0  0  0  0  0  0  0  0  0  0  0
   -6.8839   -0.8597   -1.2857 H   0  0  0  0  0  0  0  0  0  0  0  0
   -2.5765   -3.4357   -2.2640 H   0  0  0  0  0  0  0  0  0  0  0  0
   -4.1314   -4.2297   -2.0030 H   0  0  0  0  0  0  0  0  0  0  0  0
   -2.9760   -4.1461   -0.6719 H   0  0  0  0  0  0  0  0  0  0  0  0
  1  2  2  0  0  0  0
  1  3  2  0  0  0  0
  1  4  1  0  0  0  0
  1 15  1  0  0  0  0
  4 10  1  0  0  0  0
  4 11  1  0  0  0  0
  5 12  1  0  0  0  0
  5 13  1  0  0  0  0
  5 14  1  0  0  0  0
  6 24  1  0  0  0  0
  6 27  1  0  0  0  0
  6 56  1  0  0  0  0
  7 25  1  0  0  0  0
  7 34  1  0  0  0  0
  7 60  1  0  0  0  0
  8 33  2  0  0  0  0
  8 36  1  0  0  0  0
  9 38  3  0  0  0  0
 10 12  1  0  0  0  0
 10 39  1  0  0  0  0
 10 40  1  0  0  0  0
 11 13  1  0  0  0  0
 11 41  1  0  0  0  0
 11 42  1  0  0  0  0
 12 43  1  0  0  0  0
 12 44  1  0  0  0  0
 13 45  1  0  0  0  0
 13 46  1  0  0  0  0
 14 47  1  0  0  0  0
 14 48  1  0  0  0  0
 14 49  1  0  0  0  0
 15 16  1  0  0  0  0
 15 17  2  0  0  0  0
 16 18  2  0  0  0  0
 16 50  1  0  0  0  0
 17 19  1  0  0  0  0
 17 51  1  0  0  0  0
 18 20  1  0  0  0  0
 18 21  1  0  0  0  0
 19 20  2  0  0  0  0
 19 52  1  0  0  0  0
 20 53  1  0  0  0  0
 21 28  2  0  0  0  0
 21 54  1  0  0  0  0
 22 23  1  0  0  0  0
 22 24  2  0  0  0  0
 22 32  1  0  0  0  0
 23 25  2  0  0  0  0
 23 31  1  0  0  0  0
 24 29  1  0  0  0  0
 25 30  1  0  0  0  0
 26 27  2  0  0  0  0
 26 28  1  0  0  0  0
 26 33  1  0  0  0  0
 27 35  1  0  0  0  0
 28 55  1  0  0  0  0
 29 30  2  0  0  0  0
 29 57  1  0  0  0  0
 30 58  1  0  0  0  0
 31 34  2  0  0  0  0
 31 59  1  0  0  0  0
 32 61  1  0  0  0  0
 32 62  1  0  0  0  0
 32 63  1  0  0  0  0
 33 37  1  0  0  0  0
 34 64  1  0  0  0  0
 35 36  2  0  0  0  0
 35 38  1  0  0  0  0
 36 65  1  0  0  0  0
 37 66  1  0  0  0  0
 37 67  1  0  0  0  0
 37 68  1  0  0  0  0
M  END
> <PUBCHEM_COMPOUND_CID>
45375866

> <PUBCHEM_CONFORMER_RMSD>
1.2

> <PUBCHEM_CONFORMER_DIVERSEORDER>
2
45
115
14
52
96
25
109
105
133
23
67
117
114
142
112
123
99
130
111
76
140
122
91
150
82
106
80
26
95
64
92
22
139
100
129
24
107
41
50
149
61
141
49
32
120
81
116
47
136
40
27
113
20
98
55
16
128
30
62
135
110
86
148
137
46
79
118
69
143
34
38
90
72
39
127
126
66
59
53
119
75
101
131
65
33
103
153
147
88
138
145
89
97
134
35
48
104
151
102
58
63
152
4
56
108
37
51
78
73
93
60
77
5
146
70
57
9
28
125
11
74
121
13
43
54
87
94
83
68
21
144
132
42
3
44
71
29
7
31
8
124
18
84
17
6
19
12
36
15
85
10
1

> <PUBCHEM_MMFF94_PARTIAL_CHARGES>
50
1 1.45
10 0.36
11 0.36
12 0.27
13 0.27
14 0.27
15 -0.01
16 -0.15
17 -0.15
18 0.03
19 -0.15
2 -0.65
20 -0.15
21 -0.18
22 -0.14
24 0.1
25 -0.15
26 0.03
27 0.1
28 -0.18
29 -0.15
3 -0.65
30 -0.15
31 -0.15
32 0.14
33 0.17
34 -0.3
35 0.07
36 0.16
37 0.14
38 0.48
4 -0.85
5 -0.81
50 0.15
51 0.15
52 0.15
53 0.15
54 0.15
55 0.15
56 0.4
57 0.15
58 0.15
59 0.15
6 -0.6
60 0.27
64 0.15
65 0.15
7 0.03
8 -0.62
9 -0.56

> <PUBCHEM_EFFECTIVE_ROTOR_COUNT>
7.2

> <PUBCHEM_PHARMACOPHORE_FEATURES>
14
1 2 acceptor
1 3 acceptor
1 5 cation
1 6 cation
1 6 donor
1 7 cation
1 7 donor
1 8 acceptor
1 9 acceptor
5 7 23 25 31 34 rings
6 15 16 17 18 19 20 rings
6 22 23 24 25 29 30 rings
6 4 5 10 11 12 13 rings
6 8 26 27 33 35 36 rings

> <PUBCHEM_HEAVY_ATOM_COUNT>
38

> <PUBCHEM_ATOM_DEF_STEREO_COUNT>
0

> <PUBCHEM_ATOM_UDEF_STEREO_COUNT>
0

> <PUBCHEM_BOND_DEF_STEREO_COUNT>
1

> <PUBCHEM_BOND_UDEF_STEREO_COUNT>
0

> <PUBCHEM_ISOTOPIC_ATOM_COUNT>
0

> <PUBCHEM_COMPONENT_COUNT>
1

> <PUBCHEM_CACTVS_TAUTO_COUNT>
2

> <PUBCHEM_CONFORMER_ID>
02B4617A00000002

> <PUBCHEM_MMFF94_ENERGY>
105.6063

> <PUBCHEM_FEATURE_SELFOVERLAP>
71.157

> <PUBCHEM_SHAPE_FINGERPRINT>
10032420 55 18334011731220659572
10079526 769 18342453733995237403
10369192 42 16913370191921846130
10675989 125 18334862752973053564
11135609 187 18337959012113532400
11578080 2 12966034237661657881
12156800 1 15189348208757431848
12788726 201 17828480272103106347
13383668 262 17389927183401641379
13560911 43 18041561313714277002
13761468 95 16818851405048072478
14910302 57 17700966639822967279
14931854 50 18336836380887071708
14955137 171 18269572554873220171
15001296 14 18335423443609361143
15264996 163 17756430361888758716
19311894 1 17184194942587107902
19319366 153 18040428854976376259
20511986 3 18409161121648048725
2132832 1 17751901546334261834
23559900 14 17988635312030564105
437795 51 18115318881577973667
463206 1 18334580148092032441
5265222 85 17831029279064230724

> <PUBCHEM_SHAPE_MULTIPOLES>
744.25
11.93
5.5
2.26
8.1
1.33
-1.21
-1.1
5.66
-3.32
-0.13
-1.15
-0.77
-2.38

> <PUBCHEM_SHAPE_SELFOVERLAP>
1611.196

> <PUBCHEM_SHAPE_VOLUME>
410.7

> <PUBCHEM_COORDINATE_TYPE>
2
5
10

$$$$
