24995524
  -OEChem-10062122023D

 43 46  0     0  0  0  0  0  0999 V2000
   -8.1997    2.6767    1.2787 Cl  0  0  0  0  0  0  0  0  0  0  0  0
    0.5613   -1.6556    1.5637 S   0  0  0  0  0  0  0  0  0  0  0  0
    3.4161    2.1487    1.1205 S   0  0  0  0  0  0  0  0  0  0  0  0
   -3.1786   -1.4628   -1.2243 O   0  0  0  0  0  0  0  0  0  0  0  0
    3.8842   -0.9801    0.5714 N   0  0  0  0  0  0  0  0  0  0  0  0
    5.7585   -0.4797   -0.8072 N   0  0  0  0  0  0  0  0  0  0  0  0
   -0.4313   -2.5275   -0.6582 N   0  0  0  0  0  0  0  0  0  0  0  0
   -1.8034   -1.0209    0.6280 N   0  0  0  0  0  0  0  0  0  0  0  0
    6.4966    1.7885   -1.2176 N   0  0  0  0  0  0  0  0  0  0  0  0
   -3.9115   -0.0305    0.4728 N   0  0  0  0  0  0  0  0  0  0  0  0
    2.8881   -3.1447    1.0926 C   0  0  0  0  0  0  0  0  0  0  0  0
    4.0142   -2.3936    0.3839 C   0  0  0  0  0  0  0  0  0  0  0  0
    1.5140   -2.7299    0.6259 C   0  0  0  0  0  0  0  0  0  0  0  0
    4.7521   -0.0451   -0.0231 C   0  0  0  0  0  0  0  0  0  0  0  0
    4.5915    1.3200    0.1844 C   0  0  0  0  0  0  0  0  0  0  0  0
    5.4759    2.2098   -0.4239 C   0  0  0  0  0  0  0  0  0  0  0  0
    0.8247   -3.0839   -0.5149 C   0  0  0  0  0  0  0  0  0  0  0  0
   -0.6757   -1.7572    0.3786 C   0  0  0  0  0  0  0  0  0  0  0  0
    5.1686    3.5666   -0.1068 C   0  0  0  0  0  0  0  0  0  0  0  0
    4.0751    3.6743    0.7220 C   0  0  0  0  0  0  0  0  0  0  0  0
    6.5614    0.4533   -1.3512 C   0  0  0  0  0  0  0  0  0  0  0  0
   -5.1969    0.3518    0.0217 C   0  0  0  0  0  0  0  0  0  0  0  0
   -2.9965   -0.8916   -0.1539 C   0  0  0  0  0  0  0  0  0  0  0  0
   -5.9735    1.2246    0.7838 C   0  0  0  0  0  0  0  0  0  0  0  0
   -5.6877   -0.1454   -1.1856 C   0  0  0  0  0  0  0  0  0  0  0  0
   -7.2408    1.6004    0.3384 C   0  0  0  0  0  0  0  0  0  0  0  0
   -6.9550    0.2303   -1.6310 C   0  0  0  0  0  0  0  0  0  0  0  0
   -7.7315    1.1033   -0.8689 C   0  0  0  0  0  0  0  0  0  0  0  0
    3.0086   -4.2206    0.9145 H   0  0  0  0  0  0  0  0  0  0  0  0
    2.9762   -3.0004    2.1773 H   0  0  0  0  0  0  0  0  0  0  0  0
    4.9764   -2.7407    0.7783 H   0  0  0  0  0  0  0  0  0  0  0  0
    3.9892   -2.6324   -0.6867 H   0  0  0  0  0  0  0  0  0  0  0  0
    3.1599   -0.6130    1.1790 H   0  0  0  0  0  0  0  0  0  0  0  0
    1.1944   -3.7502   -1.2830 H   0  0  0  0  0  0  0  0  0  0  0  0
    5.7228    4.4233   -0.4689 H   0  0  0  0  0  0  0  0  0  0  0  0
    3.6318    4.5794    1.1126 H   0  0  0  0  0  0  0  0  0  0  0  0
   -1.7765   -0.4942    1.4970 H   0  0  0  0  0  0  0  0  0  0  0  0
    7.3632    0.0787   -1.9776 H   0  0  0  0  0  0  0  0  0  0  0  0
   -3.6223    0.3719    1.3608 H   0  0  0  0  0  0  0  0  0  0  0  0
   -5.5898    1.6114    1.7254 H   0  0  0  0  0  0  0  0  0  0  0  0
   -5.1499   -0.8237   -1.8321 H   0  0  0  0  0  0  0  0  0  0  0  0
   -7.3384   -0.1561   -2.5710 H   0  0  0  0  0  0  0  0  0  0  0  0
   -8.7173    1.3873   -1.2284 H   0  0  0  0  0  0  0  0  0  0  0  0
  1 26  1  0  0  0  0
  2 13  1  0  0  0  0
  2 18  1  0  0  0  0
  3 15  1  0  0  0  0
  3 20  1  0  0  0  0
  4 23  2  0  0  0  0
  5 12  1  0  0  0  0
  5 14  1  0  0  0  0
  5 33  1  0  0  0  0
  6 14  2  0  0  0  0
  6 21  1  0  0  0  0
  7 17  1  0  0  0  0
  7 18  2  0  0  0  0
  8 18  1  0  0  0  0
  8 23  1  0  0  0  0
  8 37  1  0  0  0  0
  9 16  1  0  0  0  0
  9 21  2  0  0  0  0
 10 22  1  0  0  0  0
 10 23  1  0  0  0  0
 10 39  1  0  0  0  0
 11 12  1  0  0  0  0
 11 13  1  0  0  0  0
 11 29  1  0  0  0  0
 11 30  1  0  0  0  0
 12 31  1  0  0  0  0
 12 32  1  0  0  0  0
 13 17  2  0  0  0  0
 14 15  1  0  0  0  0
 15 16  2  0  0  0  0
 16 19  1  0  0  0  0
 17 34  1  0  0  0  0
 19 20  2  0  0  0  0
 19 35  1  0  0  0  0
 20 36  1  0  0  0  0
 21 38  1  0  0  0  0
 22 24  2  0  0  0  0
 22 25  1  0  0  0  0
 24 26  1  0  0  0  0
 24 40  1  0  0  0  0
 25 27  2  0  0  0  0
 25 41  1  0  0  0  0
 26 28  2  0  0  0  0
 27 28  1  0  0  0  0
 27 42  1  0  0  0  0
 28 43  1  0  0  0  0
M  END
> <PUBCHEM_COMPOUND_CID>
24995524

> <PUBCHEM_CONFORMER_RMSD>
1.4

> <PUBCHEM_CONFORMER_DIVERSEORDER>
1
106
14
78
111
77
16
8
26
70
47
67
80
96
3
51
41
76
98
60
61
5
99
90
20
91
66
109
24
19
81
85
50
38
53
25
79
40
68
69
64
9
54
110
33
37
105
44
58
108
97
30
107
102
32
49
7
95
84
65
75
31
45
55
27
42
22
88
100
92
93
48
34
94
17
82
39
35
86
52
101
62
59
46
10
83
11
6
73
89
56
104
57
23
12
103
43
4
29
36
15
18
63
28
71
87
13
72
21
2
74

> <PUBCHEM_MMFF94_PARTIAL_CHARGES>
39
1 -0.18
10 -0.55
11 0.18
12 0.37
13 -0.14
14 0.41
15 0.04
16 0.26
17 0.08
18 0.44
19 -0.15
2 -0.08
20 -0.11
21 0.47
22 0.12
23 0.69
24 -0.15
25 -0.15
26 0.18
27 -0.15
28 -0.15
3 -0.08
33 0.4
34 0.15
35 0.15
36 0.15
37 0.37
38 0.15
39 0.37
4 -0.57
40 0.15
41 0.15
42 0.15
43 0.15
5 -0.87
6 -0.62
7 -0.57
8 -0.49
9 -0.57

> <PUBCHEM_EFFECTIVE_ROTOR_COUNT>
8

> <PUBCHEM_PHARMACOPHORE_FEATURES>
10
1 10 donor
1 4 acceptor
1 5 donor
1 8 donor
3 5 6 14 cation
3 6 9 21 cation
5 2 7 13 17 18 rings
5 3 15 16 19 20 rings
6 22 24 25 26 27 28 rings
6 6 9 14 15 16 21 rings

> <PUBCHEM_HEAVY_ATOM_COUNT>
28

> <PUBCHEM_ATOM_DEF_STEREO_COUNT>
0

> <PUBCHEM_ATOM_UDEF_STEREO_COUNT>
0

> <PUBCHEM_BOND_DEF_STEREO_COUNT>
0

> <PUBCHEM_BOND_UDEF_STEREO_COUNT>
0

> <PUBCHEM_ISOTOPIC_ATOM_COUNT>
0

> <PUBCHEM_COMPONENT_COUNT>
1

> <PUBCHEM_CACTVS_TAUTO_COUNT>
15

> <PUBCHEM_CONFORMER_ID>
017D66C400000001

> <PUBCHEM_MMFF94_ENERGY>
62.7136

> <PUBCHEM_FEATURE_SELFOVERLAP>
50.987

> <PUBCHEM_SHAPE_FINGERPRINT>
10638233 991 18341045238562848353
10673678 19 18341897398149305899
10675989 125 18411134771148945728
10906281 52 18201724995142801723
11408170 253 17915463784203272057
11456790 92 17750224812734735746
11505856 67 17247826339018773766
1200032 147 18040717000521814640
12124843 1 18057899124490428956
12522641 24 17096637717203995746
12925494 130 18335139851044955547
13782708 43 11239699921588686157
13878862 14 18188751895531400262
13944108 23 18410860919781045084
14117953 113 18272376344047454118
14142895 15 18410290329513178255
14251764 75 18335983185422730480
14347332 77 9367348145938703251
14598715 104 16878213162011168125
14931854 50 18200888352555987120
15183329 4 17989489619517160761
15198563 99 17407397409180505294
15276724 80 18336825270002147789
15510800 12 11671786013334840124
15530120 55 17272843466702610716
18335252 114 18411698747594048230
19053607 189 17981314901189766960
19301679 30 8935010290697293063
2026 5 11455895732953939685
20691028 202 18411417336661746349
20715895 44 18339919420376377296
21033648 29 17313392252991430434
21049683 118 17531235193257465162
21585482 310 11815897902601622669
21585483 110 18409167726970314705
21792964 463 17700996357434191641
22122407 14 18410301276403562899
23522609 53 17988371356547129841
23569914 152 18056510334542250188
255183 451 17770224847714351942
3472631 163 18343021103206593334
3711267 37 17988929921212874401
394071 54 18260269624922444565
397830 11 17967545571119605979
3986486 107 18271541857513130236
406291 66 10087650281978555764
4169191 19 18335983091434590637
4258327 124 18343581838038051279
44555599 121 18270963428239234217
5047190 47 18341888628169511545
5312510 48 18410011044104540688
58902169 19 18059566958395185966
5911458 16 18272938185429859865
5951187 136 18343591746026209966
6898599 12 18270677709418629863

> <PUBCHEM_SHAPE_MULTIPOLES>
550.04
24.18
4.42
1.36
34.9
0.68
0.08
22.3
5.06
-6.27
-1.11
0.64
0.03
-2.06

> <PUBCHEM_SHAPE_SELFOVERLAP>
1158.31

> <PUBCHEM_SHAPE_VOLUME>
310.5

> <PUBCHEM_COORDINATE_TYPE>
2
5
10

$$$$
