10073297
  -OEChem-10052115183D

 68 73  0     0  0  0  0  0  0999 V2000
    4.5321   -0.6220   -0.2651 O   0  0  0  0  0  0  0  0  0  0  0  0
   -6.7604   -1.9410    0.1537 N   0  0  0  0  0  0  0  0  0  0  0  0
   -1.9711    1.1786    0.1479 N   0  0  0  0  0  0  0  0  0  0  0  0
   -2.3192    3.2281    1.3685 N   0  0  0  0  0  0  0  0  0  0  0  0
   -0.3377    4.6414    1.4310 N   0  0  0  0  0  0  0  0  0  0  0  0
    1.7145    4.0318    0.3846 N   0  0  0  0  0  0  0  0  0  0  0  0
   -5.4045   -1.4585   -0.0629 C   0  0  0  0  0  0  0  0  0  0  0  0
   -3.3111    0.5985    0.3066 C   0  0  0  0  0  0  0  0  0  0  0  0
   -5.4408   -0.1415   -0.8458 C   0  0  0  0  0  0  0  0  0  0  0  0
   -4.6944   -1.2838    1.2840 C   0  0  0  0  0  0  0  0  0  0  0  0
   -4.0367    0.4320   -1.0385 C   0  0  0  0  0  0  0  0  0  0  0  0
   -3.2862   -0.7164    1.1029 C   0  0  0  0  0  0  0  0  0  0  0  0
   -6.7914   -3.2191    0.8641 C   0  0  0  0  0  0  0  0  0  0  0  0
   -7.4729   -2.1861   -1.1000 C   0  0  0  0  0  0  0  0  0  0  0  0
   -8.2161   -3.7014    0.6347 C   0  0  0  0  0  0  0  0  0  0  0  0
   -8.6626   -3.0254   -0.6580 C   0  0  0  0  0  0  0  0  0  0  0  0
   -1.5605    2.3828    0.6493 C   0  0  0  0  0  0  0  0  0  0  0  0
   -0.9405    0.5855   -0.5315 C   0  0  0  0  0  0  0  0  0  0  0  0
   -0.2329    2.5668    0.2824 C   0  0  0  0  0  0  0  0  0  0  0  0
    0.1517    1.4243   -0.4649 C   0  0  0  0  0  0  0  0  0  0  0  0
    1.4043    1.0930   -1.0817 C   0  0  0  0  0  0  0  0  0  0  0  0
    0.3736    3.7494    0.7035 C   0  0  0  0  0  0  0  0  0  0  0  0
   -1.6225    4.3297    1.7146 C   0  0  0  0  0  0  0  0  0  0  0  0
    2.3714    0.3876   -0.3647 C   0  0  0  0  0  0  0  0  0  0  0  0
    1.6566    1.4771   -2.3992 C   0  0  0  0  0  0  0  0  0  0  0  0
    3.5892    0.0668   -0.9644 C   0  0  0  0  0  0  0  0  0  0  0  0
    2.8744    1.1564   -2.9989 C   0  0  0  0  0  0  0  0  0  0  0  0
    3.8407    0.4511   -2.2814 C   0  0  0  0  0  0  0  0  0  0  0  0
    5.7541   -0.9174   -0.9398 C   0  0  0  0  0  0  0  0  0  0  0  0
    6.6436   -1.7022   -0.0211 C   0  0  0  0  0  0  0  0  0  0  0  0
    7.5303   -1.0340    0.8159 C   0  0  0  0  0  0  0  0  0  0  0  0
    6.5737   -3.0909   -0.0152 C   0  0  0  0  0  0  0  0  0  0  0  0
    8.3576   -1.7636    1.6696 C   0  0  0  0  0  0  0  0  0  0  0  0
    7.4008   -3.8206    0.8386 C   0  0  0  0  0  0  0  0  0  0  0  0
    8.2928   -3.1568    1.6810 C   0  0  0  0  0  0  0  0  0  0  0  0
   -4.8344   -2.1901   -0.6544 H   0  0  0  0  0  0  0  0  0  0  0  0
   -3.8870    1.3236    0.8972 H   0  0  0  0  0  0  0  0  0  0  0  0
   -6.0618    0.5970   -0.3217 H   0  0  0  0  0  0  0  0  0  0  0  0
   -5.8738   -0.2764   -1.8432 H   0  0  0  0  0  0  0  0  0  0  0  0
   -4.5907   -2.2375    1.8133 H   0  0  0  0  0  0  0  0  0  0  0  0
   -5.2709   -0.6137    1.9354 H   0  0  0  0  0  0  0  0  0  0  0  0
   -4.1042    1.3999   -1.5503 H   0  0  0  0  0  0  0  0  0  0  0  0
   -3.4664   -0.2318   -1.7006 H   0  0  0  0  0  0  0  0  0  0  0  0
   -2.6630   -1.4610    0.5915 H   0  0  0  0  0  0  0  0  0  0  0  0
   -2.8297   -0.5503    2.0865 H   0  0  0  0  0  0  0  0  0  0  0  0
   -6.0831   -3.9431    0.4409 H   0  0  0  0  0  0  0  0  0  0  0  0
   -6.6014   -3.1207    1.9373 H   0  0  0  0  0  0  0  0  0  0  0  0
   -7.8236   -1.2687   -1.5825 H   0  0  0  0  0  0  0  0  0  0  0  0
   -6.8646   -2.7549   -1.8151 H   0  0  0  0  0  0  0  0  0  0  0  0
   -8.2634   -4.7925    0.5588 H   0  0  0  0  0  0  0  0  0  0  0  0
   -8.8704   -3.3930    1.4587 H   0  0  0  0  0  0  0  0  0  0  0  0
   -9.5363   -2.3926   -0.4622 H   0  0  0  0  0  0  0  0  0  0  0  0
   -8.9429   -3.7576   -1.4220 H   0  0  0  0  0  0  0  0  0  0  0  0
   -1.0651   -0.3800   -1.0052 H   0  0  0  0  0  0  0  0  0  0  0  0
   -2.1648    5.0651    2.2990 H   0  0  0  0  0  0  0  0  0  0  0  0
    2.1861    0.0837    0.6635 H   0  0  0  0  0  0  0  0  0  0  0  0
    0.9148    2.0285   -2.9723 H   0  0  0  0  0  0  0  0  0  0  0  0
    2.2738    3.3894   -0.1568 H   0  0  0  0  0  0  0  0  0  0  0  0
    2.1178    4.9009    0.7081 H   0  0  0  0  0  0  0  0  0  0  0  0
    3.0697    1.4571   -4.0241 H   0  0  0  0  0  0  0  0  0  0  0  0
    4.7631    0.2397   -2.8108 H   0  0  0  0  0  0  0  0  0  0  0  0
    5.5693   -1.5210   -1.8384 H   0  0  0  0  0  0  0  0  0  0  0  0
    6.2732    0.0067   -1.2270 H   0  0  0  0  0  0  0  0  0  0  0  0
    7.5876    0.0510    0.8173 H   0  0  0  0  0  0  0  0  0  0  0  0
    5.8811   -3.6185   -0.6652 H   0  0  0  0  0  0  0  0  0  0  0  0
    9.0516   -1.2469    2.3261 H   0  0  0  0  0  0  0  0  0  0  0  0
    7.3500   -4.9054    0.8482 H   0  0  0  0  0  0  0  0  0  0  0  0
    8.9366   -3.7250    2.3461 H   0  0  0  0  0  0  0  0  0  0  0  0
  1 26  1  0  0  0  0
  1 29  1  0  0  0  0
  2  7  1  0  0  0  0
  2 13  1  0  0  0  0
  2 14  1  0  0  0  0
  3  8  1  0  0  0  0
  3 17  1  0  0  0  0
  3 18  1  0  0  0  0
  4 17  2  0  0  0  0
  4 23  1  0  0  0  0
  5 22  1  0  0  0  0
  5 23  2  0  0  0  0
  6 22  1  0  0  0  0
  6 58  1  0  0  0  0
  6 59  1  0  0  0  0
  7  9  1  0  0  0  0
  7 10  1  0  0  0  0
  7 36  1  0  0  0  0
  8 11  1  0  0  0  0
  8 12  1  0  0  0  0
  8 37  1  0  0  0  0
  9 11  1  0  0  0  0
  9 38  1  0  0  0  0
  9 39  1  0  0  0  0
 10 12  1  0  0  0  0
 10 40  1  0  0  0  0
 10 41  1  0  0  0  0
 11 42  1  0  0  0  0
 11 43  1  0  0  0  0
 12 44  1  0  0  0  0
 12 45  1  0  0  0  0
 13 15  1  0  0  0  0
 13 46  1  0  0  0  0
 13 47  1  0  0  0  0
 14 16  1  0  0  0  0
 14 48  1  0  0  0  0
 14 49  1  0  0  0  0
 15 16  1  0  0  0  0
 15 50  1  0  0  0  0
 15 51  1  0  0  0  0
 16 52  1  0  0  0  0
 16 53  1  0  0  0  0
 17 19  1  0  0  0  0
 18 20  2  0  0  0  0
 18 54  1  0  0  0  0
 19 20  1  0  0  0  0
 19 22  2  0  0  0  0
 20 21  1  0  0  0  0
 21 24  2  0  0  0  0
 21 25  1  0  0  0  0
 23 55  1  0  0  0  0
 24 26  1  0  0  0  0
 24 56  1  0  0  0  0
 25 27  2  0  0  0  0
 25 57  1  0  0  0  0
 26 28  2  0  0  0  0
 27 28  1  0  0  0  0
 27 60  1  0  0  0  0
 28 61  1  0  0  0  0
 29 30  1  0  0  0  0
 29 62  1  0  0  0  0
 29 63  1  0  0  0  0
 30 31  2  0  0  0  0
 30 32  1  0  0  0  0
 31 33  1  0  0  0  0
 31 64  1  0  0  0  0
 32 34  2  0  0  0  0
 32 65  1  0  0  0  0
 33 35  2  0  0  0  0
 33 66  1  0  0  0  0
 34 35  1  0  0  0  0
 34 67  1  0  0  0  0
 35 68  1  0  0  0  0
M  END
> <PUBCHEM_COMPOUND_CID>
10073297

> <PUBCHEM_CONFORMER_RMSD>
1

> <PUBCHEM_CONFORMER_DIVERSEORDER>
1
61
2
72
48
23
15
58
44
43
25
77
18
62
12
39
52
70
20
74
17
40
30
14
34
16
42
73
67
33
66
51
31
9
55
54
75
63
28
46
71
47
64
38
68
32
76
29
22
69
60
7
3
49
45
35
50
19
65
21
26
57
53
6
36
59
27
24
41
13
5
8
56
37
10
11
4

> <PUBCHEM_MMFF94_PARTIAL_CHARGES>
41
1 -0.36
13 0.27
14 0.27
17 0.11
18 -0.3
2 -0.81
20 -0.05
21 0.05
22 0.41
23 0.47
24 -0.15
25 -0.15
26 0.08
27 -0.15
28 -0.15
29 0.42
3 0.05
30 -0.14
31 -0.15
32 -0.15
33 -0.15
34 -0.15
35 -0.15
4 -0.57
5 -0.62
54 0.15
55 0.15
56 0.15
57 0.15
58 0.4
59 0.4
6 -0.9
60 0.15
61 0.15
64 0.15
65 0.15
66 0.15
67 0.15
68 0.15
7 0.27
8 0.26

> <PUBCHEM_EFFECTIVE_ROTOR_COUNT>
8.2

> <PUBCHEM_PHARMACOPHORE_FEATURES>
12
1 1 acceptor
1 2 cation
1 6 cation
1 6 donor
3 3 4 17 cation
3 4 5 23 cation
5 2 13 14 15 16 rings
5 3 17 18 19 20 rings
6 21 24 25 26 27 28 rings
6 30 31 32 33 34 35 rings
6 4 5 17 19 22 23 rings
6 7 8 9 10 11 12 rings

> <PUBCHEM_HEAVY_ATOM_COUNT>
35

> <PUBCHEM_ATOM_DEF_STEREO_COUNT>
0

> <PUBCHEM_ATOM_UDEF_STEREO_COUNT>
0

> <PUBCHEM_BOND_DEF_STEREO_COUNT>
0

> <PUBCHEM_BOND_UDEF_STEREO_COUNT>
0

> <PUBCHEM_ISOTOPIC_ATOM_COUNT>
0

> <PUBCHEM_COMPONENT_COUNT>
1

> <PUBCHEM_CACTVS_TAUTO_COUNT>
4

> <PUBCHEM_CONFORMER_ID>
0099B4D100000001

> <PUBCHEM_MMFF94_ENERGY>
87.4229

> <PUBCHEM_FEATURE_SELFOVERLAP>
61.179

> <PUBCHEM_SHAPE_FINGERPRINT>
10100884 174 18334855013932844058
10254770 206 18271803557875749919
10319926 262 17914338966759062292
10369192 42 9367344843108183867
10920273 25 10737281295485648335
11088757 655 18412542098602592336
11103572 95 18127130771053625655
11146346 77 17899705849346703851
11227150 75 18333730209062118028
11297750 10 18338791312672786693
11475781 23 12108084301259805582
11963148 33 17767119074856288983
12013929 112 17022888061820629775
12013929 94 18411982439444095290
12061779 8 11959431394062670238
12218070 45 16199569411726919591
12758862 65 17846503676953883714
13782708 43 18263930011591887839
14068700 675 18261110755771013244
14344974 204 18268150847573900646
14359421 15 17749100089538961787
14664723 55 8358263678303165494
15188451 53 18334856083330902230
15320295 40 18187076244037389638
15324884 4 16484744047793036068
15519825 34 18337382744114606650
15950262 2 12031520873362505463
16990366 60 18339924926023901163
16993427 108 18412259545209639499
19301679 30 18200603505444595318
19304671 126 14924228299647654279
19841028 212 18259704514748666426
2026 5 18113614560555309259
20691028 202 8934707873544599222
21130935 74 18196368118926909746
21344244 78 16701475566607372249
21585483 132 17894905209790924610
21779490 27 18341320158687145350
21987483 16 18340202003317721170
23559900 14 17899701443362637469
23569914 152 12036275098208016760
23569943 247 18336833087254512227
25242607 90 18131067177700780455
255183 313 17060329717546538526
32027 91 18194688288117905931
3504750 166 17828483562475303060
3986486 107 14056714634697683430
406291 66 18334013878483007746
4408954 87 17917983993455370134
44426701 291 17749968742326219979
4760202 70 18114475513826845294
50009960 94 18343017809277341645
5080951 261 18057592166813575805
5718773 13 18407759239679825175
6376802 137 18411986827971660200
6636798 310 18410571761154963890
6691757 9 17981329988724114345
9555976 147 18056484937904632648
96874 4 18187645778339160410
9689198 14 11023822907654673646
9896288 288 18056763122107712394

> <PUBCHEM_SHAPE_MULTIPOLES>
689.51
25.82
5.92
1.95
4.48
2.75
-0.91
-48.12
5.3
-1.88
3.63
1.93
0.96
-3.61

> <PUBCHEM_SHAPE_SELFOVERLAP>
1515.171

> <PUBCHEM_SHAPE_VOLUME>
369.4

> <PUBCHEM_COORDINATE_TYPE>
2
5
10

$$$$
