44299157
  -OEChem-10062121573D

 64 70  0     1  0  0  0  0  0999 V2000
   -0.6763   -2.0494   -1.7636 O   0  0  0  0  0  0  0  0  0  0  0  0
   -3.4451   -2.0863    0.7105 O   0  0  0  0  0  0  0  0  0  0  0  0
    0.2323    4.9146   -0.7826 O   0  0  0  0  0  0  0  0  0  0  0  0
    3.6937    2.8181    1.6592 O   0  0  0  0  0  0  0  0  0  0  0  0
   -1.5300   -0.1876   -0.5883 N   0  0  0  0  0  0  0  0  0  0  0  0
    1.2162   -1.4096   -0.5885 N   0  0  0  0  0  0  0  0  0  0  0  0
   -0.8123   -1.8705    1.8948 N   0  0  0  0  0  0  0  0  0  0  0  0
   -1.8232   -1.5361   -1.0790 C   0  0  2  0  0  0  0  0  0  0  0  0
   -2.2959   -2.5396    0.0092 C   0  0  1  0  0  0  0  0  0  0  0  0
    0.3853   -2.5224   -0.9642 C   0  0  1  0  0  0  0  0  0  0  0  0
   -1.1996   -2.9551    0.9950 C   0  0  1  0  0  0  0  0  0  0  0  0
   -0.0090   -3.4542    0.1852 C   0  0  0  0  0  0  0  0  0  0  0  0
   -0.3436    0.4852   -0.3858 C   0  0  0  0  0  0  0  0  0  0  0  0
    0.9491   -0.0876   -0.3945 C   0  0  0  0  0  0  0  0  0  0  0  0
   -0.3354    1.8952   -0.0814 C   0  0  0  0  0  0  0  0  0  0  0  0
    2.0248    0.8380   -0.1330 C   0  0  0  0  0  0  0  0  0  0  0  0
   -2.8562   -1.5028   -2.2312 C   0  0  0  0  0  0  0  0  0  0  0  0
   -2.4597    0.8363   -0.3036 C   0  0  0  0  0  0  0  0  0  0  0  0
    2.6052   -1.4506   -0.4434 C   0  0  0  0  0  0  0  0  0  0  0  0
   -1.7800    2.0678   -0.0521 C   0  0  0  0  0  0  0  0  0  0  0  0
    3.1079   -0.1436   -0.1876 C   0  0  0  0  0  0  0  0  0  0  0  0
    0.7309    2.7792    0.1384 C   0  0  0  0  0  0  0  0  0  0  0  0
    1.9967    2.2159    0.1055 C   0  0  0  0  0  0  0  0  0  0  0  0
   -3.8712    0.8139   -0.2445 C   0  0  0  0  0  0  0  0  0  0  0  0
    3.4785   -2.5538   -0.5238 C   0  0  0  0  0  0  0  0  0  0  0  0
   -2.5477    3.2311    0.2144 C   0  0  0  0  0  0  0  0  0  0  0  0
    0.5715    4.2368    0.4203 C   0  0  0  0  0  0  0  0  0  0  0  0
    4.5060    0.0130   -0.0184 C   0  0  0  0  0  0  0  0  0  0  0  0
    3.2074    3.0541    0.3438 C   0  0  0  0  0  0  0  0  0  0  0  0
   -0.1669   -2.3958    3.0880 C   0  0  0  0  0  0  0  0  0  0  0  0
   -4.2329   -3.1722    1.1806 C   0  0  0  0  0  0  0  0  0  0  0  0
   -4.5909    1.9815    0.0264 C   0  0  0  0  0  0  0  0  0  0  0  0
   -3.9390    3.1806    0.2472 C   0  0  0  0  0  0  0  0  0  0  0  0
    4.8499   -2.3551   -0.3508 C   0  0  0  0  0  0  0  0  0  0  0  0
    5.3595   -1.0891   -0.1022 C   0  0  0  0  0  0  0  0  0  0  0  0
   -2.5669   -3.4545   -0.5422 H   0  0  0  0  0  0  0  0  0  0  0  0
    0.9969   -3.1162   -1.6542 H   0  0  0  0  0  0  0  0  0  0  0  0
   -1.5784   -3.7898    1.5970 H   0  0  0  0  0  0  0  0  0  0  0  0
    0.8546   -3.6914    0.8154 H   0  0  0  0  0  0  0  0  0  0  0  0
   -0.3131   -4.4099   -0.2657 H   0  0  0  0  0  0  0  0  0  0  0  0
   -2.6198   -0.7095   -2.9508 H   0  0  0  0  0  0  0  0  0  0  0  0
   -3.8861   -1.3713   -1.8983 H   0  0  0  0  0  0  0  0  0  0  0  0
   -2.8314   -2.4438   -2.7965 H   0  0  0  0  0  0  0  0  0  0  0  0
   -1.6468   -1.3570    2.1791 H   0  0  0  0  0  0  0  0  0  0  0  0
   -4.4362   -0.0973   -0.3953 H   0  0  0  0  0  0  0  0  0  0  0  0
    3.1024   -3.5546   -0.7149 H   0  0  0  0  0  0  0  0  0  0  0  0
   -2.0912    4.1975    0.3899 H   0  0  0  0  0  0  0  0  0  0  0  0
   -0.2215    4.3852    1.1583 H   0  0  0  0  0  0  0  0  0  0  0  0
    1.4276    4.7325    0.8781 H   0  0  0  0  0  0  0  0  0  0  0  0
    4.9551    0.9772    0.1899 H   0  0  0  0  0  0  0  0  0  0  0  0
    3.9853    2.7716   -0.3730 H   0  0  0  0  0  0  0  0  0  0  0  0
    3.0911    4.1260    0.1811 H   0  0  0  0  0  0  0  0  0  0  0  0
    0.7730   -2.9077    2.8637 H   0  0  0  0  0  0  0  0  0  0  0  0
   -0.8237   -3.0742    3.6426 H   0  0  0  0  0  0  0  0  0  0  0  0
    0.0794   -1.5624    3.7543 H   0  0  0  0  0  0  0  0  0  0  0  0
   -5.1286   -2.7553    1.6501 H   0  0  0  0  0  0  0  0  0  0  0  0
   -3.7041   -3.7585    1.9358 H   0  0  0  0  0  0  0  0  0  0  0  0
   -4.5539   -3.8123    0.3529 H   0  0  0  0  0  0  0  0  0  0  0  0
   -5.6766    1.9429    0.0636 H   0  0  0  0  0  0  0  0  0  0  0  0
   -4.5098    4.0818    0.4516 H   0  0  0  0  0  0  0  0  0  0  0  0
    5.5248   -3.2048   -0.4114 H   0  0  0  0  0  0  0  0  0  0  0  0
    6.4290   -0.9531    0.0324 H   0  0  0  0  0  0  0  0  0  0  0  0
    0.0757    5.8459   -0.5512 H   0  0  0  0  0  0  0  0  0  0  0  0
    4.5166    3.3271    1.7550 H   0  0  0  0  0  0  0  0  0  0  0  0
  1  8  1  0  0  0  0
  1 10  1  0  0  0  0
  2  9  1  0  0  0  0
  2 31  1  0  0  0  0
  3 27  1  0  0  0  0
  3 63  1  0  0  0  0
  4 29  1  0  0  0  0
  4 64  1  0  0  0  0
  5  8  1  0  0  0  0
  5 13  1  0  0  0  0
  5 18  1  0  0  0  0
  6 10  1  0  0  0  0
  6 14  1  0  0  0  0
  6 19  1  0  0  0  0
  7 11  1  0  0  0  0
  7 30  1  0  0  0  0
  7 44  1  0  0  0  0
  8  9  1  0  0  0  0
  8 17  1  0  0  0  0
  9 11  1  0  0  0  0
  9 36  1  0  0  0  0
 10 12  1  0  0  0  0
 10 37  1  0  0  0  0
 11 12  1  0  0  0  0
 11 38  1  0  0  0  0
 12 39  1  0  0  0  0
 12 40  1  0  0  0  0
 13 14  1  0  0  0  0
 13 15  2  0  0  0  0
 14 16  2  0  0  0  0
 15 20  1  0  0  0  0
 15 22  1  0  0  0  0
 16 21  1  0  0  0  0
 16 23  1  0  0  0  0
 17 41  1  0  0  0  0
 17 42  1  0  0  0  0
 17 43  1  0  0  0  0
 18 20  1  0  0  0  0
 18 24  2  0  0  0  0
 19 21  1  0  0  0  0
 19 25  2  0  0  0  0
 20 26  2  0  0  0  0
 21 28  2  0  0  0  0
 22 23  2  0  0  0  0
 22 27  1  0  0  0  0
 23 29  1  0  0  0  0
 24 32  1  0  0  0  0
 24 45  1  0  0  0  0
 25 34  1  0  0  0  0
 25 46  1  0  0  0  0
 26 33  1  0  0  0  0
 26 47  1  0  0  0  0
 27 48  1  0  0  0  0
 27 49  1  0  0  0  0
 28 35  1  0  0  0  0
 28 50  1  0  0  0  0
 29 51  1  0  0  0  0
 29 52  1  0  0  0  0
 30 53  1  0  0  0  0
 30 54  1  0  0  0  0
 30 55  1  0  0  0  0
 31 56  1  0  0  0  0
 31 57  1  0  0  0  0
 31 58  1  0  0  0  0
 32 33  2  0  0  0  0
 32 59  1  0  0  0  0
 33 60  1  0  0  0  0
 34 35  2  0  0  0  0
 34 61  1  0  0  0  0
 35 62  1  0  0  0  0
M  END
> <PUBCHEM_COMPOUND_CID>
44299157

> <PUBCHEM_CONFORMER_RMSD>
0.8

> <PUBCHEM_CONFORMER_DIVERSEORDER>
1
2

> <PUBCHEM_MMFF94_PARTIAL_CHARGES>
42
1 -0.56
10 0.54
11 0.27
13 -0.05
14 -0.05
15 -0.01
16 -0.01
18 -0.15
19 -0.15
2 -0.56
22 -0.14
23 -0.14
24 -0.15
25 -0.15
26 -0.15
27 0.42
28 -0.15
29 0.42
3 -0.68
30 0.27
31 0.28
32 -0.15
33 -0.15
34 -0.15
35 -0.15
4 -0.68
44 0.36
45 0.15
46 0.15
47 0.15
5 -0.04
50 0.15
59 0.15
6 -0.04
60 0.15
61 0.15
62 0.15
63 0.4
64 0.4
7 -0.9
8 0.54
9 0.28

> <PUBCHEM_EFFECTIVE_ROTOR_COUNT>
4.8

> <PUBCHEM_PHARMACOPHORE_FEATURES>
17
1 1 acceptor
1 2 acceptor
1 3 acceptor
1 3 donor
1 4 acceptor
1 4 donor
1 5 cation
1 6 cation
1 7 cation
1 7 donor
5 5 13 15 18 20 rings
5 6 14 16 19 21 rings
6 1 8 9 10 11 12 rings
6 13 14 15 16 22 23 rings
6 18 20 24 26 32 33 rings
6 19 21 25 28 34 35 rings
7 1 5 6 8 10 13 14 rings

> <PUBCHEM_HEAVY_ATOM_COUNT>
35

> <PUBCHEM_ATOM_DEF_STEREO_COUNT>
3

> <PUBCHEM_ATOM_UDEF_STEREO_COUNT>
1

> <PUBCHEM_BOND_DEF_STEREO_COUNT>
0

> <PUBCHEM_BOND_UDEF_STEREO_COUNT>
0

> <PUBCHEM_ISOTOPIC_ATOM_COUNT>
0

> <PUBCHEM_COMPONENT_COUNT>
1

> <PUBCHEM_CACTVS_TAUTO_COUNT>
1

> <PUBCHEM_CONFORMER_ID>
02A3F39500000001

> <PUBCHEM_MMFF94_ENERGY>
147.4359

> <PUBCHEM_FEATURE_SELFOVERLAP>
87.383

> <PUBCHEM_SHAPE_FINGERPRINT>
10190108 129 17469641801673053553
10675989 125 17979889908429136125
10906281 52 18125742109721954036
10967382 1 18125439709274174236
1100329 8 18339924805511271372
11513181 2 17988076807283697596
11578080 2 16915915513531010642
11607047 403 15977728742035775885
12107698 1 18410853304176515667
12293681 4 18193848045699689618
12422481 6 18196678331080931371
12788726 201 17972877248387891033
13140716 1 18412544292972450636
14020679 6 18260839167429067506
140371 6 17974564998509809836
14725015 67 18121773933196455448
14787075 74 18045228145536454687
14790565 3 18124602981295253764
15420108 30 17483390829907345445
15439362 3 18410851079400073260
16112460 7 18129675101163675600
19319366 153 17824550673169363882
19591789 44 18339923701715518245
19930381 70 17618781804905807679
20764821 26 18409175423657035376
21197605 99 18342186583588922635
23558518 356 18263080066584080333
23559900 14 18342451526835623288
3178227 256 18194416498028827225
335352 9 18270116786636537628
34934 24 18052252895715173365
350125 39 18339651125783976581
392239 28 17834403319323993803
5171179 24 18201994478285335914
70251023 43 18127108978943434727
9896288 288 16537621576570551138
9981440 41 17836910566913685312

> <PUBCHEM_SHAPE_MULTIPOLES>
681.86
8.07
5.93
1.47
3.95
3.4
0.67
-0.34
-0.06
-1.8
1.21
-0.51
-1.38
1.06

> <PUBCHEM_SHAPE_SELFOVERLAP>
1545.863

> <PUBCHEM_SHAPE_VOLUME>
354.3

> <PUBCHEM_COORDINATE_TYPE>
2
5
10

$$$$
