11397177
  -OEChem-10062121573D

 50 52  0     0  0  0  0  0  0999 V2000
    4.6399   -2.9269    0.2358 Cl  0  0  0  0  0  0  0  0  0  0  0  0
    5.7332    0.9960    1.0525 S   0  0  0  0  0  0  0  0  0  0  0  0
    0.5408    1.1398   -1.0075 O   0  0  0  0  0  0  0  0  0  0  0  0
   -3.4523    1.6172    0.7287 O   0  0  0  0  0  0  0  0  0  0  0  0
    7.0710    1.4869    0.7787 O   0  0  0  0  0  0  0  0  0  0  0  0
    4.6805    1.9091    1.4512 O   0  0  0  0  0  0  0  0  0  0  0  0
   -0.1275   -3.7269   -0.9211 O   0  0  0  0  0  0  0  0  0  0  0  0
    5.2338    0.0190   -0.2728 N   0  0  0  0  0  0  0  0  0  0  0  0
   -0.2315   -1.4299   -0.5752 N   0  0  0  0  0  0  0  0  0  0  0  0
   -2.1404   -2.8173   -0.4559 N   0  0  0  0  0  0  0  0  0  0  0  0
   -2.7504   -0.5423    0.1080 N   0  0  0  0  0  0  0  0  0  0  0  0
   -5.3716   -1.4282    0.5351 N   0  0  0  0  0  0  0  0  0  0  0  0
   -7.0095    1.3890    1.3742 N   0  0  0  0  0  0  0  0  0  0  0  0
   -0.9525    3.9645   -0.8407 C   0  0  0  0  0  0  0  0  0  0  0  0
   -0.2485    3.2208   -1.9820 C   0  0  0  0  0  0  0  0  0  0  0  0
   -1.6369    3.0919    0.2088 C   0  0  0  0  0  0  0  0  0  0  0  0
    0.9620    2.4016   -1.5340 C   0  0  0  0  0  0  0  0  0  0  0  0
   -2.7653    2.2407   -0.3623 C   0  0  0  0  0  0  0  0  0  0  0  0
    1.5409    0.2383   -0.7166 C   0  0  0  0  0  0  0  0  0  0  0  0
    1.1498   -1.1006   -0.5046 C   0  0  0  0  0  0  0  0  0  0  0  0
    3.8613   -0.3820   -0.3362 C   0  0  0  0  0  0  0  0  0  0  0  0
    2.8986    0.5835   -0.6268 C   0  0  0  0  0  0  0  0  0  0  0  0
    2.1322   -2.0562   -0.2009 C   0  0  0  0  0  0  0  0  0  0  0  0
    3.4787   -1.6990   -0.1224 C   0  0  0  0  0  0  0  0  0  0  0  0
   -3.7431    0.2965    0.4791 C   0  0  0  0  0  0  0  0  0  0  0  0
   -0.7720   -2.7051   -0.6649 C   0  0  0  0  0  0  0  0  0  0  0  0
    5.8879   -0.2448    2.3178 C   0  0  0  0  0  0  0  0  0  0  0  0
   -3.0811   -1.8362   -0.0746 C   0  0  0  0  0  0  0  0  0  0  0  0
   -5.0253   -0.1420    0.7158 C   0  0  0  0  0  0  0  0  0  0  0  0
   -4.3852   -2.2583    0.1342 C   0  0  0  0  0  0  0  0  0  0  0  0
   -6.1177    0.7007    1.0782 C   0  0  0  0  0  0  0  0  0  0  0  0
   -0.2244    4.6111   -0.3352 H   0  0  0  0  0  0  0  0  0  0  0  0
   -1.7012    4.6360   -1.2798 H   0  0  0  0  0  0  0  0  0  0  0  0
   -0.9599    2.5869   -2.5215 H   0  0  0  0  0  0  0  0  0  0  0  0
    0.1034    3.9811   -2.6906 H   0  0  0  0  0  0  0  0  0  0  0  0
   -0.9106    2.4514    0.7218 H   0  0  0  0  0  0  0  0  0  0  0  0
   -2.0473    3.7424    0.9922 H   0  0  0  0  0  0  0  0  0  0  0  0
    1.5951    2.2309   -2.4139 H   0  0  0  0  0  0  0  0  0  0  0  0
    1.5229    2.9648   -0.7789 H   0  0  0  0  0  0  0  0  0  0  0  0
   -3.4909    2.8782   -0.8806 H   0  0  0  0  0  0  0  0  0  0  0  0
   -2.3751    1.5246   -1.0939 H   0  0  0  0  0  0  0  0  0  0  0  0
    3.2296    1.6036   -0.7985 H   0  0  0  0  0  0  0  0  0  0  0  0
    1.8679   -3.0873    0.0111 H   0  0  0  0  0  0  0  0  0  0  0  0
    5.8926   -0.7253   -0.5387 H   0  0  0  0  0  0  0  0  0  0  0  0
   -0.8654   -0.6398   -0.6543 H   0  0  0  0  0  0  0  0  0  0  0  0
    6.2739    0.2424    3.2163 H   0  0  0  0  0  0  0  0  0  0  0  0
    4.9064   -0.6712    2.5297 H   0  0  0  0  0  0  0  0  0  0  0  0
    6.5929   -1.0087    1.9855 H   0  0  0  0  0  0  0  0  0  0  0  0
   -2.5119   -3.7597   -0.5526 H   0  0  0  0  0  0  0  0  0  0  0  0
   -4.6880   -3.2913   -0.0025 H   0  0  0  0  0  0  0  0  0  0  0  0
  1 24  1  0  0  0  0
  2  5  2  0  0  0  0
  2  6  2  0  0  0  0
  2  8  1  0  0  0  0
  2 27  1  0  0  0  0
  3 17  1  0  0  0  0
  3 19  1  0  0  0  0
  4 18  1  0  0  0  0
  4 25  1  0  0  0  0
  7 26  2  0  0  0  0
  8 21  1  0  0  0  0
  8 44  1  0  0  0  0
  9 20  1  0  0  0  0
  9 26  1  0  0  0  0
  9 45  1  0  0  0  0
 10 26  1  0  0  0  0
 10 28  1  0  0  0  0
 10 49  1  0  0  0  0
 11 25  2  0  0  0  0
 11 28  1  0  0  0  0
 12 29  2  0  0  0  0
 12 30  1  0  0  0  0
 13 31  3  0  0  0  0
 14 15  1  0  0  0  0
 14 16  1  0  0  0  0
 14 32  1  0  0  0  0
 14 33  1  0  0  0  0
 15 17  1  0  0  0  0
 15 34  1  0  0  0  0
 15 35  1  0  0  0  0
 16 18  1  0  0  0  0
 16 36  1  0  0  0  0
 16 37  1  0  0  0  0
 17 38  1  0  0  0  0
 17 39  1  0  0  0  0
 18 40  1  0  0  0  0
 18 41  1  0  0  0  0
 19 20  1  0  0  0  0
 19 22  2  0  0  0  0
 20 23  2  0  0  0  0
 21 22  1  0  0  0  0
 21 24  2  0  0  0  0
 22 42  1  0  0  0  0
 23 24  1  0  0  0  0
 23 43  1  0  0  0  0
 25 29  1  0  0  0  0
 27 46  1  0  0  0  0
 27 47  1  0  0  0  0
 27 48  1  0  0  0  0
 28 30  2  0  0  0  0
 29 31  1  0  0  0  0
 30 50  1  0  0  0  0
M  END
> <PUBCHEM_COMPOUND_CID>
11397177

> <PUBCHEM_CONFORMER_RMSD>
0.8

> <PUBCHEM_CONFORMER_DIVERSEORDER>
2
21
15
34
25
28
13
20
6
9
32
29
12
8
11
7
3
17
14
16
10
26
1
35
27
24
33
36
18
4
5
23
22
31
19
30

> <PUBCHEM_MMFF94_PARTIAL_CHARGES>
34
1 -0.18
10 -0.55
11 -0.62
12 -0.62
13 -0.56
17 0.28
18 0.28
19 0.08
2 1.33
20 0.12
21 0.2
22 -0.15
23 -0.15
24 0.18
25 0.39
26 0.69
27 0.11
28 0.43
29 0.38
3 -0.36
30 0.16
31 0.48
4 -0.36
42 0.15
43 0.15
44 0.42
45 0.37
49 0.37
5 -0.65
50 0.15
6 -0.65
7 -0.57
8 -0.76
9 -0.55

> <PUBCHEM_EFFECTIVE_ROTOR_COUNT>
3.8

> <PUBCHEM_PHARMACOPHORE_FEATURES>
11
1 10 donor
1 12 acceptor
1 13 acceptor
1 3 acceptor
1 5 acceptor
1 6 acceptor
1 7 acceptor
1 8 donor
1 9 donor
6 11 12 25 28 29 30 rings
6 19 20 21 22 23 24 rings

> <PUBCHEM_HEAVY_ATOM_COUNT>
31

> <PUBCHEM_ATOM_DEF_STEREO_COUNT>
0

> <PUBCHEM_ATOM_UDEF_STEREO_COUNT>
0

> <PUBCHEM_BOND_DEF_STEREO_COUNT>
0

> <PUBCHEM_BOND_UDEF_STEREO_COUNT>
0

> <PUBCHEM_ISOTOPIC_ATOM_COUNT>
0

> <PUBCHEM_COMPONENT_COUNT>
1

> <PUBCHEM_CACTVS_TAUTO_COUNT>
5

> <PUBCHEM_CONFORMER_ID>
00ADE83900000002

> <PUBCHEM_MMFF94_ENERGY>
95.9703

> <PUBCHEM_FEATURE_SELFOVERLAP>
55.881

> <PUBCHEM_SHAPE_FINGERPRINT>
10906281 52 18042695082170212166
10939801 23 18336271236079033716
1100329 8 18192439782058398239
11595378 159 18114447990753200576
12422481 6 18410576167015975552
12838862 33 18411127023212299597
13140716 1 18048596220736380286
13561361 72 18410004417302539728
13757389 114 17838060661109511990
14028597 1 17313373522702031688
14117953 113 18265907865395613381
14394314 77 18341899580483465401
14395042 24 18268153248829650379
14790565 3 17686352262311328156
15328829 1 17531259391751524388
15950262 2 15841004269205731337
16110190 28 18337676411664823565
17980427 23 18130786832167918415
1813 80 17240484702268757494
18336668 15 18187084013685683733
18608769 82 18410575055700848204
20642791 178 18264226845260924309
21033648 29 18060133279903124922
21315764 268 18340765932017315810
21421861 104 18187633688512618370
22113638 7 18339087089852663223
23845131 108 17759792650908244180
25019877 29 17417536933443832615
350125 39 18339361860744458422
3680242 22 18263383446679984249
392239 28 18130790087394926257
474144 1 17896620554797372932
5047190 48 18412262861483314686
5104073 3 18266173925265304056
552612 73 18343299250696082678
653340 110 18338797793271553340
9777508 108 18048028567672820876

> <PUBCHEM_SHAPE_MULTIPOLES>
584.45
14.97
4.46
1.41
1.81
0.9
0.28
0.68
10.23
-1.19
-1.71
0.91
0.75
0.22

> <PUBCHEM_SHAPE_SELFOVERLAP>
1213.893

> <PUBCHEM_SHAPE_VOLUME>
331.9

> <PUBCHEM_COORDINATE_TYPE>
2
5
10

$$$$
