24180596
  -OEChem-10062122003D

 56 60  0     0  0  0  0  0  0999 V2000
    9.8961    2.4659    0.7784 O   0  0  0  0  0  0  0  0  0  0  0  0
    2.5324   -2.4285   -0.4155 O   0  0  0  0  0  0  0  0  0  0  0  0
    7.8843    0.6541   -0.1000 N   0  0  0  0  0  0  0  0  0  0  0  0
   -1.9067    1.1107   -1.3422 N   0  0  0  0  0  0  0  0  0  0  0  0
   -3.1769    1.5867   -1.2760 N   0  0  0  0  0  0  0  0  0  0  0  0
   -7.3661   -0.1914    0.2421 N   0  0  0  0  0  0  0  0  0  0  0  0
  -10.4151    1.1278    0.8790 N   0  0  0  0  0  0  0  0  0  0  0  0
    7.0721   -0.5517    0.0485 C   0  0  0  0  0  0  0  0  0  0  0  0
    9.3120    0.3150   -0.1804 C   0  0  0  0  0  0  0  0  0  0  0  0
    7.6493    1.5821    1.0148 C   0  0  0  0  0  0  0  0  0  0  0  0
    5.6211   -0.2648   -0.3336 C   0  0  0  0  0  0  0  0  0  0  0  0
   -2.9843   -1.6342    0.6504 C   0  0  0  0  0  0  0  0  0  0  0  0
   -2.9900   -0.3650   -0.1295 C   0  0  0  0  0  0  0  0  0  0  0  0
   -1.4968   -1.9809    0.4443 C   0  0  0  0  0  0  0  0  0  0  0  0
   -0.7984   -1.0226   -0.3431 C   0  0  0  0  0  0  0  0  0  0  0  0
   -1.7752   -0.0464   -0.6689 C   0  0  0  0  0  0  0  0  0  0  0  0
    4.7519   -1.5113   -0.1768 C   0  0  0  0  0  0  0  0  0  0  0  0
   10.1399    1.5890   -0.3222 C   0  0  0  0  0  0  0  0  0  0  0  0
    8.5159    2.8265    0.8439 C   0  0  0  0  0  0  0  0  0  0  0  0
   -3.8296    0.6743   -0.5310 C   0  0  0  0  0  0  0  0  0  0  0  0
    3.3113   -1.2481   -0.5951 C   0  0  0  0  0  0  0  0  0  0  0  0
    0.5389   -1.1400   -0.6478 C   0  0  0  0  0  0  0  0  0  0  0  0
   -0.8274   -3.0868    0.9372 C   0  0  0  0  0  0  0  0  0  0  0  0
    1.2063   -2.2596   -0.1459 C   0  0  0  0  0  0  0  0  0  0  0  0
    0.5327   -3.2202    0.6360 C   0  0  0  0  0  0  0  0  0  0  0  0
   -5.2277    0.8319   -0.2324 C   0  0  0  0  0  0  0  0  0  0  0  0
   -5.8004    2.0947   -0.1275 C   0  0  0  0  0  0  0  0  0  0  0  0
   -6.0464   -0.2694   -0.0406 C   0  0  0  0  0  0  0  0  0  0  0  0
   -7.1550    2.2157    0.1621 C   0  0  0  0  0  0  0  0  0  0  0  0
   -7.8874    1.0525    0.3363 C   0  0  0  0  0  0  0  0  0  0  0  0
   -9.2808    1.0940    0.6355 C   0  0  0  0  0  0  0  0  0  0  0  0
    7.4395   -1.3323   -0.6308 H   0  0  0  0  0  0  0  0  0  0  0  0
    7.1386   -0.9626    1.0642 H   0  0  0  0  0  0  0  0  0  0  0  0
    9.5045   -0.3278   -1.0470 H   0  0  0  0  0  0  0  0  0  0  0  0
    9.6245   -0.2265    0.7220 H   0  0  0  0  0  0  0  0  0  0  0  0
    7.8944    1.1001    1.9704 H   0  0  0  0  0  0  0  0  0  0  0  0
    6.6059    1.9075    1.0584 H   0  0  0  0  0  0  0  0  0  0  0  0
    5.1941    0.5270    0.2908 H   0  0  0  0  0  0  0  0  0  0  0  0
    5.5753    0.0854   -1.3727 H   0  0  0  0  0  0  0  0  0  0  0  0
   -3.2054   -1.4717    1.7080 H   0  0  0  0  0  0  0  0  0  0  0  0
   -3.6187   -2.4037    0.2049 H   0  0  0  0  0  0  0  0  0  0  0  0
    5.1558   -2.3365   -0.7764 H   0  0  0  0  0  0  0  0  0  0  0  0
    4.7707   -1.8590    0.8637 H   0  0  0  0  0  0  0  0  0  0  0  0
    9.9214    2.1112   -1.2617 H   0  0  0  0  0  0  0  0  0  0  0  0
   11.2065    1.3423   -0.3209 H   0  0  0  0  0  0  0  0  0  0  0  0
    8.3872    3.4915    1.7038 H   0  0  0  0  0  0  0  0  0  0  0  0
    8.2415    3.3909   -0.0558 H   0  0  0  0  0  0  0  0  0  0  0  0
    3.2768   -0.9575   -1.6517 H   0  0  0  0  0  0  0  0  0  0  0  0
    2.9326   -0.4218    0.0209 H   0  0  0  0  0  0  0  0  0  0  0  0
    1.0149   -0.3939   -1.2730 H   0  0  0  0  0  0  0  0  0  0  0  0
   -1.3357   -3.8316    1.5395 H   0  0  0  0  0  0  0  0  0  0  0  0
   -1.2158    1.6392   -1.8613 H   0  0  0  0  0  0  0  0  0  0  0  0
    1.0770   -4.0826    1.0143 H   0  0  0  0  0  0  0  0  0  0  0  0
   -5.2139    3.0004   -0.2591 H   0  0  0  0  0  0  0  0  0  0  0  0
   -5.6834   -1.2880   -0.1241 H   0  0  0  0  0  0  0  0  0  0  0  0
   -7.6101    3.1972    0.2476 H   0  0  0  0  0  0  0  0  0  0  0  0
  1 18  1  0  0  0  0
  1 19  1  0  0  0  0
  2 21  1  0  0  0  0
  2 24  1  0  0  0  0
  3  8  1  0  0  0  0
  3  9  1  0  0  0  0
  3 10  1  0  0  0  0
  4  5  1  0  0  0  0
  4 16  1  0  0  0  0
  4 52  1  0  0  0  0
  5 20  2  0  0  0  0
  6 28  1  0  0  0  0
  6 30  2  0  0  0  0
  7 31  3  0  0  0  0
  8 11  1  0  0  0  0
  8 32  1  0  0  0  0
  8 33  1  0  0  0  0
  9 18  1  0  0  0  0
  9 34  1  0  0  0  0
  9 35  1  0  0  0  0
 10 19  1  0  0  0  0
 10 36  1  0  0  0  0
 10 37  1  0  0  0  0
 11 17  1  0  0  0  0
 11 38  1  0  0  0  0
 11 39  1  0  0  0  0
 12 13  1  0  0  0  0
 12 14  1  0  0  0  0
 12 40  1  0  0  0  0
 12 41  1  0  0  0  0
 13 16  2  0  0  0  0
 13 20  1  0  0  0  0
 14 15  2  0  0  0  0
 14 23  1  0  0  0  0
 15 16  1  0  0  0  0
 15 22  1  0  0  0  0
 17 21  1  0  0  0  0
 17 42  1  0  0  0  0
 17 43  1  0  0  0  0
 18 44  1  0  0  0  0
 18 45  1  0  0  0  0
 19 46  1  0  0  0  0
 19 47  1  0  0  0  0
 20 26  1  0  0  0  0
 21 48  1  0  0  0  0
 21 49  1  0  0  0  0
 22 24  2  0  0  0  0
 22 50  1  0  0  0  0
 23 25  2  0  0  0  0
 23 51  1  0  0  0  0
 24 25  1  0  0  0  0
 25 53  1  0  0  0  0
 26 27  1  0  0  0  0
 26 28  2  0  0  0  0
 27 29  2  0  0  0  0
 27 54  1  0  0  0  0
 28 55  1  0  0  0  0
 29 30  1  0  0  0  0
 29 56  1  0  0  0  0
 30 31  1  0  0  0  0
M  END
> <PUBCHEM_COMPOUND_CID>
24180596

> <PUBCHEM_CONFORMER_RMSD>
1

> <PUBCHEM_CONFORMER_DIVERSEORDER>
1
23
63
28
27
68
113
50
33
97
55
115
6
121
30
66
26
72
82
100
90
109
48
4
44
94
83
74
31
84
16
22
69
91
85
39
108
104
111
114
5
116
32
35
2
79
112
38
107
80
65
89
67
70
71
77
49
14
105
29
13
41
64
110
34
53
56
47
36
42
73
119
93
24
20
12
40
25
3
103
86
125
95
98
37
88
61
58
8
18
9
54
51
78
43
81
17
57
15
117
120
60
11
92
96
106
118
59
75
52
102
123
46
126
19
7
45
62
124
76
99
10
21
101
87
122

> <PUBCHEM_MMFF94_PARTIAL_CHARGES>
36
1 -0.56
10 0.27
12 0.32
13 -0.18
14 -0.14
15 0.05
16 -0.2
18 0.28
19 0.28
2 -0.36
20 0.23
21 0.28
22 -0.15
23 -0.15
24 0.08
25 -0.15
26 0.05
27 -0.15
28 0.16
29 -0.15
3 -0.81
30 0.38
31 0.48
4 0.3
5 -0.71
50 0.15
51 0.15
52 0.27
53 0.15
54 0.15
55 0.15
56 0.15
6 -0.62
7 -0.56
8 0.27
9 0.27

> <PUBCHEM_EFFECTIVE_ROTOR_COUNT>
8.4

> <PUBCHEM_PHARMACOPHORE_FEATURES>
12
1 1 acceptor
1 2 acceptor
1 3 cation
1 4 donor
1 5 acceptor
1 6 acceptor
1 7 acceptor
5 12 13 14 15 16 rings
5 4 5 13 16 20 rings
6 1 3 9 10 18 19 rings
6 14 15 22 23 24 25 rings
6 6 26 27 28 29 30 rings

> <PUBCHEM_HEAVY_ATOM_COUNT>
31

> <PUBCHEM_ATOM_DEF_STEREO_COUNT>
0

> <PUBCHEM_ATOM_UDEF_STEREO_COUNT>
0

> <PUBCHEM_BOND_DEF_STEREO_COUNT>
0

> <PUBCHEM_BOND_UDEF_STEREO_COUNT>
0

> <PUBCHEM_ISOTOPIC_ATOM_COUNT>
0

> <PUBCHEM_COMPONENT_COUNT>
1

> <PUBCHEM_CACTVS_TAUTO_COUNT>
2

> <PUBCHEM_CONFORMER_ID>
0170F77400000001

> <PUBCHEM_MMFF94_ENERGY>
91.2872

> <PUBCHEM_FEATURE_SELFOVERLAP>
61.238

> <PUBCHEM_SHAPE_FINGERPRINT>
10 15 18113336401740840746
10165383 225 18409730651217079923
10190206 1 18268976730766141623
10209105 3 9583529697837193453
10319688 67 17385444319163615122
106641 1 17894635838199877475
10838868 160 18412536609212466592
10917259 69 9367086445376779031
10930396 42 16805321102544993077
11135609 201 18334571317671173771
11374522 155 18334298707686836772
11408170 108 11314305031774891177
11409948 41 15625680306786376116
11409948 8 18260840315203401771
11421887 21 17988371434221369288
11578821 258 18200029535175492969
12592606 108 8502655909149267038
12838862 33 17748824099841317119
12895837 130 18272646887567362574
13530399 1 17845662439501545841
13740195 50 18333454261708558051
13947947 74 18131348596895528136
14026016 60 14907635450532426788
14216079 64 8790884086478046670
14617042 71 18343023276391472985
14849402 71 18413671301371492945
15320295 198 18200877409248505192
15706992 2 18342184361914333450
16126227 98 18409448089724516950
16758388 162 18261663785267840210
1768 4 18412831274455703969
19301679 30 13768193949607373454
19302320 297 18186521034358795524
20105231 36 11239705415042431461
20156587 128 15338570345155975726
2026 5 8646503916459418136
20501277 279 18408043996580995913
20505436 4 18272363166423788582
21033648 29 18333450959126860638
212700 22 8790882974098263716
21795232 338 18202282546596840047
21895431 317 12396295963353318249
22224240 67 18114184099304449687
23524908 199 17489598836504251518
24771293 8 18407758140331215103
25269216 80 17131538544621772423
2851757 41 8790886315704126448
306946 40 17531235129439285709
3991529 128 17168153360760108212
44280117 145 18198340856401498166
5372103 7 17917994993055193414
5470011 282 14189570880404162240
5718773 13 9079114471409603642
5758199 1 18335986380973480663
59682541 35 18041005020828204531
6081469 158 10303810982179985152
636775 72 18410575059141909569

> <PUBCHEM_SHAPE_MULTIPOLES>
601.32
35.83
3.23
0.94
38.6
0.93
0.01
-36.68
-7.91
2.67
-0.8
0.02
-0.12
1.54

> <PUBCHEM_SHAPE_SELFOVERLAP>
1315.55

> <PUBCHEM_SHAPE_VOLUME>
324.8

> <PUBCHEM_COORDINATE_TYPE>
2
5
10

$$$$
