49830423
  -OEChem-10052115183D

 46 49  0     0  0  0  0  0  0999 V2000
   -7.1481    0.3512   -2.9192 F   0  0  0  0  0  0  0  0  0  0  0  0
   -9.0074   -0.2870    1.3896 F   0  0  0  0  0  0  0  0  0  0  0  0
    6.2446   -1.7383   -0.5475 O   0  0  0  0  0  0  0  0  0  0  0  0
    7.7240    0.7960   -0.5150 O   0  0  0  0  0  0  0  0  0  0  0  0
   -2.8756    0.3218   -0.9851 O   0  0  0  0  0  0  0  0  0  0  0  0
    5.2480   -2.7045   -0.4823 N   0  0  0  0  0  0  0  0  0  0  0  0
   -1.9488    0.0962    1.1548 N   0  0  0  0  0  0  0  0  0  0  0  0
    2.9020   -2.6024   -0.0436 N   0  0  0  0  0  0  0  0  0  0  0  0
   -4.2417    0.0152    0.8880 N   0  0  0  0  0  0  0  0  0  0  0  0
    3.5826    0.4952    0.1996 C   0  0  0  0  0  0  0  0  0  0  0  0
    4.3455   -0.6496   -0.0741 C   0  0  0  0  0  0  0  0  0  0  0  0
    2.1647    0.3928    0.4445 C   0  0  0  0  0  0  0  0  0  0  0  0
    5.7035   -0.5133   -0.3040 C   0  0  0  0  0  0  0  0  0  0  0  0
    4.2363    1.7352    0.2275 C   0  0  0  0  0  0  0  0  0  0  0  0
    6.3844    0.7002   -0.2837 C   0  0  0  0  0  0  0  0  0  0  0  0
    4.1266   -2.0352   -0.1985 C   0  0  0  0  0  0  0  0  0  0  0  0
    5.6114    1.8332   -0.0099 C   0  0  0  0  0  0  0  0  0  0  0  0
    1.2651    0.4827   -0.6178 C   0  0  0  0  0  0  0  0  0  0  0  0
    1.6931    0.2039    1.7435 C   0  0  0  0  0  0  0  0  0  0  0  0
   -0.5774    0.1951    0.9180 C   0  0  0  0  0  0  0  0  0  0  0  0
   -0.1059    0.3839   -0.3811 C   0  0  0  0  0  0  0  0  0  0  0  0
    0.3220    0.1051    1.9804 C   0  0  0  0  0  0  0  0  0  0  0  0
   -3.0137    0.1612    0.2233 C   0  0  0  0  0  0  0  0  0  0  0  0
   -5.5411    0.0212    0.3281 C   0  0  0  0  0  0  0  0  0  0  0  0
    8.2979    2.1006   -0.4645 C   0  0  0  0  0  0  0  0  0  0  0  0
   -6.6558   -0.1388    1.1512 C   0  0  0  0  0  0  0  0  0  0  0  0
   -5.7076    0.1868   -1.0469 C   0  0  0  0  0  0  0  0  0  0  0  0
   -6.9885    0.1924   -1.5989 C   0  0  0  0  0  0  0  0  0  0  0  0
   -7.9369   -0.1331    0.5993 C   0  0  0  0  0  0  0  0  0  0  0  0
   -8.1032    0.0323   -0.7757 C   0  0  0  0  0  0  0  0  0  0  0  0
    3.6760    2.6447    0.4364 H   0  0  0  0  0  0  0  0  0  0  0  0
    6.0303    2.8342    0.0325 H   0  0  0  0  0  0  0  0  0  0  0  0
    1.6175    0.6293   -1.6363 H   0  0  0  0  0  0  0  0  0  0  0  0
    2.3808    0.1310    2.5829 H   0  0  0  0  0  0  0  0  0  0  0  0
   -0.7359    0.4631   -1.2554 H   0  0  0  0  0  0  0  0  0  0  0  0
   -0.0315   -0.0424    2.9977 H   0  0  0  0  0  0  0  0  0  0  0  0
   -2.2155   -0.0408    2.1266 H   0  0  0  0  0  0  0  0  0  0  0  0
    2.7722   -3.6051   -0.1392 H   0  0  0  0  0  0  0  0  0  0  0  0
    2.0543   -2.0916    0.1713 H   0  0  0  0  0  0  0  0  0  0  0  0
   -4.2029   -0.1107    1.8963 H   0  0  0  0  0  0  0  0  0  0  0  0
    7.8828    2.7511   -1.2416 H   0  0  0  0  0  0  0  0  0  0  0  0
    8.2041    2.5410    0.5339 H   0  0  0  0  0  0  0  0  0  0  0  0
    9.3678    1.9938   -0.6707 H   0  0  0  0  0  0  0  0  0  0  0  0
   -6.5406   -0.2689    2.2241 H   0  0  0  0  0  0  0  0  0  0  0  0
   -4.8974    0.3162   -1.7499 H   0  0  0  0  0  0  0  0  0  0  0  0
   -9.1005    0.0366   -1.2054 H   0  0  0  0  0  0  0  0  0  0  0  0
  1 28  1  0  0  0  0
  2 29  1  0  0  0  0
  3  6  1  0  0  0  0
  3 13  1  0  0  0  0
  4 15  1  0  0  0  0
  4 25  1  0  0  0  0
  5 23  2  0  0  0  0
  6 16  2  0  0  0  0
  7 20  1  0  0  0  0
  7 23  1  0  0  0  0
  7 37  1  0  0  0  0
  8 16  1  0  0  0  0
  8 38  1  0  0  0  0
  8 39  1  0  0  0  0
  9 23  1  0  0  0  0
  9 24  1  0  0  0  0
  9 40  1  0  0  0  0
 10 11  2  0  0  0  0
 10 12  1  0  0  0  0
 10 14  1  0  0  0  0
 11 13  1  0  0  0  0
 11 16  1  0  0  0  0
 12 18  2  0  0  0  0
 12 19  1  0  0  0  0
 13 15  2  0  0  0  0
 14 17  2  0  0  0  0
 14 31  1  0  0  0  0
 15 17  1  0  0  0  0
 17 32  1  0  0  0  0
 18 21  1  0  0  0  0
 18 33  1  0  0  0  0
 19 22  2  0  0  0  0
 19 34  1  0  0  0  0
 20 21  2  0  0  0  0
 20 22  1  0  0  0  0
 21 35  1  0  0  0  0
 22 36  1  0  0  0  0
 24 26  2  0  0  0  0
 24 27  1  0  0  0  0
 25 41  1  0  0  0  0
 25 42  1  0  0  0  0
 25 43  1  0  0  0  0
 26 29  1  0  0  0  0
 26 44  1  0  0  0  0
 27 28  2  0  0  0  0
 27 45  1  0  0  0  0
 28 30  1  0  0  0  0
 29 30  2  0  0  0  0
 30 46  1  0  0  0  0
M  END
> <PUBCHEM_COMPOUND_CID>
49830423

> <PUBCHEM_CONFORMER_RMSD>
0.8

> <PUBCHEM_CONFORMER_DIVERSEORDER>
2
8
19
16
10
5
7
4
12
6
9
3
1
17
20
18
15
14
13
11

> <PUBCHEM_MMFF94_PARTIAL_CHARGES>
40
1 -0.19
13 0.14
14 -0.15
15 0.08
16 0.37
17 -0.15
18 -0.15
19 -0.15
2 -0.19
20 0.12
21 -0.15
22 -0.15
23 0.69
24 0.12
25 0.28
26 -0.15
27 -0.15
28 0.19
29 0.19
3 -0.02
30 -0.15
31 0.15
32 0.15
33 0.15
34 0.15
35 0.15
36 0.15
37 0.37
38 0.4
39 0.4
4 -0.36
40 0.37
44 0.15
45 0.15
46 0.15
5 -0.57
6 -0.41
7 -0.55
8 -0.88
9 -0.55

> <PUBCHEM_EFFECTIVE_ROTOR_COUNT>
6

> <PUBCHEM_PHARMACOPHORE_FEATURES>
10
1 4 acceptor
1 5 acceptor
1 7 donor
1 8 donor
1 9 donor
3 6 8 16 cation
5 3 6 11 13 16 rings
6 10 11 13 14 15 17 rings
6 12 18 19 20 21 22 rings
6 24 26 27 28 29 30 rings

> <PUBCHEM_HEAVY_ATOM_COUNT>
30

> <PUBCHEM_ATOM_DEF_STEREO_COUNT>
0

> <PUBCHEM_ATOM_UDEF_STEREO_COUNT>
0

> <PUBCHEM_BOND_DEF_STEREO_COUNT>
0

> <PUBCHEM_BOND_UDEF_STEREO_COUNT>
0

> <PUBCHEM_ISOTOPIC_ATOM_COUNT>
0

> <PUBCHEM_COMPONENT_COUNT>
1

> <PUBCHEM_CACTVS_TAUTO_COUNT>
20

> <PUBCHEM_CONFORMER_ID>
02F85A1700000002

> <PUBCHEM_MMFF94_ENERGY>
94.1183

> <PUBCHEM_FEATURE_SELFOVERLAP>
50.894

> <PUBCHEM_SHAPE_FINGERPRINT>
10299344 5 17704073993205940625
10319688 140 18116991092039497266
10595046 47 18272376321744410088
11719270 70 14996278115341715825
11963148 33 15985099695715065493
12082328 90 18411702072378458305
12144603 126 17632587037271409977
12236239 1 17560810901330867000
12838862 33 18341042013501695864
13533116 47 18130787828716634994
14068700 675 16343986923062729337
14118638 360 18412264999992243904
14251764 18 17561081406164433959
14294032 229 14635700892232322247
14512766 119 16734375007810656101
150020 25 17967817128188440007
15119646 104 17632580414073279455
15183329 4 18272646840486154599
15198563 99 18115305562595063917
15328684 2 16915954975886238243
15419008 47 17894343393824894597
15510794 2 17967818258002216259
1577012 14 17703793604755859177
15849732 13 18040155132515218295
19841028 212 15625677020202678836
20157964 124 18410295818001191408
20554085 129 16515682260688385656
21150785 3 18413388743582566257
21267235 1 15052017887645492433
23081809 10 17847064376602313673
23516275 137 17702689682123999879
23522609 53 17273720782703350577
23559900 14 18340204201739648617
249057 3 18341051916825822724
255183 451 17558001546006632254
3004659 81 16343983636832368505
34797466 226 18186523219452254104
3633792 109 18410577249363649641
4073 2 18260837041505236586
4098825 35 18340488855377494129
45377200 153 18336265765098340627
5219985 9 17346599668824358713

> <PUBCHEM_SHAPE_MULTIPOLES>
565.31
27.88
1.7
1.49
32.4
0.97
-0.19
-3.49
-6.89
-5.39
-0.29
3.13
-0.14
0.59

> <PUBCHEM_SHAPE_SELFOVERLAP>
1255.921

> <PUBCHEM_SHAPE_VOLUME>
303

> <PUBCHEM_COORDINATE_TYPE>
2
5
10

$$$$
