2801756
  -OEChem-10052120443D

 17 19  0     0  0  0  0  0  0999 V2000
    4.5746   -0.0685   -0.0012 Cl  0  0  0  0  0  0  0  0  0  0  0  0
   -1.2581    0.4909    0.0003 N   0  0  0  0  0  0  0  0  0  0  0  0
   -0.1785   -2.0132    0.0006 N   0  0  0  0  0  0  0  0  0  0  0  0
   -1.4327   -1.8732   -0.0002 N   0  0  0  0  0  0  0  0  0  0  0  0
   -2.0360    1.5797   -0.0001 N   0  0  0  0  0  0  0  0  0  0  0  0
   -3.2842   -0.2700   -0.0006 N   0  0  0  0  0  0  0  0  0  0  0  0
   -3.2762    1.1083   -0.0007 N   0  0  0  0  0  0  0  0  0  0  0  0
    0.1260    0.4413    0.0006 C   0  0  0  0  0  0  0  0  0  0  0  0
    0.6474   -0.8592    0.0005 C   0  0  0  0  0  0  0  0  0  0  0  0
    0.9279    1.5789    0.0005 C   0  0  0  0  0  0  0  0  0  0  0  0
   -2.0202   -0.6477    0.0001 C   0  0  0  0  0  0  0  0  0  0  0  0
    2.0362   -1.0029   -0.0001 C   0  0  0  0  0  0  0  0  0  0  0  0
    2.3106    1.4100    0.0006 C   0  0  0  0  0  0  0  0  0  0  0  0
    2.8631    0.1256   -0.0002 C   0  0  0  0  0  0  0  0  0  0  0  0
    0.5082    2.5797    0.0005 H   0  0  0  0  0  0  0  0  0  0  0  0
    2.4725   -1.9996   -0.0004 H   0  0  0  0  0  0  0  0  0  0  0  0
    2.9510    2.2886    0.0006 H   0  0  0  0  0  0  0  0  0  0  0  0
  1 14  1  0  0  0  0
  2  5  1  0  0  0  0
  2  8  1  0  0  0  0
  2 11  1  0  0  0  0
  3  4  2  0  0  0  0
  3  9  1  0  0  0  0
  4 11  1  0  0  0  0
  5  7  2  0  0  0  0
  6  7  1  0  0  0  0
  6 11  2  0  0  0  0
  8  9  2  0  0  0  0
  8 10  1  0  0  0  0
  9 12  1  0  0  0  0
 10 13  2  0  0  0  0
 10 15  1  0  0  0  0
 12 14  2  0  0  0  0
 12 16  1  0  0  0  0
 13 14  1  0  0  0  0
 13 17  1  0  0  0  0
M  END
> <PUBCHEM_COMPOUND_CID>
2801756

> <PUBCHEM_CONFORMER_RMSD>
0.4

> <PUBCHEM_CONFORMER_DIVERSEORDER>
1

> <PUBCHEM_MMFF94_PARTIAL_CHARGES>
16
1 -0.18
10 -0.15
11 0.31
12 -0.15
13 -0.15
14 0.18
15 0.15
16 0.15
17 0.15
2 0.59
3 -0.18
4 -0.13
5 -0.42
6 -0.34
8 -0.02
9 0.18

> <PUBCHEM_EFFECTIVE_ROTOR_COUNT>
0

> <PUBCHEM_PHARMACOPHORE_FEATURES>
4
4 2 4 6 11 cation
5 2 5 6 7 11 rings
6 2 3 4 8 9 11 rings
6 8 9 10 12 13 14 rings

> <PUBCHEM_HEAVY_ATOM_COUNT>
14

> <PUBCHEM_ATOM_DEF_STEREO_COUNT>
0

> <PUBCHEM_ATOM_UDEF_STEREO_COUNT>
0

> <PUBCHEM_BOND_DEF_STEREO_COUNT>
0

> <PUBCHEM_BOND_UDEF_STEREO_COUNT>
0

> <PUBCHEM_ISOTOPIC_ATOM_COUNT>
0

> <PUBCHEM_COMPONENT_COUNT>
1

> <PUBCHEM_CACTVS_TAUTO_COUNT>
1

> <PUBCHEM_CONFORMER_ID>
002AC05C00000001

> <PUBCHEM_MMFF94_ENERGY>
37.2682

> <PUBCHEM_FEATURE_SELFOVERLAP>
20.469

> <PUBCHEM_SHAPE_FINGERPRINT>
10608611 8 18341046427820773152
10967382 1 18410575050319164806
11132069 177 18411976966805752104
12032990 46 18411707582104035302
13380535 76 18411699880779540582
14144814 61 18409728452283345752
14325111 11 18410856581141253152
14911166 2 18411134731850005404
14993402 34 18408601452917655340
15196674 1 18410574028132818084
15536298 74 18271525282828340414
15775835 57 18260832570417302976
16945 1 18410574023901212774
17804303 29 18412266164102096808
193761 8 17906171007316948932
200 152 18060409236273627573
20201158 50 18343304764553350038
20588541 1 18411984633222122710
20645476 183 17823437039868336782
20871998 184 18128824225324312567
21267235 1 18410301332122345766
21501502 16 18266460008567680676
2334 1 17978511162952882756
23402539 116 18272078396800024661
23402655 69 18269542854931866181
23463225 33 18334854992129692530
23552423 10 18044937011383861166
23559900 14 18343585136635900292
25 1 18265046947184435277
2748010 2 18050848020043572191
528886 8 18411132520073710128
53812653 166 18413385423836434800
54173680 148 18192714668302491274
6333449 129 18411979186839711391
69090 78 18201152234539434631
7364860 26 18197778795606163102
8809292 202 18261959660141148994

> <PUBCHEM_SHAPE_MULTIPOLES>
260.1
5.91
1.82
0.58
2.43
0.2
0
-0.67
0
-0.48
0
0.09
-0.01
0

> <PUBCHEM_SHAPE_SELFOVERLAP>
573.85

> <PUBCHEM_SHAPE_VOLUME>
140.1

> <PUBCHEM_COORDINATE_TYPE>
2
5
10

$$$$
