44415977
  -OEChem-10062122003D

 41 44  0     0  0  0  0  0  0999 V2000
   -2.6155    0.6079    0.5570 N   0  0  0  0  0  0  0  0  0  0  0  0
   -0.3329    0.7645    0.1645 N   0  0  0  0  0  0  0  0  0  0  0  0
   -1.6721    2.7292    0.5567 N   0  0  0  0  0  0  0  0  0  0  0  0
    4.0398    0.6194   -1.0447 N   0  0  0  0  0  0  0  0  0  0  0  0
    4.5174   -1.6127   -0.2745 N   0  0  0  0  0  0  0  0  0  0  0  0
   -2.5949   -0.8380    0.4394 C   0  0  0  0  0  0  0  0  0  0  0  0
   -3.8089   -1.4408    1.1537 C   0  0  0  0  0  0  0  0  0  0  0  0
   -2.5507   -1.2456   -1.0367 C   0  0  0  0  0  0  0  0  0  0  0  0
   -5.1221   -1.1731    0.4178 C   0  0  0  0  0  0  0  0  0  0  0  0
   -3.8684   -0.9776   -1.7643 C   0  0  0  0  0  0  0  0  0  0  0  0
   -5.0510   -1.6139   -1.0408 C   0  0  0  0  0  0  0  0  0  0  0  0
   -1.4914    1.4016    0.4202 C   0  0  0  0  0  0  0  0  0  0  0  0
    0.7430    1.5687    0.0368 C   0  0  0  0  0  0  0  0  0  0  0  0
    1.9874    0.9089   -0.2353 C   0  0  0  0  0  0  0  0  0  0  0  0
    2.4329   -0.3876    0.1350 C   0  0  0  0  0  0  0  0  0  0  0  0
    0.6912    2.9428    0.1538 C   0  0  0  0  0  0  0  0  0  0  0  0
    3.7155   -0.5367   -0.3847 C   0  0  0  0  0  0  0  0  0  0  0  0
    2.9969    1.5050   -0.9598 C   0  0  0  0  0  0  0  0  0  0  0  0
   -0.5553    3.4731    0.4168 C   0  0  0  0  0  0  0  0  0  0  0  0
    1.8988   -1.4672    0.8572 C   0  0  0  0  0  0  0  0  0  0  0  0
    2.6874   -2.6071    1.0020 C   0  0  0  0  0  0  0  0  0  0  0  0
    3.9526   -2.6208    0.4300 C   0  0  0  0  0  0  0  0  0  0  0  0
   -1.7038   -1.2304    0.9459 H   0  0  0  0  0  0  0  0  0  0  0  0
   -3.8814   -1.0524    2.1768 H   0  0  0  0  0  0  0  0  0  0  0  0
   -3.6689   -2.5264    1.2364 H   0  0  0  0  0  0  0  0  0  0  0  0
   -2.3348   -2.3204   -1.0954 H   0  0  0  0  0  0  0  0  0  0  0  0
   -1.7381   -0.7390   -1.5695 H   0  0  0  0  0  0  0  0  0  0  0  0
   -5.3713   -0.1067    0.4667 H   0  0  0  0  0  0  0  0  0  0  0  0
   -5.9362   -1.7074    0.9210 H   0  0  0  0  0  0  0  0  0  0  0  0
   -3.8090   -1.3714   -2.7854 H   0  0  0  0  0  0  0  0  0  0  0  0
   -4.0303    0.1036   -1.8512 H   0  0  0  0  0  0  0  0  0  0  0  0
   -4.9618   -2.7063   -1.0875 H   0  0  0  0  0  0  0  0  0  0  0  0
   -5.9828   -1.3481   -1.5524 H   0  0  0  0  0  0  0  0  0  0  0  0
   -3.4948    1.0864    0.7128 H   0  0  0  0  0  0  0  0  0  0  0  0
    1.5522    3.5934    0.0661 H   0  0  0  0  0  0  0  0  0  0  0  0
    3.0800    2.4724   -1.4370 H   0  0  0  0  0  0  0  0  0  0  0  0
   -0.6944    4.5431    0.5291 H   0  0  0  0  0  0  0  0  0  0  0  0
    4.9136    0.7911   -1.5223 H   0  0  0  0  0  0  0  0  0  0  0  0
    0.9085   -1.4297    1.2986 H   0  0  0  0  0  0  0  0  0  0  0  0
    2.3191   -3.4664    1.5521 H   0  0  0  0  0  0  0  0  0  0  0  0
    4.5811   -3.5016    0.5333 H   0  0  0  0  0  0  0  0  0  0  0  0
  1  6  1  0  0  0  0
  1 12  1  0  0  0  0
  1 34  1  0  0  0  0
  2 12  1  0  0  0  0
  2 13  2  0  0  0  0
  3 12  2  0  0  0  0
  3 19  1  0  0  0  0
  4 17  1  0  0  0  0
  4 18  1  0  0  0  0
  4 38  1  0  0  0  0
  5 17  1  0  0  0  0
  5 22  2  0  0  0  0
  6  7  1  0  0  0  0
  6  8  1  0  0  0  0
  6 23  1  0  0  0  0
  7  9  1  0  0  0  0
  7 24  1  0  0  0  0
  7 25  1  0  0  0  0
  8 10  1  0  0  0  0
  8 26  1  0  0  0  0
  8 27  1  0  0  0  0
  9 11  1  0  0  0  0
  9 28  1  0  0  0  0
  9 29  1  0  0  0  0
 10 11  1  0  0  0  0
 10 30  1  0  0  0  0
 10 31  1  0  0  0  0
 11 32  1  0  0  0  0
 11 33  1  0  0  0  0
 13 14  1  0  0  0  0
 13 16  1  0  0  0  0
 14 15  1  0  0  0  0
 14 18  2  0  0  0  0
 15 17  2  0  0  0  0
 15 20  1  0  0  0  0
 16 19  2  0  0  0  0
 16 35  1  0  0  0  0
 18 36  1  0  0  0  0
 19 37  1  0  0  0  0
 20 21  2  0  0  0  0
 20 39  1  0  0  0  0
 21 22  1  0  0  0  0
 21 40  1  0  0  0  0
 22 41  1  0  0  0  0
M  END
> <PUBCHEM_COMPOUND_CID>
44415977

> <PUBCHEM_CONFORMER_RMSD>
0.8

> <PUBCHEM_CONFORMER_DIVERSEORDER>
1
27
45
36
57
12
16
53
48
55
22
59
41
21
24
29
30
25
5
2
20
46
11
38
47
40
15
7
19
44
31
14
26
58
9
17
56
60
43
8
13
35
52
4
3
39
28
34
51
49
18
37
32
50
10
6
54
23
42
33

> <PUBCHEM_MMFF94_PARTIAL_CHARGES>
24
1 -0.87
12 0.72
13 0.36
14 -0.05
16 -0.15
17 0.11
18 -0.3
19 0.16
2 -0.62
20 -0.15
21 -0.15
22 0.16
3 -0.62
34 0.4
35 0.15
36 0.15
37 0.15
38 0.27
39 0.15
4 0.03
40 0.15
41 0.15
5 -0.57
6 0.37

> <PUBCHEM_EFFECTIVE_ROTOR_COUNT>
4.2

> <PUBCHEM_PHARMACOPHORE_FEATURES>
10
1 1 donor
1 2 acceptor
1 4 cation
1 4 donor
1 5 acceptor
4 1 2 3 12 cation
5 4 14 15 17 18 rings
6 2 3 12 13 16 19 rings
6 5 15 17 20 21 22 rings
6 6 7 8 9 10 11 rings

> <PUBCHEM_HEAVY_ATOM_COUNT>
22

> <PUBCHEM_ATOM_DEF_STEREO_COUNT>
0

> <PUBCHEM_ATOM_UDEF_STEREO_COUNT>
0

> <PUBCHEM_BOND_DEF_STEREO_COUNT>
0

> <PUBCHEM_BOND_UDEF_STEREO_COUNT>
0

> <PUBCHEM_ISOTOPIC_ATOM_COUNT>
0

> <PUBCHEM_COMPONENT_COUNT>
1

> <PUBCHEM_CACTVS_TAUTO_COUNT>
16

> <PUBCHEM_CONFORMER_ID>
02A5BBE900000001

> <PUBCHEM_MMFF94_ENERGY>
45.6621

> <PUBCHEM_FEATURE_SELFOVERLAP>
50.859

> <PUBCHEM_SHAPE_FINGERPRINT>
10616163 171 18195252117996030794
12403259 327 14405197187225765863
12553582 1 18341049700385223651
12633257 1 16415476064861618667
12788726 201 18272381832234910409
13004483 165 18342730798087948681
13140716 1 18268148656464508552
13533116 47 18124314076620947059
13544653 18 18408888455501490581
13631057 29 18340772551126148432
13911987 19 17754758330930697412
14178342 30 18047457942892104978
14251757 17 17458053868312998991
14576447 43 18410577305614845286
14767858 380 18263661704810937740
14787075 74 18200597037798996360
14931854 50 18260834799664072918
15042514 8 18196378017976934473
15099037 8 18336266721883432128
15183329 4 18201995552591513325
15342816 4 18342748437381555276
15375462 189 18341336677220146353
15537594 2 18269847552321804007
17492 89 18265900155376104106
17818456 19 17775300356801891489
1813 80 18202292424081857669
19319366 153 18191026909812093086
20291156 8 18411982450993653427
20626108 58 17488167387490545487
20645477 70 18114743844884844027
21250096 35 18412823607807178927
21478907 32 18410573947035264041
21634736 98 18335148536106949198
221357 26 18334002913879179735
2255824 54 18124878125210231437
235170 7 16950558921841405639
23598288 3 18268718203482518989
23622692 118 18338795607433399350
2871803 45 18334297590962729318
3004659 81 18113896044100056090
314173 41 18339367490670889567
314194 84 18339367477939182915
345986 75 18131637794317758913
46194498 28 17096651096522487799
463206 1 18337952406290014971
59025328 239 17625777856160378605
59682541 52 18193532650084177815
636775 72 9291001348952949426
7164475 11 18337671910723479828
7471813 234 18410844452570327750
7808743 9 9150586021065050254
7970288 3 18413670223008089239
960060 61 18335132142000639415

> <PUBCHEM_SHAPE_MULTIPOLES>
427.84
9.85
3.59
1.16
5.21
2.1
0.26
-8.22
1.92
-1.5
-0.85
0.77
-0.37
-1.33

> <PUBCHEM_SHAPE_SELFOVERLAP>
940.932

> <PUBCHEM_SHAPE_VOLUME>
227.2

> <PUBCHEM_COORDINATE_TYPE>
2
5
10

$$$$
