4589745
  -OEChem-10052115183D

 30 31  0     0  0  0  0  0  0999 V2000
    3.9022   -0.7750   -0.7642 S   0  0  0  0  0  0  0  0  0  0  0  0
   -4.2028   -0.0334    0.1571 O   0  0  0  0  0  0  0  0  0  0  0  0
   -0.1402   -2.1197    1.5042 O   0  0  0  0  0  0  0  0  0  0  0  0
    1.0980    1.3139    0.7332 O   0  0  0  0  0  0  0  0  0  0  0  0
    3.4124    1.3661    0.6127 N   0  0  0  0  0  0  0  0  0  0  0  0
    5.7203    0.9316    0.1846 N   0  0  0  0  0  0  0  0  0  0  0  0
   -0.1965   -0.8626   -0.5434 C   0  0  0  0  0  0  0  0  0  0  0  0
   -0.8218   -1.3595    0.6003 C   0  0  0  0  0  0  0  0  0  0  0  0
   -2.8891   -0.3053   -0.0724 C   0  0  0  0  0  0  0  0  0  0  0  0
   -0.9173   -0.0870   -1.4513 C   0  0  0  0  0  0  0  0  0  0  0  0
   -2.1682   -1.0808    0.8357 C   0  0  0  0  0  0  0  0  0  0  0  0
    1.2083   -1.1392   -0.8120 C   0  0  0  0  0  0  0  0  0  0  0  0
   -2.2636    0.1916   -1.2160 C   0  0  0  0  0  0  0  0  0  0  0  0
    2.2592   -0.4183   -0.4305 C   0  0  0  0  0  0  0  0  0  0  0  0
   -4.7087    1.2005   -0.3501 C   0  0  0  0  0  0  0  0  0  0  0  0
    2.1608    0.8341    0.3623 C   0  0  0  0  0  0  0  0  0  0  0  0
   -5.8382    1.6734    0.5400 C   0  0  0  0  0  0  0  0  0  0  0  0
    4.3851    0.6696    0.1100 C   0  0  0  0  0  0  0  0  0  0  0  0
   -0.4462    0.3029   -2.3506 H   0  0  0  0  0  0  0  0  0  0  0  0
    1.3670   -2.0472   -1.3923 H   0  0  0  0  0  0  0  0  0  0  0  0
   -2.6566   -1.4673    1.7268 H   0  0  0  0  0  0  0  0  0  0  0  0
   -2.7951    0.7756   -1.9614 H   0  0  0  0  0  0  0  0  0  0  0  0
   -3.9422    1.9856   -0.3532 H   0  0  0  0  0  0  0  0  0  0  0  0
   -5.0799    1.0457   -1.3692 H   0  0  0  0  0  0  0  0  0  0  0  0
   -6.2580    2.6145    0.1736 H   0  0  0  0  0  0  0  0  0  0  0  0
   -6.6356    0.9241    0.5818 H   0  0  0  0  0  0  0  0  0  0  0  0
   -5.4854    1.8196    1.5663 H   0  0  0  0  0  0  0  0  0  0  0  0
    0.7730   -2.2689    1.2124 H   0  0  0  0  0  0  0  0  0  0  0  0
    6.4031    0.3183   -0.2470 H   0  0  0  0  0  0  0  0  0  0  0  0
    6.0708    1.7484    0.6730 H   0  0  0  0  0  0  0  0  0  0  0  0
  1 14  1  0  0  0  0
  1 18  1  0  0  0  0
  2  9  1  0  0  0  0
  2 15  1  0  0  0  0
  3  8  1  0  0  0  0
  3 28  1  0  0  0  0
  4 16  2  0  0  0  0
  5 16  1  0  0  0  0
  5 18  2  0  0  0  0
  6 18  1  0  0  0  0
  6 29  1  0  0  0  0
  6 30  1  0  0  0  0
  7  8  2  0  0  0  0
  7 10  1  0  0  0  0
  7 12  1  0  0  0  0
  8 11  1  0  0  0  0
  9 11  2  0  0  0  0
  9 13  1  0  0  0  0
 10 13  2  0  0  0  0
 10 19  1  0  0  0  0
 11 21  1  0  0  0  0
 12 14  2  3  0  0  0
 12 20  1  0  0  0  0
 13 22  1  0  0  0  0
 14 16  1  0  0  0  0
 15 17  1  0  0  0  0
 15 23  1  0  0  0  0
 15 24  1  0  0  0  0
 17 25  1  0  0  0  0
 17 26  1  0  0  0  0
 17 27  1  0  0  0  0
M  END
> <PUBCHEM_COMPOUND_CID>
4589745

> <PUBCHEM_CONFORMER_RMSD>
0.6

> <PUBCHEM_CONFORMER_DIVERSEORDER>
1
6
2
4
5
3

> <PUBCHEM_MMFF94_PARTIAL_CHARGES>
24
1 -0.24
10 -0.15
11 -0.15
12 -0.18
13 -0.15
14 0.12
15 0.28
16 0.77
18 0.64
19 0.15
2 -0.36
20 0.15
21 0.15
22 0.15
28 0.45
29 0.4
3 -0.53
30 0.4
4 -0.57
5 -0.66
6 -0.85
7 0.03
8 0.08
9 0.08

> <PUBCHEM_EFFECTIVE_ROTOR_COUNT>
3.2

> <PUBCHEM_PHARMACOPHORE_FEATURES>
7
1 2 acceptor
1 3 donor
1 4 acceptor
1 5 donor
1 6 donor
5 1 5 14 16 18 rings
6 7 8 9 10 11 13 rings

> <PUBCHEM_HEAVY_ATOM_COUNT>
18

> <PUBCHEM_ATOM_DEF_STEREO_COUNT>
0

> <PUBCHEM_ATOM_UDEF_STEREO_COUNT>
0

> <PUBCHEM_BOND_DEF_STEREO_COUNT>
0

> <PUBCHEM_BOND_UDEF_STEREO_COUNT>
1

> <PUBCHEM_ISOTOPIC_ATOM_COUNT>
0

> <PUBCHEM_COMPONENT_COUNT>
1

> <PUBCHEM_CACTVS_TAUTO_COUNT>
11

> <PUBCHEM_CONFORMER_ID>
004608B100000001

> <PUBCHEM_MMFF94_ENERGY>
51.0137

> <PUBCHEM_FEATURE_SELFOVERLAP>
35.556

> <PUBCHEM_SHAPE_FINGERPRINT>
106641 1 16950857985094275929
11132069 177 17458062660184868223
11471102 20 18059858359478569454
12119455 92 18272930526875248351
12236239 1 16343989108778881006
12251169 10 16877940559450583166
12596602 18 15285368318493040333
12633257 1 17822564005818154340
13464513 79 9151167649588317388
14178342 30 17603597335284569603
14911166 2 13973958792953426919
14993402 34 16200434680017273542
15209294 21 18187928344426831701
15295992 7 18337670918280203056
16752209 62 14189300318164235207
18186145 218 18335976506368621502
187816 3 14117519848226969287
19784866 170 17531248314577004565
200 152 14045747036216697204
20645477 70 17917998244034622646
21618674 57 18335415764508321362
21637258 2 11530765946333375229
22224240 67 17748829614310040057
231179 274 18411697656286934213
23379529 103 11165927085048895981
23402539 116 18409441513960489676
23402655 69 17846778503014680237
23559900 14 18114758048875020374
25 1 18413384332698587078
2838139 119 18060414690761456153
2916195 48 18411133666724730009
351380 180 18343864411492356305
4072396 5 18130497558068869194
427121 178 17822297838352638019
4325135 7 18060416942083195053
465052 167 13407089080310055185
474 4 18411702093125456869
5104073 3 18259982677930805834
58807428 26 17312821559159207603
59755656 520 18333728022401953647
633830 44 18410005546356562887
8272917 22 17988366953282881478

> <PUBCHEM_SHAPE_MULTIPOLES>
346.71
10.79
1.66
1.15
2.62
0
-0.06
-6.82
0.56
0.2
0.51
0.27
0.32
0.58

> <PUBCHEM_SHAPE_SELFOVERLAP>
729.157

> <PUBCHEM_SHAPE_VOLUME>
197.5

> <PUBCHEM_COORDINATE_TYPE>
2
5
10

$$$$
