11546457
  -OEChem-10062122003D

 51 54  0     1  0  0  0  0  0999 V2000
    6.0526   -0.9768    2.3201 Cl  0  0  0  0  0  0  0  0  0  0  0  0
    7.0173   -2.4464   -0.0671 F   0  0  0  0  0  0  0  0  0  0  0  0
   -5.6976   -0.9700    0.9610 O   0  0  0  0  0  0  0  0  0  0  0  0
   -3.7316    2.2125    0.1998 O   0  0  0  0  0  0  0  0  0  0  0  0
   -3.1818   -1.2035    0.1134 N   0  0  1  0  0  0  0  0  0  0  0  0
   -6.4868   -2.3066   -0.7375 N   0  0  0  0  0  0  0  0  0  0  0  0
    0.7396    3.7543    0.7379 N   0  0  0  0  0  0  0  0  0  0  0  0
    2.2602    0.2700   -0.8985 N   0  0  0  0  0  0  0  0  0  0  0  0
    2.6068    2.3937    0.0529 N   0  0  0  0  0  0  0  0  0  0  0  0
   -4.1239   -2.2507   -0.2952 C   0  0  1  0  0  0  0  0  0  0  0  0
   -3.7486   -3.4855    0.5244 C   0  0  0  0  0  0  0  0  0  0  0  0
   -1.9841   -1.8879    0.6010 C   0  0  0  0  0  0  0  0  0  0  0  0
   -2.5795   -3.0379    1.3895 C   0  0  0  0  0  0  0  0  0  0  0  0
   -2.8794   -0.2577   -0.9526 C   0  0  0  0  0  0  0  0  0  0  0  0
   -5.4957   -1.7658    0.0471 C   0  0  0  0  0  0  0  0  0  0  0  0
   -1.9244    0.8098   -0.5024 C   0  0  0  0  0  0  0  0  0  0  0  0
   -2.3956    1.9901    0.0503 C   0  0  0  0  0  0  0  0  0  0  0  0
   -0.5605    0.6022   -0.6460 C   0  0  0  0  0  0  0  0  0  0  0  0
    0.3426    1.5951   -0.2278 C   0  0  0  0  0  0  0  0  0  0  0  0
   -1.4910    2.9727    0.4637 C   0  0  0  0  0  0  0  0  0  0  0  0
   -0.1153    2.7978    0.3347 C   0  0  0  0  0  0  0  0  0  0  0  0
    1.7233    1.4571   -0.3405 C   0  0  0  0  0  0  0  0  0  0  0  0
   -4.4087    2.8430   -0.8855 C   0  0  0  0  0  0  0  0  0  0  0  0
    2.0540    3.5002    0.5756 C   0  0  0  0  0  0  0  0  0  0  0  0
    3.4655   -0.4165   -0.6837 C   0  0  0  0  0  0  0  0  0  0  0  0
    4.0927   -0.3652    0.5649 C   0  0  0  0  0  0  0  0  0  0  0  0
    4.0475   -1.1568   -1.7172 C   0  0  0  0  0  0  0  0  0  0  0  0
    5.2904   -1.0477    0.7782 C   0  0  0  0  0  0  0  0  0  0  0  0
    5.2454   -1.8390   -1.5041 C   0  0  0  0  0  0  0  0  0  0  0  0
    5.8668   -1.7847   -0.2565 C   0  0  0  0  0  0  0  0  0  0  0  0
   -4.0496   -2.4844   -1.3650 H   0  0  0  0  0  0  0  0  0  0  0  0
   -3.4146   -4.2849   -0.1483 H   0  0  0  0  0  0  0  0  0  0  0  0
   -4.5642   -3.8813    1.1387 H   0  0  0  0  0  0  0  0  0  0  0  0
   -1.3686   -1.2665    1.2583 H   0  0  0  0  0  0  0  0  0  0  0  0
   -1.3684   -2.2844   -0.2164 H   0  0  0  0  0  0  0  0  0  0  0  0
   -2.9463   -2.6879    2.3625 H   0  0  0  0  0  0  0  0  0  0  0  0
   -1.8614   -3.8443    1.5648 H   0  0  0  0  0  0  0  0  0  0  0  0
   -3.8067    0.1932   -1.3221 H   0  0  0  0  0  0  0  0  0  0  0  0
   -2.4546   -0.7734   -1.8261 H   0  0  0  0  0  0  0  0  0  0  0  0
   -0.2116   -0.3269   -1.0875 H   0  0  0  0  0  0  0  0  0  0  0  0
   -7.4595   -2.0557   -0.5951 H   0  0  0  0  0  0  0  0  0  0  0  0
   -6.2926   -2.9723   -1.4786 H   0  0  0  0  0  0  0  0  0  0  0  0
   -1.8737    3.8955    0.8973 H   0  0  0  0  0  0  0  0  0  0  0  0
    1.7795   -0.0199   -1.7458 H   0  0  0  0  0  0  0  0  0  0  0  0
   -4.0961    2.4383   -1.8535 H   0  0  0  0  0  0  0  0  0  0  0  0
   -4.2184    3.9205   -0.8599 H   0  0  0  0  0  0  0  0  0  0  0  0
   -5.4822    2.6743   -0.7644 H   0  0  0  0  0  0  0  0  0  0  0  0
    2.7373    4.2743    0.9027 H   0  0  0  0  0  0  0  0  0  0  0  0
    3.6451    0.1950    1.3829 H   0  0  0  0  0  0  0  0  0  0  0  0
    3.5751   -1.2081   -2.6952 H   0  0  0  0  0  0  0  0  0  0  0  0
    5.6944   -2.4128   -2.3094 H   0  0  0  0  0  0  0  0  0  0  0  0
  1 28  1  0  0  0  0
  2 30  1  0  0  0  0
  3 15  2  0  0  0  0
  4 17  1  0  0  0  0
  4 23  1  0  0  0  0
  5 10  1  0  0  0  0
  5 12  1  0  0  0  0
  5 14  1  0  0  0  0
  6 15  1  0  0  0  0
  6 41  1  0  0  0  0
  6 42  1  0  0  0  0
  7 21  1  0  0  0  0
  7 24  2  0  0  0  0
  8 22  1  0  0  0  0
  8 25  1  0  0  0  0
  8 44  1  0  0  0  0
  9 22  2  0  0  0  0
  9 24  1  0  0  0  0
 10 11  1  0  0  0  0
 10 15  1  0  0  0  0
 10 31  1  0  0  0  0
 11 13  1  0  0  0  0
 11 32  1  0  0  0  0
 11 33  1  0  0  0  0
 12 13  1  0  0  0  0
 12 34  1  0  0  0  0
 12 35  1  0  0  0  0
 13 36  1  0  0  0  0
 13 37  1  0  0  0  0
 14 16  1  0  0  0  0
 14 38  1  0  0  0  0
 14 39  1  0  0  0  0
 16 17  1  0  0  0  0
 16 18  2  0  0  0  0
 17 20  2  0  0  0  0
 18 19  1  0  0  0  0
 18 40  1  0  0  0  0
 19 21  2  0  0  0  0
 19 22  1  0  0  0  0
 20 21  1  0  0  0  0
 20 43  1  0  0  0  0
 23 45  1  0  0  0  0
 23 46  1  0  0  0  0
 23 47  1  0  0  0  0
 24 48  1  0  0  0  0
 25 26  2  0  0  0  0
 25 27  1  0  0  0  0
 26 28  1  0  0  0  0
 26 49  1  0  0  0  0
 27 29  2  0  0  0  0
 27 50  1  0  0  0  0
 28 30  2  0  0  0  0
 29 30  1  0  0  0  0
 29 51  1  0  0  0  0
M  END
> <PUBCHEM_COMPOUND_CID>
11546457

> <PUBCHEM_CONFORMER_RMSD>
0.8

> <PUBCHEM_CONFORMER_DIVERSEORDER>
1
279
198
267
287
147
228
63
135
195
159
237
281
108
144
30
93
236
174
207
145
322
190
336
72
61
248
296
254
308
337
97
106
292
158
90
329
328
105
239
235
173
121
242
69
118
201
223
132
128
334
73
238
70
224
304
124
80
310
261
220
119
307
301
88
291
251
189
95
311
94
313
265
11
302
82
131
197
234
58
284
240
24
249
288
84
289
231
103
271
137
55
165
270
102
290
257
203
64
187
305
143
98
245
96
332
256
182
209
28
59
177
205
51
79
219
44
258
120
331
210
151
160
117
126
175
156
321
5
221
202
244
278
191
193
164
214
277
316
74
327
167
26
41
188
295
78
29
314
312
333
129
81
21
185
123
297
233
134
222
283
48
230
276
253
146
10
212
57
139
183
326
46
268
136
318
338
298
56
125
266
89
36
330
194
196
8
247
225
229
16
206
335
27
113
303
157
112
286
217
38
53
77
40
122
170
274
127
50
42
282
162
211
184
317
142
264
275
186
49
325
76
232
133
34
110
22
259
300
12
200
83
152
181
15
155
172
215
178
115
138
37
255
179
216
320
114
43
17
20
227
71
54
208
18
62
33
213
85
246
323
19
92
163
52
309
218
2
7
243
262
47
87
111
45
107
23
306
3
273
99
141
269
285
39
6
130
241
315
171
150
204
13
14
86
67
148
252
154
324
161
31
169
149
176
250
272
35
100
180
75
263
140
299
294
65
166
4
91
192
109
9
260
66
104
199
68
32
226
319
60
280
293
116
153
25
168
101

> <PUBCHEM_MMFF94_PARTIAL_CHARGES>
36
1 -0.18
10 0.33
12 0.27
14 0.41
15 0.57
16 -0.14
17 0.08
18 -0.15
2 -0.19
20 -0.15
21 0.31
22 0.41
23 0.28
24 0.47
25 0.1
26 -0.15
27 -0.15
28 0.18
29 -0.15
3 -0.57
30 0.19
4 -0.36
40 0.15
41 0.37
42 0.37
43 0.15
44 0.4
48 0.15
49 0.15
5 -0.81
50 0.15
51 0.15
6 -0.8
7 -0.62
8 -0.6
9 -0.62

> <PUBCHEM_EFFECTIVE_ROTOR_COUNT>
7

> <PUBCHEM_PHARMACOPHORE_FEATURES>
11
1 3 acceptor
1 4 acceptor
1 5 cation
1 6 donor
1 8 donor
3 7 9 24 cation
3 8 9 22 cation
5 5 10 11 12 13 rings
6 16 17 18 19 20 21 rings
6 25 26 27 28 29 30 rings
6 7 9 19 21 22 24 rings

> <PUBCHEM_HEAVY_ATOM_COUNT>
30

> <PUBCHEM_ATOM_DEF_STEREO_COUNT>
1

> <PUBCHEM_ATOM_UDEF_STEREO_COUNT>
0

> <PUBCHEM_BOND_DEF_STEREO_COUNT>
0

> <PUBCHEM_BOND_UDEF_STEREO_COUNT>
0

> <PUBCHEM_ISOTOPIC_ATOM_COUNT>
0

> <PUBCHEM_COMPONENT_COUNT>
1

> <PUBCHEM_CACTVS_TAUTO_COUNT>
6

> <PUBCHEM_CONFORMER_ID>
00B02F5900000001

> <PUBCHEM_MMFF94_ENERGY>
104.9394

> <PUBCHEM_FEATURE_SELFOVERLAP>
55.994

> <PUBCHEM_SHAPE_FINGERPRINT>
10050765 1 18410856589795199501
10622 236 17460300067769341370
1100329 8 18339083692238710873
11135609 12 18411412951384463296
11828532 37 18043816600762871107
11963148 33 17979067512027484254
12107183 9 18200611237012890817
12760667 363 18410294726895278287
13140716 1 18343304755721348496
13533116 47 18268431415957888385
13540713 4 18339344349572585549
13782708 43 17606965268466244467
140371 6 18128265480297147156
14725015 67 18410007754334171779
14866123 147 18410582752044865915
15042514 8 18411985719759671517
15351339 4 18115018593975152235
15927050 60 18051130294796725703
17138139 8 17894911832957029442
17492 89 18339922722373076541
17627616 140 17899694562034453355
17686467 74 18411411797229912672
17980427 23 12535335814038566210
19315092 285 16126383796311215063
19611394 137 18412818106782164154
20403669 9 18410860983625474926
20567600 70 18336822078777558520
21033648 29 17560785607746604922
21279426 13 18336256925780240661
21703447 108 18266451182304736904
22889206 1 17270306940279203928
23559900 14 18263641934680613893
23572383 38 18272083851772532966
3004659 81 18113340829862919558
3383291 50 18339924818986978259
3421961 26 18270121364892190016
3882209 13 17408489168202407486
4073 2 18269554954081422890
50009960 94 17901923542718907394
5104073 3 18273213105822487392
513202 73 18114475526289896529
5486654 36 18335994098633878129
613672 6 18342444916585471630
9709674 26 18339079414424611389

> <PUBCHEM_SHAPE_MULTIPOLES>
575.34
15.18
4.83
1.33
9.05
2.12
0.19
-15.24
0.62
-3.56
0.99
1.71
-0.6
1.2

> <PUBCHEM_SHAPE_SELFOVERLAP>
1248.998

> <PUBCHEM_SHAPE_VOLUME>
316.3

> <PUBCHEM_COORDINATE_TYPE>
2
5
10

$$$$
