49830523
  -OEChem-10052115183D

 41 43  0     0  0  0  0  0  0999 V2000
    6.5222    0.3420    2.1501 O   0  0  0  0  0  0  0  0  0  0  0  0
   -5.9614    0.7765    1.6628 O   0  0  0  0  0  0  0  0  0  0  0  0
   -4.2220   -0.6032    2.1500 O   0  0  0  0  0  0  0  0  0  0  0  0
    2.0056   -1.2011   -0.3011 N   0  0  0  0  0  0  0  0  0  0  0  0
   -2.7068   -1.0055   -0.1446 N   0  0  0  0  0  0  0  0  0  0  0  0
   -0.3361   -1.0801   -0.2181 N   0  0  0  0  0  0  0  0  0  0  0  0
    0.7798   -3.1683   -0.6672 N   0  0  0  0  0  0  0  0  0  0  0  0
    2.1360    0.1948   -0.0229 C   0  0  0  0  0  0  0  0  0  0  0  0
    3.5846    0.5977   -0.0151 C   0  0  0  0  0  0  0  0  0  0  0  0
   -3.0524    0.3412   -0.3959 C   0  0  0  0  0  0  0  0  0  0  0  0
   -1.5139   -1.7302   -0.3199 C   0  0  0  0  0  0  0  0  0  0  0  0
    4.3913    0.2798    1.0775 C   0  0  0  0  0  0  0  0  0  0  0  0
    0.7547   -1.8485   -0.4004 C   0  0  0  0  0  0  0  0  0  0  0  0
   -4.0170    0.9889    0.3758 C   0  0  0  0  0  0  0  0  0  0  0  0
    4.1219    1.2887   -1.1013 C   0  0  0  0  0  0  0  0  0  0  0  0
   -2.4140    1.0235   -1.4314 C   0  0  0  0  0  0  0  0  0  0  0  0
    5.7351    0.6529    1.0842 C   0  0  0  0  0  0  0  0  0  0  0  0
    5.4659    1.6618   -1.0945 C   0  0  0  0  0  0  0  0  0  0  0  0
   -4.3433    2.3191    0.1119 C   0  0  0  0  0  0  0  0  0  0  0  0
   -1.6242   -3.0791   -0.5895 C   0  0  0  0  0  0  0  0  0  0  0  0
    6.2725    1.3439   -0.0017 C   0  0  0  0  0  0  0  0  0  0  0  0
   -2.7402    2.3539   -1.6953 C   0  0  0  0  0  0  0  0  0  0  0  0
   -3.7049    3.0016   -0.9237 C   0  0  0  0  0  0  0  0  0  0  0  0
   -0.4323   -3.7545   -0.7553 C   0  0  0  0  0  0  0  0  0  0  0  0
   -4.7014    0.3042    1.4653 C   0  0  0  0  0  0  0  0  0  0  0  0
    1.5916    0.7875   -0.7691 H   0  0  0  0  0  0  0  0  0  0  0  0
    1.6956    0.4397    0.9523 H   0  0  0  0  0  0  0  0  0  0  0  0
    2.8240   -1.7831   -0.4407 H   0  0  0  0  0  0  0  0  0  0  0  0
   -3.4153   -1.5275    0.3629 H   0  0  0  0  0  0  0  0  0  0  0  0
    3.9777   -0.2588    1.9267 H   0  0  0  0  0  0  0  0  0  0  0  0
    3.5059    1.5411   -1.9602 H   0  0  0  0  0  0  0  0  0  0  0  0
   -1.6682    0.5388   -2.0558 H   0  0  0  0  0  0  0  0  0  0  0  0
    5.8846    2.1994   -1.9403 H   0  0  0  0  0  0  0  0  0  0  0  0
   -5.0802    2.8568    0.7028 H   0  0  0  0  0  0  0  0  0  0  0  0
   -2.5762   -3.5889   -0.6697 H   0  0  0  0  0  0  0  0  0  0  0  0
    7.3181    1.6401   -0.0090 H   0  0  0  0  0  0  0  0  0  0  0  0
   -2.2448    2.8848   -2.5029 H   0  0  0  0  0  0  0  0  0  0  0  0
   -3.9567    4.0382   -1.1279 H   0  0  0  0  0  0  0  0  0  0  0  0
   -0.4184   -4.8176   -0.9705 H   0  0  0  0  0  0  0  0  0  0  0  0
    7.4211    0.6754    1.9859 H   0  0  0  0  0  0  0  0  0  0  0  0
   -6.4149    0.3111    2.3977 H   0  0  0  0  0  0  0  0  0  0  0  0
  1 17  1  0  0  0  0
  1 40  1  0  0  0  0
  2 25  1  0  0  0  0
  2 41  1  0  0  0  0
  3 25  2  0  0  0  0
  4  8  1  0  0  0  0
  4 13  1  0  0  0  0
  4 28  1  0  0  0  0
  5 10  1  0  0  0  0
  5 11  1  0  0  0  0
  5 29  1  0  0  0  0
  6 11  2  0  0  0  0
  6 13  1  0  0  0  0
  7 13  2  0  0  0  0
  7 24  1  0  0  0  0
  8  9  1  0  0  0  0
  8 26  1  0  0  0  0
  8 27  1  0  0  0  0
  9 12  2  0  0  0  0
  9 15  1  0  0  0  0
 10 14  1  0  0  0  0
 10 16  2  0  0  0  0
 11 20  1  0  0  0  0
 12 17  1  0  0  0  0
 12 30  1  0  0  0  0
 14 19  2  0  0  0  0
 14 25  1  0  0  0  0
 15 18  2  0  0  0  0
 15 31  1  0  0  0  0
 16 22  1  0  0  0  0
 16 32  1  0  0  0  0
 17 21  2  0  0  0  0
 18 21  1  0  0  0  0
 18 33  1  0  0  0  0
 19 23  1  0  0  0  0
 19 34  1  0  0  0  0
 20 24  2  0  0  0  0
 20 35  1  0  0  0  0
 21 36  1  0  0  0  0
 22 23  2  0  0  0  0
 22 37  1  0  0  0  0
 23 38  1  0  0  0  0
 24 39  1  0  0  0  0
M  END
> <PUBCHEM_COMPOUND_CID>
49830523

> <PUBCHEM_CONFORMER_RMSD>
1

> <PUBCHEM_CONFORMER_DIVERSEORDER>
1
28
82
77
53
140
163
118
93
155
169
61
150
52
86
103
78
98
135
22
161
171
13
148
38
10
47
15
123
34
145
75
119
157
55
92
33
66
146
9
60
16
65
170
72
164
57
76
158
128
31
137
25
125
56
46
107
149
50
143
130
8
133
175
129
101
29
127
152
91
153
14
18
110
100
95
49
90
27
132
106
23
147
167
126
58
88
73
44
30
6
19
94
162
120
105
172
102
173
139
24
32
124
7
41
83
74
97
174
114
116
68
71
20
64
80
67
36
43
176
37
26
62
111
51
70
168
159
117
35
122
138
108
144
59
40
48
96
151
112
113
85
165
69
87
142
84
11
79
104
134
89
121
4
63
99
156
45
141
154
21
5
3
166
109
160
131
177
12
81
115
54
136
2
39
42
17

> <PUBCHEM_MMFF94_PARTIAL_CHARGES>
39
1 -0.53
10 0.1
11 0.41
12 -0.15
13 0.72
14 0.09
15 -0.15
16 -0.15
17 0.08
18 -0.15
19 -0.15
2 -0.65
20 -0.15
21 -0.15
22 -0.15
23 -0.15
24 0.16
25 0.63
28 0.4
29 0.4
3 -0.57
30 0.15
31 0.15
32 0.15
33 0.15
34 0.15
35 0.15
36 0.15
37 0.15
38 0.15
39 0.15
4 -0.87
40 0.45
41 0.5
5 -0.6
6 -0.62
7 -0.62
8 0.51
9 -0.14

> <PUBCHEM_EFFECTIVE_ROTOR_COUNT>
6

> <PUBCHEM_PHARMACOPHORE_FEATURES>
10
1 1 donor
1 2 acceptor
1 3 acceptor
1 4 donor
1 5 donor
3 2 3 25 anion
4 4 6 7 13 cation
6 10 14 16 19 22 23 rings
6 6 7 11 13 20 24 rings
6 9 12 15 17 18 21 rings

> <PUBCHEM_HEAVY_ATOM_COUNT>
25

> <PUBCHEM_ATOM_DEF_STEREO_COUNT>
0

> <PUBCHEM_ATOM_UDEF_STEREO_COUNT>
0

> <PUBCHEM_BOND_DEF_STEREO_COUNT>
0

> <PUBCHEM_BOND_UDEF_STEREO_COUNT>
0

> <PUBCHEM_ISOTOPIC_ATOM_COUNT>
0

> <PUBCHEM_COMPONENT_COUNT>
1

> <PUBCHEM_CACTVS_TAUTO_COUNT>
63

> <PUBCHEM_CONFORMER_ID>
02F85A7B00000001

> <PUBCHEM_MMFF94_ENERGY>
90.3013

> <PUBCHEM_FEATURE_SELFOVERLAP>
50.803

> <PUBCHEM_SHAPE_FINGERPRINT>
10 15 18187368744105153464
10074138 170 18190455150564710907
10165383 225 18272379676387746017
10319926 262 17604716542840963658
105312 117 18272083911859753494
12107183 9 18262783074887886602
12363563 72 8214137473609152355
12390115 104 18202013152286693667
12422481 6 18041828512172105870
12596602 18 16515404092488540576
12633257 1 18340208604155207132
12892183 10 17531246115063554419
12925494 130 17904769873612552093
12978246 48 18335422369915529476
13583140 156 16878207697931857382
14294032 229 18341615953611614151
14950920 106 16950560017147652440
15021287 119 17458892809113161236
15183329 4 14261360124031205688
15880784 105 14129061438863460788
17913733 40 18343024341601053507
18222031 100 11458427946760052344
18393751 57 18334583451607958523
19246450 95 17754703106709852984
21033648 29 18338803320815023956
21302155 148 18334577936490161668
23198884 109 15841556262650210585
23559900 14 17462867371748880335
3459 39 18271790333770587658
392239 28 17313965107344944041
469060 322 18336832008810947127
50009960 94 16955664071227360811
5104073 3 18043534915247496617
5252454 2 18272649039150792139
5385378 56 18271251521465349898
59755656 520 17917999377378357126
7226269 152 17988637511127861448
7399639 24 18263374599110943707
7808743 9 18410575127939793166
9862522 239 18336255795259778095
9981440 41 18336541638508560955

> <PUBCHEM_SHAPE_MULTIPOLES>
476.96
14.94
3.63
1.59
16.34
2.81
-0.62
-11.61
-6.9
-2.88
1.84
-0.45
-0.43
0.27

> <PUBCHEM_SHAPE_SELFOVERLAP>
1035.867

> <PUBCHEM_SHAPE_VOLUME>
256.1

> <PUBCHEM_COORDINATE_TYPE>
2
5
10

$$$$
