49830287
  -OEChem-10052115193D

 43 46  0     0  0  0  0  0  0999 V2000
    1.2622    0.9320   -0.2391 O   0  0  0  0  0  0  0  0  0  0  0  0
    6.1106    2.1017    0.5813 O   0  0  0  0  0  0  0  0  0  0  0  0
   -4.0507   -2.5968    0.3079 N   0  0  0  0  0  0  0  0  0  0  0  0
   -1.8024   -3.4611    0.2731 N   0  0  0  0  0  0  0  0  0  0  0  0
    1.2536   -1.4116   -0.0431 N   0  0  0  0  0  0  0  0  0  0  0  0
   -2.4130   -1.0921    0.1058 C   0  0  0  0  0  0  0  0  0  0  0  0
   -3.6613   -0.4151    0.1088 C   0  0  0  0  0  0  0  0  0  0  0  0
   -2.6907   -2.4501    0.2315 C   0  0  0  0  0  0  0  0  0  0  0  0
   -3.9503    0.9863    0.0063 C   0  0  0  0  0  0  0  0  0  0  0  0
   -1.0638   -0.7145    0.0104 C   0  0  0  0  0  0  0  0  0  0  0  0
   -4.6506   -1.3663    0.2344 C   0  0  0  0  0  0  0  0  0  0  0  0
   -0.1019   -1.7223    0.0482 C   0  0  0  0  0  0  0  0  0  0  0  0
   -0.5199   -3.0400    0.1773 C   0  0  0  0  0  0  0  0  0  0  0  0
   -4.7310    1.4614   -1.0473 C   0  0  0  0  0  0  0  0  0  0  0  0
   -3.4506    1.8737    0.9595 C   0  0  0  0  0  0  0  0  0  0  0  0
    1.8431   -0.1463   -0.1771 C   0  0  0  0  0  0  0  0  0  0  0  0
    3.3289   -0.1357   -0.2202 C   0  0  0  0  0  0  0  0  0  0  0  0
   -5.0123    2.8241   -1.1479 C   0  0  0  0  0  0  0  0  0  0  0  0
   -3.7318    3.2362    0.8590 C   0  0  0  0  0  0  0  0  0  0  0  0
   -4.5126    3.7114   -0.1948 C   0  0  0  0  0  0  0  0  0  0  0  0
    4.0311    0.9915    0.2063 C   0  0  0  0  0  0  0  0  0  0  0  0
    4.0211   -1.2530   -0.6877 C   0  0  0  0  0  0  0  0  0  0  0  0
    5.4252    1.0016    0.1655 C   0  0  0  0  0  0  0  0  0  0  0  0
    5.4153   -1.2429   -0.7284 C   0  0  0  0  0  0  0  0  0  0  0  0
    6.1173   -0.1155   -0.3019 C   0  0  0  0  0  0  0  0  0  0  0  0
    7.5346    2.0436    0.5120 C   0  0  0  0  0  0  0  0  0  0  0  0
   -0.8470    0.3378   -0.0894 H   0  0  0  0  0  0  0  0  0  0  0  0
   -5.7285   -1.2858    0.2806 H   0  0  0  0  0  0  0  0  0  0  0  0
   -4.5364   -3.4777    0.4042 H   0  0  0  0  0  0  0  0  0  0  0  0
    0.2074   -3.8483    0.2094 H   0  0  0  0  0  0  0  0  0  0  0  0
   -5.1263    0.7874   -1.8038 H   0  0  0  0  0  0  0  0  0  0  0  0
   -2.8431    1.5222    1.7901 H   0  0  0  0  0  0  0  0  0  0  0  0
    1.8648   -2.2188    0.0413 H   0  0  0  0  0  0  0  0  0  0  0  0
   -5.6193    3.1943   -1.9689 H   0  0  0  0  0  0  0  0  0  0  0  0
   -3.3435    3.9272    1.6014 H   0  0  0  0  0  0  0  0  0  0  0  0
   -4.7314    4.7723   -0.2731 H   0  0  0  0  0  0  0  0  0  0  0  0
    3.5057    1.8680    0.5779 H   0  0  0  0  0  0  0  0  0  0  0  0
    3.5176   -2.1375   -1.0656 H   0  0  0  0  0  0  0  0  0  0  0  0
    5.9537   -2.1098   -1.1006 H   0  0  0  0  0  0  0  0  0  0  0  0
    7.1986   -0.1747   -0.3625 H   0  0  0  0  0  0  0  0  0  0  0  0
    7.9381    1.2648    1.1680 H   0  0  0  0  0  0  0  0  0  0  0  0
    7.8833    1.9382   -0.5210 H   0  0  0  0  0  0  0  0  0  0  0  0
    7.9155    3.0013    0.8815 H   0  0  0  0  0  0  0  0  0  0  0  0
  1 16  2  0  0  0  0
  2 23  1  0  0  0  0
  2 26  1  0  0  0  0
  3  8  1  0  0  0  0
  3 11  1  0  0  0  0
  3 29  1  0  0  0  0
  4  8  1  0  0  0  0
  4 13  2  0  0  0  0
  5 12  1  0  0  0  0
  5 16  1  0  0  0  0
  5 33  1  0  0  0  0
  6  7  1  0  0  0  0
  6  8  2  0  0  0  0
  6 10  1  0  0  0  0
  7  9  1  0  0  0  0
  7 11  2  0  0  0  0
  9 14  2  0  0  0  0
  9 15  1  0  0  0  0
 10 12  2  0  0  0  0
 10 27  1  0  0  0  0
 11 28  1  0  0  0  0
 12 13  1  0  0  0  0
 13 30  1  0  0  0  0
 14 18  1  0  0  0  0
 14 31  1  0  0  0  0
 15 19  2  0  0  0  0
 15 32  1  0  0  0  0
 16 17  1  0  0  0  0
 17 21  2  0  0  0  0
 17 22  1  0  0  0  0
 18 20  2  0  0  0  0
 18 34  1  0  0  0  0
 19 20  1  0  0  0  0
 19 35  1  0  0  0  0
 20 36  1  0  0  0  0
 21 23  1  0  0  0  0
 21 37  1  0  0  0  0
 22 24  2  0  0  0  0
 22 38  1  0  0  0  0
 23 25  2  0  0  0  0
 24 25  1  0  0  0  0
 24 39  1  0  0  0  0
 25 40  1  0  0  0  0
 26 41  1  0  0  0  0
 26 42  1  0  0  0  0
 26 43  1  0  0  0  0
M  END
> <PUBCHEM_COMPOUND_CID>
49830287

> <PUBCHEM_CONFORMER_RMSD>
0.8

> <PUBCHEM_CONFORMER_DIVERSEORDER>
1
13
19
4
23
12
21
25
15
8
24
17
6
22
3
14
2
7
20
16
11
10
18
5
9

> <PUBCHEM_MMFF94_PARTIAL_CHARGES>
39
1 -0.57
10 -0.15
11 -0.3
12 0.12
13 0.16
14 -0.15
15 -0.15
16 0.54
17 0.09
18 -0.15
19 -0.15
2 -0.36
20 -0.15
21 -0.15
22 -0.15
23 0.08
24 -0.15
25 -0.15
26 0.28
27 0.15
28 0.15
29 0.27
3 0.03
30 0.15
31 0.15
32 0.15
33 0.37
34 0.15
35 0.15
36 0.15
37 0.15
38 0.15
39 0.15
4 -0.57
40 0.15
5 -0.55
7 -0.05
8 0.11
9 0.05

> <PUBCHEM_EFFECTIVE_ROTOR_COUNT>
5

> <PUBCHEM_PHARMACOPHORE_FEATURES>
10
1 1 acceptor
1 2 acceptor
1 3 cation
1 3 donor
1 4 acceptor
1 5 donor
5 3 6 7 8 11 rings
6 17 21 22 23 24 25 rings
6 4 6 8 10 12 13 rings
6 9 14 15 18 19 20 rings

> <PUBCHEM_HEAVY_ATOM_COUNT>
26

> <PUBCHEM_ATOM_DEF_STEREO_COUNT>
0

> <PUBCHEM_ATOM_UDEF_STEREO_COUNT>
0

> <PUBCHEM_BOND_DEF_STEREO_COUNT>
0

> <PUBCHEM_BOND_UDEF_STEREO_COUNT>
0

> <PUBCHEM_ISOTOPIC_ATOM_COUNT>
0

> <PUBCHEM_COMPONENT_COUNT>
1

> <PUBCHEM_CACTVS_TAUTO_COUNT>
4

> <PUBCHEM_CONFORMER_ID>
02F8598F00000001

> <PUBCHEM_MMFF94_ENERGY>
84.5957

> <PUBCHEM_FEATURE_SELFOVERLAP>
50.86

> <PUBCHEM_SHAPE_FINGERPRINT>
10050765 1 18265333915841886771
100830 39 18410574007148962432
10087517 78 18336261344658392980
10411042 1 17833270101490139771
10835480 77 18342172272309843652
11135609 187 18192141613320099485
11135609 201 18341900637261282673
12107183 9 18118112572867545178
12390115 104 18337964389453927575
12422481 6 17096372739243790694
12788726 201 18260540178425796963
13073987 5 18334012809188846290
13911987 19 16702307883581324766
14251764 75 17910401593787211025
14347329 18 18340761555261064480
14466204 15 18408601474566656184
14508225 48 17838886385546984183
14598715 104 18058997502410356184
14790565 3 18193840327632662291
14931854 50 18127960928851467429
14950920 106 14490776545308315749
15021287 119 16950567692428297068
15119646 57 16845024407505725585
15183329 4 18340771442771501986
15289351 153 17632857530871612136
15513586 35 17025181732341919661
155225 5 18412263896027997336
15980000 95 16824179607714837755
17349148 13 13183020726656392974
17844677 252 18337963380220827078
18608769 82 18411703193227558371
20058555 10 18339642347573326856
20691028 202 18268999691466081241
21033648 144 17773591818288938722
21033648 29 18200864158482658088
21236236 1 18411419514125587637
21279426 13 18270407088119142406
23559900 14 18127980702643722622
23569914 152 17053886386624814460
23569914 2 17625772289836063224
283562 15 18408039637622265899
2838139 119 18268145362229646333
32027 91 17985279473815626758
3418910 222 17607825085873012444
350125 39 18410016542174246073
4073 2 18188213225661300770
4144715 1 18335993042747520194
437795 96 17985252213399599888
44249763 50 17631435934459407530
445580 37 18338247067512319124
474 4 17832983850772383769
5104073 3 18114461184861462402
5283173 99 18412546518108122304
5372103 7 17242710028447772173
6327066 14 18261667057431903181
6328613 192 18261685817970066212
7288768 16 17896327918065439459
7808743 9 18409164377359774865
9981440 41 18261680285920528091

> <PUBCHEM_SHAPE_MULTIPOLES>
508.39
16.9
4.22
0.85
25.18
0.52
-0.07
13
-0.48
-5.75
0.43
-0.4
0.35
1.67

> <PUBCHEM_SHAPE_SELFOVERLAP>
1134.314

> <PUBCHEM_SHAPE_VOLUME>
268.8

> <PUBCHEM_COORDINATE_TYPE>
2
5
10

$$$$
