2765796
  -OEChem-10052115193D

 21 22  0     0  0  0  0  0  0999 V2000
    2.3819   -1.6283    0.0191 O   0  0  0  0  0  0  0  0  0  0  0  0
   -1.8209    0.0581   -0.0146 N   0  0  0  0  0  0  0  0  0  0  0  0
   -1.9574   -1.2803    0.0672 N   0  0  0  0  0  0  0  0  0  0  0  0
   -0.0278    1.8568   -0.1421 C   0  0  0  0  0  0  0  0  0  0  0  0
    1.4219    1.8894    0.3762 C   0  0  0  0  0  0  0  0  0  0  0  0
   -0.5225    0.4634   -0.0593 C   0  0  0  0  0  0  0  0  0  0  0  0
    2.2936    0.7715   -0.2255 C   0  0  0  0  0  0  0  0  0  0  0  0
    0.2406   -0.6780   -0.0105 C   0  0  0  0  0  0  0  0  0  0  0  0
    1.6843   -0.6202   -0.0396 C   0  0  0  0  0  0  0  0  0  0  0  0
   -0.6941   -1.7235    0.0707 C   0  0  0  0  0  0  0  0  0  0  0  0
   -2.9996    0.8910   -0.0417 C   0  0  0  0  0  0  0  0  0  0  0  0
   -0.0569    2.1948   -1.1844 H   0  0  0  0  0  0  0  0  0  0  0  0
   -0.6439    2.5394    0.4525 H   0  0  0  0  0  0  0  0  0  0  0  0
    1.8686    2.8666    0.1615 H   0  0  0  0  0  0  0  0  0  0  0  0
    1.4114    1.7746    1.4685 H   0  0  0  0  0  0  0  0  0  0  0  0
    3.2792    0.7840    0.2523 H   0  0  0  0  0  0  0  0  0  0  0  0
    2.4296    0.9366   -1.3004 H   0  0  0  0  0  0  0  0  0  0  0  0
   -0.5164   -2.7877    0.1309 H   0  0  0  0  0  0  0  0  0  0  0  0
   -2.8338    1.7225   -0.7309 H   0  0  0  0  0  0  0  0  0  0  0  0
   -3.8522    0.2991   -0.3851 H   0  0  0  0  0  0  0  0  0  0  0  0
   -3.1776    1.2598    0.9713 H   0  0  0  0  0  0  0  0  0  0  0  0
  1  9  2  0  0  0  0
  2  3  1  0  0  0  0
  2  6  1  0  0  0  0
  2 11  1  0  0  0  0
  3 10  2  0  0  0  0
  4  5  1  0  0  0  0
  4  6  1  0  0  0  0
  4 12  1  0  0  0  0
  4 13  1  0  0  0  0
  5  7  1  0  0  0  0
  5 14  1  0  0  0  0
  5 15  1  0  0  0  0
  6  8  2  0  0  0  0
  7  9  1  0  0  0  0
  7 16  1  0  0  0  0
  7 17  1  0  0  0  0
  8  9  1  0  0  0  0
  8 10  1  0  0  0  0
 10 18  1  0  0  0  0
 11 19  1  0  0  0  0
 11 20  1  0  0  0  0
 11 21  1  0  0  0  0
M  END
> <PUBCHEM_COMPOUND_CID>
2765796

> <PUBCHEM_CONFORMER_RMSD>
0.4

> <PUBCHEM_CONFORMER_DIVERSEORDER>
1

> <PUBCHEM_MMFF94_PARTIAL_CHARGES>
11
1 -0.57
10 0.14
11 0.26
18 0.15
2 0.31
3 -0.71
4 0.18
6 -0.33
7 0.06
8 -0.09
9 0.6

> <PUBCHEM_EFFECTIVE_ROTOR_COUNT>
0.6

> <PUBCHEM_PHARMACOPHORE_FEATURES>
4
1 1 acceptor
1 3 acceptor
5 2 3 6 8 10 rings
6 4 5 6 7 8 9 rings

> <PUBCHEM_HEAVY_ATOM_COUNT>
11

> <PUBCHEM_ATOM_DEF_STEREO_COUNT>
0

> <PUBCHEM_ATOM_UDEF_STEREO_COUNT>
0

> <PUBCHEM_BOND_DEF_STEREO_COUNT>
0

> <PUBCHEM_BOND_UDEF_STEREO_COUNT>
0

> <PUBCHEM_ISOTOPIC_ATOM_COUNT>
0

> <PUBCHEM_COMPONENT_COUNT>
1

> <PUBCHEM_CACTVS_TAUTO_COUNT>
2

> <PUBCHEM_CONFORMER_ID>
002A33E400000001

> <PUBCHEM_MMFF94_ENERGY>
11.4121

> <PUBCHEM_FEATURE_SELFOVERLAP>
20.381

> <PUBCHEM_SHAPE_FINGERPRINT>
12524768 44 18413112740373065822
13380535 21 18264222441990706189
16945 1 18122062275825592751
18185500 45 18410857698048865566
193761 8 18266740375226635463
19973954 147 18338518663346453601
21040471 1 18337672043514096484
21501502 16 18337668727799175079
23402655 69 18341600500614825325
23552423 10 18262521527641134966
23559900 14 18270696376269482580
241688 4 18194403286366039480
2748010 2 18410294739299761983
5084963 1 18058161717983186547
528886 8 18411415115852314160
53812653 166 18341894146895817280
63268167 104 18412268319769595233
66348 1 18411420647844076788

> <PUBCHEM_SHAPE_MULTIPOLES>
210.54
3.47
2.11
0.61
0.97
0.09
0
0.19
0.05
-0.41
-0.09
-0.04
0.05
0.1

> <PUBCHEM_SHAPE_SELFOVERLAP>
448.855

> <PUBCHEM_SHAPE_VOLUME>
118.8

> <PUBCHEM_COORDINATE_TYPE>
2
5
10

$$$$
