12678237
  -OEChem-10052115183D

 48 51  0     1  0  0  0  0  0999 V2000
   -4.2274    4.7389    0.3397 Cl  0  0  0  0  0  0  0  0  0  0  0  0
    0.4639   -3.0331   -0.7093 O   0  0  0  0  0  0  0  0  0  0  0  0
   -1.6875   -1.3048   -2.1380 O   0  0  0  0  0  0  0  0  0  0  0  0
    3.9915   -3.1921   -0.4237 N   0  0  0  0  0  0  0  0  0  0  0  0
    0.0091    0.5533   -0.5796 C   0  0  2  0  0  0  0  0  0  0  0  0
   -0.4229   -0.8642   -0.1698 C   0  0  2  0  0  0  0  0  0  0  0  0
    1.3042    0.9398    0.1536 C   0  0  0  0  0  0  0  0  0  0  0  0
    2.3751   -0.1174    0.0357 C   0  0  0  0  0  0  0  0  0  0  0  0
   -1.0605    1.6110   -0.3468 C   0  0  0  0  0  0  0  0  0  0  0  0
    0.7035   -1.8599   -0.4179 C   0  0  0  0  0  0  0  0  0  0  0  0
    2.1225   -1.4124   -0.2403 C   0  0  0  0  0  0  0  0  0  0  0  0
   -1.6709   -1.2579   -0.9101 C   0  0  0  0  0  0  0  0  0  0  0  0
    3.7492    0.3870    0.2539 C   0  0  0  0  0  0  0  0  0  0  0  0
   -1.9231    1.4935    0.7384 C   0  0  0  0  0  0  0  0  0  0  0  0
   -1.1687    2.6878   -1.2216 C   0  0  0  0  0  0  0  0  0  0  0  0
   -2.8979   -1.5945   -0.1343 C   0  0  0  0  0  0  0  0  0  0  0  0
    4.4936    0.8542   -0.8254 C   0  0  0  0  0  0  0  0  0  0  0  0
    4.2886    0.3910    1.5370 C   0  0  0  0  0  0  0  0  0  0  0  0
   -2.9040    2.4623    0.9511 C   0  0  0  0  0  0  0  0  0  0  0  0
   -2.1494    3.6566   -1.0089 C   0  0  0  0  0  0  0  0  0  0  0  0
    3.1534   -2.3941   -0.3416 C   0  0  0  0  0  0  0  0  0  0  0  0
   -3.0171    3.5439    0.0776 C   0  0  0  0  0  0  0  0  0  0  0  0
   -2.7569   -2.1407    1.1221 C   0  0  0  0  0  0  0  0  0  0  0  0
   -4.1281   -1.3466   -0.7017 C   0  0  0  0  0  0  0  0  0  0  0  0
    5.7889    1.3293   -0.6199 C   0  0  0  0  0  0  0  0  0  0  0  0
    5.5838    0.8663    1.7425 C   0  0  0  0  0  0  0  0  0  0  0  0
    6.3339    1.3355    0.6640 C   0  0  0  0  0  0  0  0  0  0  0  0
   -3.9053   -2.4555    1.8485 C   0  0  0  0  0  0  0  0  0  0  0  0
   -5.2765   -1.6613    0.0248 C   0  0  0  0  0  0  0  0  0  0  0  0
   -5.1651   -2.2158    1.3000 C   0  0  0  0  0  0  0  0  0  0  0  0
    0.2262    0.5359   -1.6592 H   0  0  0  0  0  0  0  0  0  0  0  0
   -0.5643   -0.8855    0.9136 H   0  0  0  0  0  0  0  0  0  0  0  0
    1.1055    1.1204    1.2189 H   0  0  0  0  0  0  0  0  0  0  0  0
    1.6670    1.8907   -0.2600 H   0  0  0  0  0  0  0  0  0  0  0  0
   -1.8408    0.6977    1.4693 H   0  0  0  0  0  0  0  0  0  0  0  0
   -0.4975    2.7870   -2.0701 H   0  0  0  0  0  0  0  0  0  0  0  0
    4.0814    0.8561   -1.8314 H   0  0  0  0  0  0  0  0  0  0  0  0
    3.7154    0.0291    2.3868 H   0  0  0  0  0  0  0  0  0  0  0  0
   -3.5671    2.3668    1.8072 H   0  0  0  0  0  0  0  0  0  0  0  0
   -2.2256    4.4940   -1.6976 H   0  0  0  0  0  0  0  0  0  0  0  0
   -1.7982   -2.3845    1.5657 H   0  0  0  0  0  0  0  0  0  0  0  0
   -4.2286   -0.9098   -1.6907 H   0  0  0  0  0  0  0  0  0  0  0  0
    6.3729    1.6947   -1.4595 H   0  0  0  0  0  0  0  0  0  0  0  0
    6.0083    0.8713    2.7422 H   0  0  0  0  0  0  0  0  0  0  0  0
    7.3424    1.7055    0.8240 H   0  0  0  0  0  0  0  0  0  0  0  0
   -3.8192   -2.8967    2.8373 H   0  0  0  0  0  0  0  0  0  0  0  0
   -6.2576   -1.4735   -0.4017 H   0  0  0  0  0  0  0  0  0  0  0  0
   -6.0592   -2.4626    1.8648 H   0  0  0  0  0  0  0  0  0  0  0  0
  1 22  1  0  0  0  0
  2 10  2  0  0  0  0
  3 12  2  0  0  0  0
  4 21  3  0  0  0  0
  5  6  1  0  0  0  0
  5  7  1  0  0  0  0
  5  9  1  0  0  0  0
  5 31  1  0  0  0  0
  6 10  1  0  0  0  0
  6 12  1  0  0  0  0
  6 32  1  0  0  0  0
  7  8  1  0  0  0  0
  7 33  1  0  0  0  0
  7 34  1  0  0  0  0
  8 11  2  0  0  0  0
  8 13  1  0  0  0  0
  9 14  2  0  0  0  0
  9 15  1  0  0  0  0
 10 11  1  0  0  0  0
 11 21  1  0  0  0  0
 12 16  1  0  0  0  0
 13 17  2  0  0  0  0
 13 18  1  0  0  0  0
 14 19  1  0  0  0  0
 14 35  1  0  0  0  0
 15 20  2  0  0  0  0
 15 36  1  0  0  0  0
 16 23  2  0  0  0  0
 16 24  1  0  0  0  0
 17 25  1  0  0  0  0
 17 37  1  0  0  0  0
 18 26  2  0  0  0  0
 18 38  1  0  0  0  0
 19 22  2  0  0  0  0
 19 39  1  0  0  0  0
 20 22  1  0  0  0  0
 20 40  1  0  0  0  0
 23 28  1  0  0  0  0
 23 41  1  0  0  0  0
 24 29  2  0  0  0  0
 24 42  1  0  0  0  0
 25 27  2  0  0  0  0
 25 43  1  0  0  0  0
 26 27  1  0  0  0  0
 26 44  1  0  0  0  0
 27 45  1  0  0  0  0
 28 30  2  0  0  0  0
 28 46  1  0  0  0  0
 29 30  1  0  0  0  0
 29 47  1  0  0  0  0
 30 48  1  0  0  0  0
M  END
> <PUBCHEM_COMPOUND_CID>
12678237

> <PUBCHEM_CONFORMER_RMSD>
0.8

> <PUBCHEM_CONFORMER_DIVERSEORDER>
1
12
32
29
5
4
21
19
42
14
31
30
20
41
13
34
6
17
44
43
33
18
39
35
2
36
28
38
37
25
7
26
27
22
11
24
3
16
10
15
23
40
9
8

> <PUBCHEM_MMFF94_PARTIAL_CHARGES>
44
1 -0.18
10 0.49
11 0.08
12 0.42
13 0.03
14 -0.15
15 -0.15
16 0.09
17 -0.15
18 -0.15
19 -0.15
2 -0.57
20 -0.15
21 0.49
22 0.18
23 -0.15
24 -0.15
25 -0.15
26 -0.15
27 -0.15
28 -0.15
29 -0.15
3 -0.57
30 -0.15
35 0.15
36 0.15
37 0.15
38 0.15
39 0.15
4 -0.56
40 0.15
41 0.15
42 0.15
43 0.15
44 0.15
45 0.15
46 0.15
47 0.15
48 0.15
5 0.14
6 0.12
7 0.14
8 -0.17
9 -0.14

> <PUBCHEM_EFFECTIVE_ROTOR_COUNT>
4.6

> <PUBCHEM_PHARMACOPHORE_FEATURES>
8
1 2 acceptor
1 3 acceptor
1 4 acceptor
1 6 anion
6 13 17 18 25 26 27 rings
6 16 23 24 28 29 30 rings
6 5 6 7 8 10 11 rings
6 9 14 15 19 20 22 rings

> <PUBCHEM_HEAVY_ATOM_COUNT>
30

> <PUBCHEM_ATOM_DEF_STEREO_COUNT>
0

> <PUBCHEM_ATOM_UDEF_STEREO_COUNT>
2

> <PUBCHEM_BOND_DEF_STEREO_COUNT>
0

> <PUBCHEM_BOND_UDEF_STEREO_COUNT>
0

> <PUBCHEM_ISOTOPIC_ATOM_COUNT>
0

> <PUBCHEM_COMPONENT_COUNT>
1

> <PUBCHEM_CACTVS_TAUTO_COUNT>
8

> <PUBCHEM_CONFORMER_ID>
00C1745D00000001

> <PUBCHEM_MMFF94_ENERGY>
90.0243

> <PUBCHEM_FEATURE_SELFOVERLAP>
40.598

> <PUBCHEM_SHAPE_FINGERPRINT>
10050765 1 18339081476304344998
10670039 82 18336560382352392076
1100329 8 17543628630659398419
11456790 92 17970082222302715307
11578080 2 18130234743896807121
12293681 4 18114751558862632787
12390115 104 18272658935145981568
12422481 6 18269578073694854937
12741549 16 17751063912147805973
12788726 201 18334570269883348193
12930653 34 18411136909551528574
13140716 1 17906726256926946962
13383665 225 18263103079346329492
13540713 4 18271529680880035574
13911987 19 18190454063863826822
14028597 1 17676200274019915081
140371 6 18189066437202651639
14068700 686 18411989065612879294
14178342 30 18334012757500993252
14790565 3 18267312112968500852
14840074 17 18128541646250616126
14955137 171 17976549630162188307
15131766 46 15121806210380794744
15338160 23 18411138047512809312
15775530 1 17627535756141268807
18393751 57 18052807337728622392
19301679 30 18334863826777876267
19427546 62 17833834872293228373
20642791 13 18409730639038910293
20739085 24 17977390752019785681
21033648 144 18192984929378010084
21049683 118 17976235969043700577
21236236 1 18411981360177760536
21641784 216 18261126204373096212
21703447 108 18337670793663770274
21796203 349 17467385599470586507
22182313 1 18272655619372869414
22311459 1 18340204223794687758
23558518 356 18261400996596568435
23559900 14 17912356534003448782
23569914 2 15193567803467115050
2747138 104 18263935504221881434
283562 15 18410284835384914511
3380486 145 18339363093173654367
350125 39 18341330097547182912
376196 1 17837486346145389989
392239 28 18189341332247559675
460360 51 18339354155209145538
469060 322 18337122257704198169
5104073 3 18337662024204630762
6004065 56 18121776390614535379
653340 110 18410576162884506225
7226269 152 18260259777037045507

> <PUBCHEM_SHAPE_MULTIPOLES>
602.54
12.48
4.93
1.41
12.35
3.9
0.22
0.8
4.1
-7.05
-0.09
-0.13
-0.24
1.33

> <PUBCHEM_SHAPE_SELFOVERLAP>
1322.447

> <PUBCHEM_SHAPE_VOLUME>
324.3

> <PUBCHEM_COORDINATE_TYPE>
2
5
10

$$$$
