135449326
  -OEChem-10062122003D

 48 51  0     1  0  0  0  0  0999 V2000
   -3.8928    3.2579    0.2438 Cl  0  0  0  0  0  0  0  0  0  0  0  0
    0.0964    3.2271    1.5202 Cl  0  0  0  0  0  0  0  0  0  0  0  0
   -5.9174    1.8249    1.8674 F   0  0  0  0  0  0  0  0  0  0  0  0
   -2.3894   -2.4464   -3.4847 O   0  0  0  0  0  0  0  0  0  0  0  0
   -1.4657   -3.1845    0.8043 O   0  0  0  0  0  0  0  0  0  0  0  0
   -1.3056   -1.5343   -0.8169 N   0  0  0  0  0  0  0  0  0  0  0  0
    1.2785   -2.8682    1.5003 N   0  0  0  0  0  0  0  0  0  0  0  0
    5.2688   -1.2639    0.5929 N   0  0  0  0  0  0  0  0  0  0  0  0
    6.2667   -0.4092    0.3099 N   0  0  0  0  0  0  0  0  0  0  0  0
   -2.6831   -1.5912   -1.2508 C   0  0  1  0  0  0  0  0  0  0  0  0
    2.7591   -1.4513    0.6445 C   0  0  0  0  0  0  0  0  0  0  0  0
   -3.5472   -0.6709   -0.4159 C   0  0  0  0  0  0  0  0  0  0  0  0
    0.6220   -2.1515    0.5341 C   0  0  0  0  0  0  0  0  0  0  0  0
    4.0238   -0.7375    0.4099 C   0  0  0  0  0  0  0  0  0  0  0  0
   -2.7903   -1.2949   -2.7491 C   0  0  0  0  0  0  0  0  0  0  0  0
    1.5196   -1.2626   -0.0150 C   0  0  0  0  0  0  0  0  0  0  0  0
   -0.7544   -2.3418    0.2011 C   0  0  0  0  0  0  0  0  0  0  0  0
    4.2210    0.5511   -0.0229 C   0  0  0  0  0  0  0  0  0  0  0  0
    2.5814   -2.4501    1.5763 C   0  0  0  0  0  0  0  0  0  0  0  0
    3.1794    1.4866   -0.3428 C   0  0  0  0  0  0  0  0  0  0  0  0
   -3.3472    0.7088   -0.4635 C   0  0  0  0  0  0  0  0  0  0  0  0
   -4.5445   -1.2034    0.4012 C   0  0  0  0  0  0  0  0  0  0  0  0
    5.6204    0.6977   -0.0656 C   0  0  0  0  0  0  0  0  0  0  0  0
   -4.1443    1.5560    0.3064 C   0  0  0  0  0  0  0  0  0  0  0  0
   -5.3414   -0.3562    1.1713 C   0  0  0  0  0  0  0  0  0  0  0  0
    2.2529    1.8591    0.6311 C   0  0  0  0  0  0  0  0  0  0  0  0
    3.0944    2.0226   -1.6277 C   0  0  0  0  0  0  0  0  0  0  0  0
   -5.1413    1.0235    1.1237 C   0  0  0  0  0  0  0  0  0  0  0  0
    1.2412    2.7678    0.3201 C   0  0  0  0  0  0  0  0  0  0  0  0
    2.0827    2.9311   -1.9388 C   0  0  0  0  0  0  0  0  0  0  0  0
    1.1562    3.3038   -0.9650 C   0  0  0  0  0  0  0  0  0  0  0  0
   -3.0173   -2.6251   -1.0915 H   0  0  0  0  0  0  0  0  0  0  0  0
   -0.7252   -0.8184   -1.2414 H   0  0  0  0  0  0  0  0  0  0  0  0
   -3.8265   -1.0775   -3.0313 H   0  0  0  0  0  0  0  0  0  0  0  0
   -2.1625   -0.4496   -3.0519 H   0  0  0  0  0  0  0  0  0  0  0  0
    1.3130   -0.5725   -0.8205 H   0  0  0  0  0  0  0  0  0  0  0  0
    3.2580   -2.9032    2.2882 H   0  0  0  0  0  0  0  0  0  0  0  0
    0.8671   -3.5941    2.0710 H   0  0  0  0  0  0  0  0  0  0  0  0
   -2.5678    1.1267   -1.0967 H   0  0  0  0  0  0  0  0  0  0  0  0
   -4.7126   -2.2759    0.4497 H   0  0  0  0  0  0  0  0  0  0  0  0
    5.5130   -2.1953    0.9063 H   0  0  0  0  0  0  0  0  0  0  0  0
    6.2006    1.5633   -0.3537 H   0  0  0  0  0  0  0  0  0  0  0  0
   -6.1179   -0.7704    1.8075 H   0  0  0  0  0  0  0  0  0  0  0  0
    2.3192    1.4553    1.6397 H   0  0  0  0  0  0  0  0  0  0  0  0
    3.8058    1.7419   -2.4008 H   0  0  0  0  0  0  0  0  0  0  0  0
   -2.4770   -2.2266   -4.4279 H   0  0  0  0  0  0  0  0  0  0  0  0
    2.0156    3.3476   -2.9397 H   0  0  0  0  0  0  0  0  0  0  0  0
    0.3725    4.0119   -1.2220 H   0  0  0  0  0  0  0  0  0  0  0  0
  1 24  1  0  0  0  0
  2 29  1  0  0  0  0
  3 28  1  0  0  0  0
  4 15  1  0  0  0  0
  4 46  1  0  0  0  0
  5 17  2  0  0  0  0
  6 10  1  0  0  0  0
  6 17  1  0  0  0  0
  6 33  1  0  0  0  0
  7 13  1  0  0  0  0
  7 19  1  0  0  0  0
  7 38  1  0  0  0  0
  8  9  1  0  0  0  0
  8 14  1  0  0  0  0
  8 41  1  0  0  0  0
  9 23  2  0  0  0  0
 10 12  1  0  0  0  0
 10 15  1  0  0  0  0
 10 32  1  0  0  0  0
 11 14  1  0  0  0  0
 11 16  1  0  0  0  0
 11 19  2  0  0  0  0
 12 21  2  0  0  0  0
 12 22  1  0  0  0  0
 13 16  2  0  0  0  0
 13 17  1  0  0  0  0
 14 18  2  0  0  0  0
 15 34  1  0  0  0  0
 15 35  1  0  0  0  0
 16 36  1  0  0  0  0
 18 20  1  0  0  0  0
 18 23  1  0  0  0  0
 19 37  1  0  0  0  0
 20 26  2  0  0  0  0
 20 27  1  0  0  0  0
 21 24  1  0  0  0  0
 21 39  1  0  0  0  0
 22 25  2  0  0  0  0
 22 40  1  0  0  0  0
 23 42  1  0  0  0  0
 24 28  2  0  0  0  0
 25 28  1  0  0  0  0
 25 43  1  0  0  0  0
 26 29  1  0  0  0  0
 26 44  1  0  0  0  0
 27 30  2  0  0  0  0
 27 45  1  0  0  0  0
 29 31  2  0  0  0  0
 30 31  1  0  0  0  0
 30 47  1  0  0  0  0
 31 48  1  0  0  0  0
M  END
> <PUBCHEM_COMPOUND_CID>
135449326

> <PUBCHEM_CONFORMER_RMSD>
1.2

> <PUBCHEM_CONFORMER_DIVERSEORDER>
1
33
136
22
92
138
27
134
139
37
106
126
95
31
141
113
10
45
122
2
19
98
50
46
104
132
143
140
57
70
93
4
110
34
3
77
90
23
129
144
86
142
48
130
131
24
44
63
68
9
15
75
137
119
39
76
21
52
20
14
58
101
120
84
7
118
73
114
127
26
103
59
85
29
128
135
96
38
5
116
74
124
123
89
55
49
25
28
109
47
66
54
60
36
112
69
65
8
91
80
133
71
40
117
42
35
102
41
12
111
100
79
125
145
94
6
32
43
53
62
51
87
61
83
64
16
78
88
56
30
108
18
17
115
72
105
67
82
11
97
107
13
81
121
99

> <PUBCHEM_MMFF94_PARTIAL_CHARGES>
44
1 -0.18
10 0.44
12 -0.14
13 -0.24
14 -0.15
15 0.28
16 -0.15
17 0.71
18 -0.05
19 -0.3
2 -0.18
20 0.05
21 -0.15
22 -0.15
23 0.14
24 0.18
25 -0.15
26 -0.15
27 -0.15
28 0.19
29 0.18
3 -0.19
30 -0.15
31 -0.15
33 0.37
36 0.15
37 0.15
38 0.27
39 0.15
4 -0.68
40 0.15
41 0.27
42 0.15
43 0.15
44 0.15
45 0.15
46 0.4
47 0.15
48 0.15
5 -0.57
6 -0.73
7 0.03
8 0.3
9 -0.71

> <PUBCHEM_EFFECTIVE_ROTOR_COUNT>
7

> <PUBCHEM_PHARMACOPHORE_FEATURES>
12
1 4 acceptor
1 4 donor
1 5 acceptor
1 6 donor
1 7 cation
1 7 donor
1 8 donor
1 9 acceptor
5 7 11 13 16 19 rings
5 8 9 14 18 23 rings
6 12 21 22 24 25 28 rings
6 20 26 27 29 30 31 rings

> <PUBCHEM_HEAVY_ATOM_COUNT>
31

> <PUBCHEM_ATOM_DEF_STEREO_COUNT>
1

> <PUBCHEM_ATOM_UDEF_STEREO_COUNT>
0

> <PUBCHEM_BOND_DEF_STEREO_COUNT>
0

> <PUBCHEM_BOND_UDEF_STEREO_COUNT>
0

> <PUBCHEM_ISOTOPIC_ATOM_COUNT>
0

> <PUBCHEM_COMPONENT_COUNT>
1

> <PUBCHEM_CACTVS_TAUTO_COUNT>
-1

> <PUBCHEM_CONFORMER_ID>
0812CAEE00000001

> <PUBCHEM_MMFF94_ENERGY>
58.2644

> <PUBCHEM_FEATURE_SELFOVERLAP>
60.899

> <PUBCHEM_SHAPE_FINGERPRINT>
105312 117 16845853477785244951
10906281 52 18262805202717325948
1100329 8 18335706078564754272
11059048 146 17683260405258678212
11513181 2 17486203414546101365
11578080 2 13407659817904614132
11828532 37 16701732874061440683
12422481 6 18199171898735079626
12788726 201 18130245808033956312
12978246 48 18408609153994860457
13782708 43 15357971210405849314
14279260 333 18191586355304809482
14294032 229 17489866017534375261
14394314 77 18412831286898481824
14790565 3 18335424564975750080
15081414 286 18260263049934208318
151778 21 17823986838246730484
15238133 3 18410304618009483508
15297060 5 17130717058990304529
15484559 13 16173667817090905548
17809404 112 14907632249520800093
18336668 15 18334856117242812672
20580484 21 15457907677613379032
20764821 26 17975136753388579825
21033648 29 17168963707995543423
21756936 100 18413103970134828075
22122407 14 18336268964499984425
338550 245 18335427862983398564
3388396 114 17409350111586763605
3680242 22 18186793657048751962
3737641 26 18189330165801802222
392239 28 18116732862153078171
463206 1 18411423946379382865

> <PUBCHEM_SHAPE_MULTIPOLES>
602.77
12.37
4.49
1.97
1.55
1.55
1.63
1.7
-2.97
0.13
-0.24
1.7
-0.55
-3.19

> <PUBCHEM_SHAPE_SELFOVERLAP>
1308.571

> <PUBCHEM_SHAPE_VOLUME>
332.6

> <PUBCHEM_COORDINATE_TYPE>
2
5
10

$$$$
