44406018
  -OEChem-10062121593D

 41 44  0     0  0  0  0  0  0999 V2000
    0.8811   -2.3119   -0.0109 S   0  0  0  0  0  0  0  0  0  0  0  0
    2.3084   -0.6426   -2.6232 O   0  0  0  0  0  0  0  0  0  0  0  0
    3.0638    0.4056   -0.6749 N   0  0  0  0  0  0  0  0  0  0  0  0
    5.2914    1.0915    0.9898 N   0  0  0  0  0  0  0  0  0  0  0  0
   -2.7397   -1.9355    0.9813 N   0  0  0  0  0  0  0  0  0  0  0  0
   -1.5895   -2.6868    0.9896 N   0  0  0  0  0  0  0  0  0  0  0  0
    4.3289    0.8364   -1.2656 C   0  0  0  0  0  0  0  0  0  0  0  0
    2.8442    0.8621    0.7020 C   0  0  0  0  0  0  0  0  0  0  0  0
    5.5075    0.5189   -0.3470 C   0  0  0  0  0  0  0  0  0  0  0  0
    4.0572    0.5579    1.5838 C   0  0  0  0  0  0  0  0  0  0  0  0
    2.1515   -0.3171   -1.4473 C   0  0  0  0  0  0  0  0  0  0  0  0
    6.4376    0.8196    1.8562 C   0  0  0  0  0  0  0  0  0  0  0  0
    0.8861   -0.7269   -0.8236 C   0  0  0  0  0  0  0  0  0  0  0  0
   -1.3267   -0.7185   -0.1039 C   0  0  0  0  0  0  0  0  0  0  0  0
   -0.3233   -0.0062   -0.7967 C   0  0  0  0  0  0  0  0  0  0  0  0
   -0.7799   -1.9119    0.3280 C   0  0  0  0  0  0  0  0  0  0  0  0
   -2.6131   -0.7163    0.3158 C   0  0  0  0  0  0  0  0  0  0  0  0
   -3.6881    0.2293    0.1850 C   0  0  0  0  0  0  0  0  0  0  0  0
   -3.4105    1.5939    0.1043 C   0  0  0  0  0  0  0  0  0  0  0  0
   -5.0086   -0.2176    0.1384 C   0  0  0  0  0  0  0  0  0  0  0  0
   -4.4533    2.5116   -0.0229 C   0  0  0  0  0  0  0  0  0  0  0  0
   -6.0514    0.7000    0.0111 C   0  0  0  0  0  0  0  0  0  0  0  0
   -5.7737    2.0647   -0.0694 C   0  0  0  0  0  0  0  0  0  0  0  0
    4.2544    1.9175   -1.4362 H   0  0  0  0  0  0  0  0  0  0  0  0
    4.4812    0.3621   -2.2406 H   0  0  0  0  0  0  0  0  0  0  0  0
    1.9514    0.4127    1.1417 H   0  0  0  0  0  0  0  0  0  0  0  0
    2.6709    1.9443    0.6536 H   0  0  0  0  0  0  0  0  0  0  0  0
    5.6418   -0.5692   -0.2841 H   0  0  0  0  0  0  0  0  0  0  0  0
    6.4169    0.9390   -0.7928 H   0  0  0  0  0  0  0  0  0  0  0  0
    3.8895    1.0097    2.5688 H   0  0  0  0  0  0  0  0  0  0  0  0
    4.1381   -0.5278    1.7286 H   0  0  0  0  0  0  0  0  0  0  0  0
    6.2948    1.2825    2.8389 H   0  0  0  0  0  0  0  0  0  0  0  0
    7.3502    1.2550    1.4341 H   0  0  0  0  0  0  0  0  0  0  0  0
    6.6029   -0.2542    2.0014 H   0  0  0  0  0  0  0  0  0  0  0  0
   -0.4407    0.9662   -1.2575 H   0  0  0  0  0  0  0  0  0  0  0  0
   -3.5559   -2.3096    1.4496 H   0  0  0  0  0  0  0  0  0  0  0  0
   -2.3927    1.9722    0.1492 H   0  0  0  0  0  0  0  0  0  0  0  0
   -5.2566   -1.2749    0.1883 H   0  0  0  0  0  0  0  0  0  0  0  0
   -4.2375    3.5743   -0.0832 H   0  0  0  0  0  0  0  0  0  0  0  0
   -7.0795    0.3522   -0.0277 H   0  0  0  0  0  0  0  0  0  0  0  0
   -6.5857    2.7791   -0.1684 H   0  0  0  0  0  0  0  0  0  0  0  0
  1 13  1  0  0  0  0
  1 16  1  0  0  0  0
  2 11  2  0  0  0  0
  3  7  1  0  0  0  0
  3  8  1  0  0  0  0
  3 11  1  0  0  0  0
  4  9  1  0  0  0  0
  4 10  1  0  0  0  0
  4 12  1  0  0  0  0
  5  6  1  0  0  0  0
  5 17  1  0  0  0  0
  5 36  1  0  0  0  0
  6 16  2  0  0  0  0
  7  9  1  0  0  0  0
  7 24  1  0  0  0  0
  7 25  1  0  0  0  0
  8 10  1  0  0  0  0
  8 26  1  0  0  0  0
  8 27  1  0  0  0  0
  9 28  1  0  0  0  0
  9 29  1  0  0  0  0
 10 30  1  0  0  0  0
 10 31  1  0  0  0  0
 11 13  1  0  0  0  0
 12 32  1  0  0  0  0
 12 33  1  0  0  0  0
 12 34  1  0  0  0  0
 13 15  2  0  0  0  0
 14 15  1  0  0  0  0
 14 16  1  0  0  0  0
 14 17  2  0  0  0  0
 15 35  1  0  0  0  0
 17 18  1  0  0  0  0
 18 19  2  0  0  0  0
 18 20  1  0  0  0  0
 19 21  1  0  0  0  0
 19 37  1  0  0  0  0
 20 22  2  0  0  0  0
 20 38  1  0  0  0  0
 21 23  2  0  0  0  0
 21 39  1  0  0  0  0
 22 23  1  0  0  0  0
 22 40  1  0  0  0  0
 23 41  1  0  0  0  0
M  END
> <PUBCHEM_COMPOUND_CID>
44406018

> <PUBCHEM_CONFORMER_RMSD>
0.8

> <PUBCHEM_CONFORMER_DIVERSEORDER>
1
11
9
10
7
8
3
6
5
12
13
4
2

> <PUBCHEM_MMFF94_PARTIAL_CHARGES>
30
1 -0.11
10 0.27
11 0.71
12 0.27
13 -0.05
14 -0.01
15 -0.15
16 0.39
17 -0.2
18 0.05
19 -0.15
2 -0.57
20 -0.15
21 -0.15
22 -0.15
23 -0.15
3 -0.66
35 0.15
36 0.27
37 0.15
38 0.15
39 0.15
4 -0.81
40 0.15
41 0.15
5 0.3
6 -0.73
7 0.3
8 0.3
9 0.27

> <PUBCHEM_EFFECTIVE_ROTOR_COUNT>
4.2

> <PUBCHEM_PHARMACOPHORE_FEATURES>
8
1 2 acceptor
1 4 cation
1 5 donor
1 6 acceptor
5 1 13 14 15 16 rings
5 5 6 14 16 17 rings
6 18 19 20 21 22 23 rings
6 3 4 7 8 9 10 rings

> <PUBCHEM_HEAVY_ATOM_COUNT>
23

> <PUBCHEM_ATOM_DEF_STEREO_COUNT>
0

> <PUBCHEM_ATOM_UDEF_STEREO_COUNT>
0

> <PUBCHEM_BOND_DEF_STEREO_COUNT>
0

> <PUBCHEM_BOND_UDEF_STEREO_COUNT>
0

> <PUBCHEM_ISOTOPIC_ATOM_COUNT>
0

> <PUBCHEM_COMPONENT_COUNT>
1

> <PUBCHEM_CACTVS_TAUTO_COUNT>
4

> <PUBCHEM_CONFORMER_ID>
02A5950200000001

> <PUBCHEM_MMFF94_ENERGY>
84.9683

> <PUBCHEM_FEATURE_SELFOVERLAP>
40.864

> <PUBCHEM_SHAPE_FINGERPRINT>
10042902 136 8646186144181008001
10319926 262 18408605885762040626
10692045 39 18189893124118740570
11069576 57 14188745008704615372
11128504 68 13902187088469834201
11646440 116 18201730560945599321
11725454 13 18059849567126815006
12107183 9 18114173113125831450
12236239 1 17167865300189945644
12403259 415 18272664445050711839
12422481 6 17313376765048859774
12596602 18 16805611412016490449
12633257 1 18113614612236640004
12969540 114 17418089910329593781
13103583 49 16732983150031772122
13402501 40 18202279208156979168
13533116 47 18269838627638576350
13685833 64 7997962492910177357
14123256 34 9151165489499654153
14178342 30 18114751528682121867
14251740 57 8429724190588051597
14251751 18 8430312450340532912
14251764 30 11819267837480130720
14341114 176 14707209920167271628
14466204 15 18335417967452484784
14681490 219 16271927095119678377
14739800 52 18341601573554549361
14767858 380 13398628368372767972
14951699 99 18264485277670117768
15003188 100 17346309444714428960
15238133 3 18334858333809810860
15463212 79 18201712956117473639
15537594 2 15863784011587728186
173720 79 17821731637335774595
1813 80 15719388396444124918
193927 3 9006764407110057797
19489759 90 18412262861082218747
20554085 129 18339069424525509281
20567600 254 18410847738135893717
21033648 29 18272657856591848756
212916 134 18408039619502893083
21304303 282 18129643326943203735
21403212 168 17822276960242305459
21452121 103 18337389335908340522
21475661 188 18201431519462840440
21968339 14 17060050394474724384
22149856 69 18045813151470904585
22765269 38 17418086642239387008
22849341 161 16370445549276958918
23016692 55 10159696893700217665
23559900 14 18339378365623347454
23622692 88 17095520690862855982
23929065 36 18194954361083508315
2838139 119 17917137351619699904
2916195 48 18272087188909432521
312425 54 17895743106834093992
3411729 13 18335415726007161754
341906 21 18408610278890890684
3459 39 18261380118829491277
34797466 226 17417815003022633973
495365 180 18201160949118145526
5104073 3 18115880599002037427
513202 73 15720217397792775128
5283156 175 12679471862955402652
5385378 56 18336267821305532355
58807428 26 17676486129209710995
653340 110 18045500811710250525
7808743 9 18261685873013447452
8509985 295 18260545615368518076
9981440 41 18260835882444159731

> <PUBCHEM_SHAPE_MULTIPOLES>
451.39
14.76
2.32
1.48
2.49
0.68
0.36
-10.72
-3.61
-2.34
-0.51
2.6
0.07
1.29

> <PUBCHEM_SHAPE_SELFOVERLAP>
974.981

> <PUBCHEM_SHAPE_VOLUME>
252

> <PUBCHEM_COORDINATE_TYPE>
2
5
10

$$$$
