22607455
  -OEChem-10052120433D

 52 56  0     1  0  0  0  0  0999 V2000
    2.3917    1.8436   -0.9871 O   0  0  0  0  0  0  0  0  0  0  0  0
    3.7780   -2.0859    1.6613 N   0  0  0  0  0  0  0  0  0  0  0  0
    5.0822    1.6654   -2.5067 N   0  0  0  0  0  0  0  0  0  0  0  0
    0.5977    3.3018    1.8305 N   0  0  0  0  0  0  0  0  0  0  0  0
   -6.4315   -1.1022   -0.9753 N   0  0  0  0  0  0  0  0  0  0  0  0
    4.0946   -0.3633   -1.5714 C   0  0  0  0  0  0  0  0  0  0  0  0
    4.6900    1.0211   -1.2481 C   0  0  2  0  0  0  0  0  0  0  0  0
    3.7105   -1.1523   -0.3514 C   0  0  0  0  0  0  0  0  0  0  0  0
    2.5035   -1.8808   -0.1583 C   0  0  0  0  0  0  0  0  0  0  0  0
    3.7289    1.9498   -0.4939 C   0  0  0  0  0  0  0  0  0  0  0  0
    2.5712   -2.4569    1.1121 C   0  0  0  0  0  0  0  0  0  0  0  0
    4.4734   -1.2974    0.7843 C   0  0  0  0  0  0  0  0  0  0  0  0
    1.3563   -2.1062   -0.9448 C   0  0  0  0  0  0  0  0  0  0  0  0
    1.5449   -3.2502    1.6374 C   0  0  0  0  0  0  0  0  0  0  0  0
    0.3218   -2.8976   -0.4324 C   0  0  0  0  0  0  0  0  0  0  0  0
    0.4169   -3.4598    0.8391 C   0  0  0  0  0  0  0  0  0  0  0  0
    1.3860    2.1037   -0.1157 C   0  0  0  0  0  0  0  0  0  0  0  0
   -0.8619    1.7636    0.6692 C   0  0  0  0  0  0  0  0  0  0  0  0
   -2.1584    1.1290    0.5661 C   0  0  0  0  0  0  0  0  0  0  0  0
    0.1504    1.4782   -0.2403 C   0  0  0  0  0  0  0  0  0  0  0  0
   -3.9061    0.1300   -0.7991 C   0  0  0  0  0  0  0  0  0  0  0  0
   -2.6495    0.7464   -0.6834 C   0  0  0  0  0  0  0  0  0  0  0  0
   -4.6679   -0.0987    0.3655 C   0  0  0  0  0  0  0  0  0  0  0  0
   -2.9140    0.9012    1.7140 C   0  0  0  0  0  0  0  0  0  0  0  0
    1.5574    2.9991    0.9277 C   0  0  0  0  0  0  0  0  0  0  0  0
   -4.1640    0.2901    1.6176 C   0  0  0  0  0  0  0  0  0  0  0  0
   -0.5900    2.6746    1.6773 C   0  0  0  0  0  0  0  0  0  0  0  0
   -4.4260   -0.2651   -2.0372 C   0  0  0  0  0  0  0  0  0  0  0  0
   -5.9121   -0.7137    0.2110 C   0  0  0  0  0  0  0  0  0  0  0  0
   -5.6743   -0.8676   -2.0681 C   0  0  0  0  0  0  0  0  0  0  0  0
    4.8340   -0.9570   -2.1266 H   0  0  0  0  0  0  0  0  0  0  0  0
    3.2302   -0.2564   -2.2387 H   0  0  0  0  0  0  0  0  0  0  0  0
    5.6042    0.9116   -0.6519 H   0  0  0  0  0  0  0  0  0  0  0  0
    4.0595    2.9942   -0.5621 H   0  0  0  0  0  0  0  0  0  0  0  0
    3.7695    1.6581    0.5645 H   0  0  0  0  0  0  0  0  0  0  0  0
    5.4491   -0.9160    1.0512 H   0  0  0  0  0  0  0  0  0  0  0  0
    4.1029   -2.3573    2.5790 H   0  0  0  0  0  0  0  0  0  0  0  0
    1.2633   -1.6759   -1.9377 H   0  0  0  0  0  0  0  0  0  0  0  0
    5.5439    2.5525   -2.3098 H   0  0  0  0  0  0  0  0  0  0  0  0
    5.7690    1.0865   -2.9885 H   0  0  0  0  0  0  0  0  0  0  0  0
    1.6179   -3.6879    2.6273 H   0  0  0  0  0  0  0  0  0  0  0  0
   -0.5662   -3.0731   -1.0339 H   0  0  0  0  0  0  0  0  0  0  0  0
   -0.3990   -4.0704    1.2176 H   0  0  0  0  0  0  0  0  0  0  0  0
    0.0221    0.7582   -1.0436 H   0  0  0  0  0  0  0  0  0  0  0  0
   -2.0892    0.9403   -1.5959 H   0  0  0  0  0  0  0  0  0  0  0  0
   -2.5575    1.1582    2.7078 H   0  0  0  0  0  0  0  0  0  0  0  0
    2.4796    3.5486    1.0843 H   0  0  0  0  0  0  0  0  0  0  0  0
   -4.7386    0.1140    2.5240 H   0  0  0  0  0  0  0  0  0  0  0  0
   -1.3276    2.9783    2.4135 H   0  0  0  0  0  0  0  0  0  0  0  0
   -3.8758   -0.1100   -2.9603 H   0  0  0  0  0  0  0  0  0  0  0  0
   -6.5492   -0.9188    1.0670 H   0  0  0  0  0  0  0  0  0  0  0  0
   -6.1109   -1.1878   -3.0086 H   0  0  0  0  0  0  0  0  0  0  0  0
  1 10  1  0  0  0  0
  1 17  1  0  0  0  0
  2 11  1  0  0  0  0
  2 12  1  0  0  0  0
  2 37  1  0  0  0  0
  3  7  1  0  0  0  0
  3 39  1  0  0  0  0
  3 40  1  0  0  0  0
  4 25  1  0  0  0  0
  4 27  2  0  0  0  0
  5 29  2  0  0  0  0
  5 30  1  0  0  0  0
  6  7  1  0  0  0  0
  6  8  1  0  0  0  0
  6 31  1  0  0  0  0
  6 32  1  0  0  0  0
  7 10  1  0  0  0  0
  7 33  1  0  0  0  0
  8  9  1  0  0  0  0
  8 12  2  0  0  0  0
  9 11  1  0  0  0  0
  9 13  2  0  0  0  0
 10 34  1  0  0  0  0
 10 35  1  0  0  0  0
 11 14  2  0  0  0  0
 12 36  1  0  0  0  0
 13 15  1  0  0  0  0
 13 38  1  0  0  0  0
 14 16  1  0  0  0  0
 14 41  1  0  0  0  0
 15 16  2  0  0  0  0
 15 42  1  0  0  0  0
 16 43  1  0  0  0  0
 17 20  1  0  0  0  0
 17 25  2  0  0  0  0
 18 19  1  0  0  0  0
 18 20  2  0  0  0  0
 18 27  1  0  0  0  0
 19 22  2  0  0  0  0
 19 24  1  0  0  0  0
 20 44  1  0  0  0  0
 21 22  1  0  0  0  0
 21 23  2  0  0  0  0
 21 28  1  0  0  0  0
 22 45  1  0  0  0  0
 23 26  1  0  0  0  0
 23 29  1  0  0  0  0
 24 26  2  0  0  0  0
 24 46  1  0  0  0  0
 25 47  1  0  0  0  0
 26 48  1  0  0  0  0
 27 49  1  0  0  0  0
 28 30  2  0  0  0  0
 28 50  1  0  0  0  0
 29 51  1  0  0  0  0
 30 52  1  0  0  0  0
M  END
> <PUBCHEM_COMPOUND_CID>
22607455

> <PUBCHEM_CONFORMER_RMSD>
1.4

> <PUBCHEM_CONFORMER_DIVERSEORDER>
1
7
30
65
82
53
67
9
96
5
77
14
13
89
73
69
71
93
58
16
59
15
35
52
29
18
99
44
79
11
95
37
98
94
6
81
90
50
12
4
62
21
84
49
72
23
66
41
48
60
3
19
17
46
56
47
57
97
88
24
83
20
22
32
51
61
39
75
63
64
68
31
40
25
33
92
26
34
28
54
43
78
85
36
74
91
45
87
10
8
70
55
2
42
80
27
86
76
38

> <PUBCHEM_MMFF94_PARTIAL_CHARGES>
42
1 -0.36
10 0.28
11 -0.15
12 -0.3
13 -0.15
14 -0.15
15 -0.15
16 -0.15
17 0.08
2 0.03
20 -0.15
22 -0.15
24 -0.15
25 0.16
26 -0.15
27 0.16
28 -0.15
29 0.16
3 -0.99
30 0.16
36 0.15
37 0.27
38 0.15
39 0.36
4 -0.62
40 0.36
41 0.15
42 0.15
43 0.15
44 0.15
45 0.15
46 0.15
47 0.15
48 0.15
49 0.15
5 -0.62
50 0.15
51 0.15
52 0.15
6 0.18
7 0.27
8 -0.18

> <PUBCHEM_EFFECTIVE_ROTOR_COUNT>
6

> <PUBCHEM_PHARMACOPHORE_FEATURES>
12
1 1 acceptor
1 2 cation
1 2 donor
1 3 cation
1 3 donor
1 4 acceptor
1 5 acceptor
5 2 8 9 11 12 rings
6 19 21 22 23 24 26 rings
6 4 17 18 20 25 27 rings
6 5 21 23 28 29 30 rings
6 9 11 13 14 15 16 rings

> <PUBCHEM_HEAVY_ATOM_COUNT>
30

> <PUBCHEM_ATOM_DEF_STEREO_COUNT>
0

> <PUBCHEM_ATOM_UDEF_STEREO_COUNT>
1

> <PUBCHEM_BOND_DEF_STEREO_COUNT>
0

> <PUBCHEM_BOND_UDEF_STEREO_COUNT>
0

> <PUBCHEM_ISOTOPIC_ATOM_COUNT>
0

> <PUBCHEM_COMPONENT_COUNT>
1

> <PUBCHEM_CACTVS_TAUTO_COUNT>
1

> <PUBCHEM_CONFORMER_ID>
0158F65F00000001

> <PUBCHEM_MMFF94_ENERGY>
83.6925

> <PUBCHEM_FEATURE_SELFOVERLAP>
61.016

> <PUBCHEM_SHAPE_FINGERPRINT>
10764073 3 11387518337979382806
10940486 97 17116930119544875142
1100329 8 18339636836676202850
11069576 57 18262801761726264358
11135609 187 18269555107957005809
11513181 2 17913224069794015574
12156800 1 17837186531715848306
12166972 35 17969214543338544794
12553582 1 18202284663028604125
12788726 201 18201452332742533536
1361 2 17968663851047759324
14747281 78 16951956268841225837
14787075 74 18411427201890389119
14931854 50 18339654399013436380
15001296 14 17915728972298907447
17134984 74 18263077872315046455
17138139 8 18200031879625061140
17492 54 18335430092498063086
19026451 147 18340475703654844763
19319366 153 18334569161946166662
20028762 73 18271807870154641126
20764821 26 18335990873308929907
20775530 9 17756428158285582562
208703 8 18060419118861760623
21421861 104 18052001150106908233
21703447 108 17845639474021315385
235170 7 17385725794166699317
392239 28 18128796600516307626
397830 11 10375306817014931685
404807 78 17461734071291964939
4098825 35 18041274380103392437
4409770 3 16109205228265299073
4573279 79 15650951412322807474
46194498 28 16806467966060840901
463206 1 18342453785756299531
484989 97 18189629395936476922
6287921 2 17771073687305802662
6669772 16 18124583438977461136

> <PUBCHEM_SHAPE_MULTIPOLES>
591.59
12.31
4.07
2.04
12.34
0.59
-0.32
2.68
-5.76
-3.97
1.88
0.11
-0.22
-2.66

> <PUBCHEM_SHAPE_SELFOVERLAP>
1323.067

> <PUBCHEM_SHAPE_VOLUME>
313

> <PUBCHEM_COORDINATE_TYPE>
2
5
10

$$$$
