49830293
  -OEChem-10062121533D

 42 45  0     0  0  0  0  0  0999 V2000
   -0.2162   -5.0681   -0.2590 Cl  0  0  0  0  0  0  0  0  0  0  0  0
    6.0692    1.2697   -1.2879 O   0  0  0  0  0  0  0  0  0  0  0  0
    2.2838   -0.7536    0.6201 N   0  0  0  0  0  0  0  0  0  0  0  0
   -0.0394   -0.6600    0.2670 N   0  0  0  0  0  0  0  0  0  0  0  0
   -1.2560   -2.6971   -0.1543 N   0  0  0  0  0  0  0  0  0  0  0  0
   -4.5462   -0.2310   -0.3960 N   0  0  0  0  0  0  0  0  0  0  0  0
   -4.6196    2.1634   -0.1416 N   0  0  0  0  0  0  0  0  0  0  0  0
    2.3998    0.6803    0.8003 C   0  0  0  0  0  0  0  0  0  0  0  0
    3.6694    1.0037    1.5929 C   0  0  0  0  0  0  0  0  0  0  0  0
    2.3720    1.3894   -0.5573 C   0  0  0  0  0  0  0  0  0  0  0  0
    4.8951    1.5724   -0.5420 C   0  0  0  0  0  0  0  0  0  0  0  0
    4.9442    0.8043    0.7758 C   0  0  0  0  0  0  0  0  0  0  0  0
    3.6592    1.2015   -1.3584 C   0  0  0  0  0  0  0  0  0  0  0  0
    1.0875   -1.3958    0.3606 C   0  0  0  0  0  0  0  0  0  0  0  0
    1.1221   -2.7673    0.2110 C   0  0  0  0  0  0  0  0  0  0  0  0
   -1.1585   -1.3642    0.0115 C   0  0  0  0  0  0  0  0  0  0  0  0
   -2.3754   -0.6155   -0.0947 C   0  0  0  0  0  0  0  0  0  0  0  0
   -2.6007    0.7815    0.0247 C   0  0  0  0  0  0  0  0  0  0  0  0
   -0.0918   -3.3706   -0.0477 C   0  0  0  0  0  0  0  0  0  0  0  0
   -3.9636    0.9879   -0.1682 C   0  0  0  0  0  0  0  0  0  0  0  0
   -3.5904   -1.2126   -0.3530 C   0  0  0  0  0  0  0  0  0  0  0  0
   -1.8053    1.9113    0.2765 C   0  0  0  0  0  0  0  0  0  0  0  0
   -2.4341    3.1544    0.3151 C   0  0  0  0  0  0  0  0  0  0  0  0
   -3.8051    3.2160    0.1046 C   0  0  0  0  0  0  0  0  0  0  0  0
    1.5528    1.0334    1.4026 H   0  0  0  0  0  0  0  0  0  0  0  0
    3.6250    2.0505    1.9202 H   0  0  0  0  0  0  0  0  0  0  0  0
    3.7204    0.3908    2.5011 H   0  0  0  0  0  0  0  0  0  0  0  0
    1.5206    1.0616   -1.1643 H   0  0  0  0  0  0  0  0  0  0  0  0
    2.2300    2.4641   -0.3833 H   0  0  0  0  0  0  0  0  0  0  0  0
    4.8979    2.6497   -0.3373 H   0  0  0  0  0  0  0  0  0  0  0  0
    5.1144   -0.2620    0.5810 H   0  0  0  0  0  0  0  0  0  0  0  0
    5.8130    1.1332    1.3592 H   0  0  0  0  0  0  0  0  0  0  0  0
    3.6221    1.8096   -2.2704 H   0  0  0  0  0  0  0  0  0  0  0  0
    3.7405    0.1623   -1.7024 H   0  0  0  0  0  0  0  0  0  0  0  0
    3.1307   -1.2655    0.3955 H   0  0  0  0  0  0  0  0  0  0  0  0
    6.0241    1.7698   -2.1207 H   0  0  0  0  0  0  0  0  0  0  0  0
    2.0400   -3.3381    0.2912 H   0  0  0  0  0  0  0  0  0  0  0  0
   -3.8760   -2.2438   -0.5131 H   0  0  0  0  0  0  0  0  0  0  0  0
   -5.5303   -0.3822   -0.5688 H   0  0  0  0  0  0  0  0  0  0  0  0
   -0.7353    1.8451    0.4386 H   0  0  0  0  0  0  0  0  0  0  0  0
   -1.8622    4.0562    0.5060 H   0  0  0  0  0  0  0  0  0  0  0  0
   -4.3117    4.1772    0.1311 H   0  0  0  0  0  0  0  0  0  0  0  0
  1 19  1  0  0  0  0
  2 11  1  0  0  0  0
  2 36  1  0  0  0  0
  3  8  1  0  0  0  0
  3 14  1  0  0  0  0
  3 35  1  0  0  0  0
  4 14  1  0  0  0  0
  4 16  2  0  0  0  0
  5 16  1  0  0  0  0
  5 19  2  0  0  0  0
  6 20  1  0  0  0  0
  6 21  1  0  0  0  0
  6 39  1  0  0  0  0
  7 20  1  0  0  0  0
  7 24  2  0  0  0  0
  8  9  1  0  0  0  0
  8 10  1  0  0  0  0
  8 25  1  0  0  0  0
  9 12  1  0  0  0  0
  9 26  1  0  0  0  0
  9 27  1  0  0  0  0
 10 13  1  0  0  0  0
 10 28  1  0  0  0  0
 10 29  1  0  0  0  0
 11 12  1  0  0  0  0
 11 13  1  0  0  0  0
 11 30  1  0  0  0  0
 12 31  1  0  0  0  0
 12 32  1  0  0  0  0
 13 33  1  0  0  0  0
 13 34  1  0  0  0  0
 14 15  2  0  0  0  0
 15 19  1  0  0  0  0
 15 37  1  0  0  0  0
 16 17  1  0  0  0  0
 17 18  1  0  0  0  0
 17 21  2  0  0  0  0
 18 20  2  0  0  0  0
 18 22  1  0  0  0  0
 21 38  1  0  0  0  0
 22 23  2  0  0  0  0
 22 40  1  0  0  0  0
 23 24  1  0  0  0  0
 23 41  1  0  0  0  0
 24 42  1  0  0  0  0
M  END
> <PUBCHEM_COMPOUND_CID>
49830293

> <PUBCHEM_CONFORMER_RMSD>
0.8

> <PUBCHEM_CONFORMER_DIVERSEORDER>
1
17
62
18
37
15
34
25
53
57
22
63
65
42
64
60
55
21
39
52
12
32
36
23
54
73
31
45
69
4
68
26
14
24
71
49
16
70
41
46
7
61
10
48
30
67
50
9
47
28
8
59
40
20
43
19
33
72
56
51
58
66
6
35
44
2
11
27
29
38
13
3
5

> <PUBCHEM_MMFF94_PARTIAL_CHARGES>
27
1 -0.18
11 0.28
14 0.41
15 -0.15
16 0.67
17 -0.05
19 0.49
2 -0.68
20 0.11
21 -0.3
22 -0.15
23 -0.15
24 0.16
3 -0.87
35 0.4
36 0.4
37 0.15
38 0.15
39 0.27
4 -0.62
40 0.15
41 0.15
42 0.15
5 -0.62
6 0.03
7 -0.57
8 0.37

> <PUBCHEM_EFFECTIVE_ROTOR_COUNT>
4.2

> <PUBCHEM_PHARMACOPHORE_FEATURES>
13
1 2 acceptor
1 2 donor
1 3 cation
1 3 donor
1 5 acceptor
1 6 cation
1 6 donor
1 7 acceptor
3 4 5 16 cation
5 6 17 18 20 21 rings
6 4 5 14 15 16 19 rings
6 7 18 20 22 23 24 rings
6 8 9 10 11 12 13 rings

> <PUBCHEM_HEAVY_ATOM_COUNT>
24

> <PUBCHEM_ATOM_DEF_STEREO_COUNT>
0

> <PUBCHEM_ATOM_UDEF_STEREO_COUNT>
0

> <PUBCHEM_BOND_DEF_STEREO_COUNT>
0

> <PUBCHEM_BOND_UDEF_STEREO_COUNT>
0

> <PUBCHEM_ISOTOPIC_ATOM_COUNT>
0

> <PUBCHEM_COMPONENT_COUNT>
1

> <PUBCHEM_CACTVS_TAUTO_COUNT>
9

> <PUBCHEM_CONFORMER_ID>
02F8599500000001

> <PUBCHEM_MMFF94_ENERGY>
51.8134

> <PUBCHEM_FEATURE_SELFOVERLAP>
66.085

> <PUBCHEM_SHAPE_FINGERPRINT>
10411042 1 17474103679840956418
10498660 4 18412542093991601081
10615611 76 17531544177562808236
10670039 82 18409168822651244596
10871710 139 18411979183119835277
1100329 8 17906166609993527135
11370993 144 13984923118304926980
11582403 64 16339712043175635674
11725454 13 16986563559980312882
12107183 9 18262506028085605898
12173636 292 18340196470851444807
12390115 104 18272661125478965657
12788726 201 17756160233883217422
13140716 1 17976819019137760675
138480 1 17547007429537736251
13911987 19 18263630905489636311
14114211 68 18196111974706922433
14251757 5 18267876158333404020
14251764 75 18198633129174047241
14508225 48 17478038823335086623
14739800 52 18050271859758193000
14767858 380 18267847524150328911
14790565 3 18409731733933986180
14840074 17 17530692021549281292
15042514 8 18049163559878041227
15163728 17 18338246980831874510
15183329 4 18336838524634596500
15297060 5 18342466910844475744
15575132 122 18040433291366278861
17818456 19 18337376202657732362
20101258 96 17471021740189657362
20775438 99 16545767355424753087
21133410 127 17825393981535399316
22122407 14 15864067697639140709
23366157 5 17974003955817351659
23559900 14 17910661078235427563
3091708 16 9482044791752622379
350125 39 18266457616091659154
394222 165 18187919526279277442
474 4 18114743733331693401
5048184 11 18338519642541527033
5486654 2 18339077207143880039
6287921 2 18192436264332431365
6700243 42 17334257840092292990
7064713 232 18335974299072429320
7808743 9 18337391668613671992
9709674 26 18052252891890165339
9981440 41 18408321077600558411

> <PUBCHEM_SHAPE_MULTIPOLES>
465
10.27
4.9
0.97
7.19
5.72
0
-10.01
1.64
-2.9
0.22
1.32
-0.34
-0.76

> <PUBCHEM_SHAPE_SELFOVERLAP>
1012.034

> <PUBCHEM_SHAPE_VOLUME>
253.7

> <PUBCHEM_COORDINATE_TYPE>
2
5
10

$$$$
