5328125
  -OEChem-10062122033D

 57 59  0     0  0  0  0  0  0999 V2000
   -0.1486    3.2663   -0.0003 O   0  0  0  0  0  0  0  0  0  0  0  0
   -2.3653    2.6131    0.0006 N   0  0  0  0  0  0  0  0  0  0  0  0
   -0.7463    0.9961    0.0008 N   0  0  0  0  0  0  0  0  0  0  0  0
    1.6015    1.1254    0.0004 N   0  0  0  0  0  0  0  0  0  0  0  0
    3.9096    1.3096    0.0001 N   0  0  0  0  0  0  0  0  0  0  0  0
    5.3273   -0.6372   -0.0003 N   0  0  0  0  0  0  0  0  0  0  0  0
    6.2478    1.5157   -0.0004 N   0  0  0  0  0  0  0  0  0  0  0  0
   -2.9299    3.9504    0.0004 C   0  0  0  0  0  0  0  0  0  0  0  0
   -0.6738   -1.8503    0.0000 C   0  0  0  0  0  0  0  0  0  0  0  0
   -1.2548   -2.2457    1.2080 C   0  0  0  0  0  0  0  0  0  0  0  0
   -1.2547   -2.2453   -1.2080 C   0  0  0  0  0  0  0  0  0  0  0  0
    0.5234   -1.0362    0.0000 C   0  0  0  0  0  0  0  0  0  0  0  0
   -2.4081   -3.0302    1.2079 C   0  0  0  0  0  0  0  0  0  0  0  0
   -2.4080   -3.0297   -1.2082 C   0  0  0  0  0  0  0  0  0  0  0  0
   -4.4600    3.8544    0.0008 C   0  0  0  0  0  0  0  0  0  0  0  0
   -2.4566    4.6943    1.2535 C   0  0  0  0  0  0  0  0  0  0  0  0
   -2.4626    4.6976   -1.2541 C   0  0  0  0  0  0  0  0  0  0  0  0
    0.5052    0.3373    0.0004 C   0  0  0  0  0  0  0  0  0  0  0  0
   -2.9847   -3.4223   -0.0002 C   0  0  0  0  0  0  0  0  0  0  0  0
    1.7676   -1.6417   -0.0003 C   0  0  0  0  0  0  0  0  0  0  0  0
   -0.6476   -1.8329    2.5139 C   0  0  0  0  0  0  0  0  0  0  0  0
   -0.6489   -1.8321   -2.5141 C   0  0  0  0  0  0  0  0  0  0  0  0
   -0.9914    2.3721    0.0004 C   0  0  0  0  0  0  0  0  0  0  0  0
    2.9241   -0.8481   -0.0003 C   0  0  0  0  0  0  0  0  0  0  0  0
   -3.0459   -3.4650    2.4868 C   0  0  0  0  0  0  0  0  0  0  0  0
   -3.0459   -3.4644   -2.4873 C   0  0  0  0  0  0  0  0  0  0  0  0
    2.8104    0.5471    0.0000 C   0  0  0  0  0  0  0  0  0  0  0  0
    4.2100   -1.3831   -0.0004 C   0  0  0  0  0  0  0  0  0  0  0  0
    5.1060    0.6850   -0.0003 C   0  0  0  0  0  0  0  0  0  0  0  0
   -2.9959    1.8171    0.0009 H   0  0  0  0  0  0  0  0  0  0  0  0
   -4.8222    3.3142   -0.8818 H   0  0  0  0  0  0  0  0  0  0  0  0
   -4.9237    4.8471    0.0014 H   0  0  0  0  0  0  0  0  0  0  0  0
   -4.8214    3.3138    0.8834 H   0  0  0  0  0  0  0  0  0  0  0  0
   -1.3817    4.8966    1.2572 H   0  0  0  0  0  0  0  0  0  0  0  0
   -2.6859    4.1234    2.1611 H   0  0  0  0  0  0  0  0  0  0  0  0
   -2.9580    5.6656    1.3395 H   0  0  0  0  0  0  0  0  0  0  0  0
   -1.3871    4.8966   -1.2631 H   0  0  0  0  0  0  0  0  0  0  0  0
   -2.9622    5.6702   -1.3346 H   0  0  0  0  0  0  0  0  0  0  0  0
   -2.6981    4.1291   -2.1617 H   0  0  0  0  0  0  0  0  0  0  0  0
   -3.8853   -4.0318   -0.0003 H   0  0  0  0  0  0  0  0  0  0  0  0
    1.8549   -2.7267   -0.0005 H   0  0  0  0  0  0  0  0  0  0  0  0
   -0.1064   -0.8845    2.4622 H   0  0  0  0  0  0  0  0  0  0  0  0
   -1.4054   -1.6695    3.2866 H   0  0  0  0  0  0  0  0  0  0  0  0
    0.0446   -2.6065    2.8627 H   0  0  0  0  0  0  0  0  0  0  0  0
    0.0281   -2.6143   -2.8735 H   0  0  0  0  0  0  0  0  0  0  0  0
   -1.4101   -1.6506   -3.2795 H   0  0  0  0  0  0  0  0  0  0  0  0
   -0.0908   -0.8937   -2.4603 H   0  0  0  0  0  0  0  0  0  0  0  0
   -1.5730    0.4063    0.0011 H   0  0  0  0  0  0  0  0  0  0  0  0
   -3.5071   -2.6123    2.9955 H   0  0  0  0  0  0  0  0  0  0  0  0
   -3.8347   -4.2053    2.3117 H   0  0  0  0  0  0  0  0  0  0  0  0
   -2.3150   -3.9399    3.1498 H   0  0  0  0  0  0  0  0  0  0  0  0
   -2.3145   -3.9374   -3.1511 H   0  0  0  0  0  0  0  0  0  0  0  0
   -3.8335   -4.2060   -2.3124 H   0  0  0  0  0  0  0  0  0  0  0  0
   -3.5082   -2.6119   -2.9950 H   0  0  0  0  0  0  0  0  0  0  0  0
    4.3788   -2.4559   -0.0005 H   0  0  0  0  0  0  0  0  0  0  0  0
    6.1319    2.5197    0.0004 H   0  0  0  0  0  0  0  0  0  0  0  0
    7.1674    1.0966    0.0001 H   0  0  0  0  0  0  0  0  0  0  0  0
  1 23  2  0  0  0  0
  2  8  1  0  0  0  0
  2 23  1  0  0  0  0
  2 30  1  0  0  0  0
  3 18  1  0  0  0  0
  3 23  1  0  0  0  0
  3 48  1  0  0  0  0
  4 18  1  0  0  0  0
  4 27  2  0  0  0  0
  5 27  1  0  0  0  0
  5 29  2  0  0  0  0
  6 28  2  0  0  0  0
  6 29  1  0  0  0  0
  7 29  1  0  0  0  0
  7 56  1  0  0  0  0
  7 57  1  0  0  0  0
  8 15  1  0  0  0  0
  8 16  1  0  0  0  0
  8 17  1  0  0  0  0
  9 10  2  0  0  0  0
  9 11  1  0  0  0  0
  9 12  1  0  0  0  0
 10 13  1  0  0  0  0
 10 21  1  0  0  0  0
 11 14  2  0  0  0  0
 11 22  1  0  0  0  0
 12 18  2  0  0  0  0
 12 20  1  0  0  0  0
 13 19  2  0  0  0  0
 13 25  1  0  0  0  0
 14 19  1  0  0  0  0
 14 26  1  0  0  0  0
 15 31  1  0  0  0  0
 15 32  1  0  0  0  0
 15 33  1  0  0  0  0
 16 34  1  0  0  0  0
 16 35  1  0  0  0  0
 16 36  1  0  0  0  0
 17 37  1  0  0  0  0
 17 38  1  0  0  0  0
 17 39  1  0  0  0  0
 19 40  1  0  0  0  0
 20 24  2  0  0  0  0
 20 41  1  0  0  0  0
 21 42  1  0  0  0  0
 21 43  1  0  0  0  0
 21 44  1  0  0  0  0
 22 45  1  0  0  0  0
 22 46  1  0  0  0  0
 22 47  1  0  0  0  0
 24 27  1  0  0  0  0
 24 28  1  0  0  0  0
 25 49  1  0  0  0  0
 25 50  1  0  0  0  0
 25 51  1  0  0  0  0
 26 52  1  0  0  0  0
 26 53  1  0  0  0  0
 26 54  1  0  0  0  0
 28 55  1  0  0  0  0
M  END
> <PUBCHEM_COMPOUND_CID>
5328125

> <PUBCHEM_CONFORMER_RMSD>
0.8

> <PUBCHEM_CONFORMER_DIVERSEORDER>
1
3
4
5
2

> <PUBCHEM_MMFF94_PARTIAL_CHARGES>
30
1 -0.57
10 -0.14
11 -0.14
13 -0.14
14 -0.14
18 0.43
19 -0.15
2 -0.73
20 -0.15
21 0.14
22 0.14
23 0.69
25 0.14
26 0.14
27 0.62
28 0.16
29 0.72
3 -0.55
30 0.37
4 -0.62
40 0.15
41 0.15
48 0.37
5 -0.62
55 0.15
56 0.4
57 0.4
6 -0.62
7 -0.9
8 0.3

> <PUBCHEM_EFFECTIVE_ROTOR_COUNT>
5

> <PUBCHEM_PHARMACOPHORE_FEATURES>
10
1 1 acceptor
1 2 donor
1 3 donor
1 6 acceptor
1 7 donor
4 5 6 7 29 cation
4 8 15 16 17 hydrophobe
6 4 12 18 20 24 27 rings
6 5 6 24 27 28 29 rings
6 9 10 11 13 14 19 rings

> <PUBCHEM_HEAVY_ATOM_COUNT>
29

> <PUBCHEM_ATOM_DEF_STEREO_COUNT>
0

> <PUBCHEM_ATOM_UDEF_STEREO_COUNT>
0

> <PUBCHEM_BOND_DEF_STEREO_COUNT>
0

> <PUBCHEM_BOND_UDEF_STEREO_COUNT>
0

> <PUBCHEM_ISOTOPIC_ATOM_COUNT>
0

> <PUBCHEM_COMPONENT_COUNT>
1

> <PUBCHEM_CACTVS_TAUTO_COUNT>
24

> <PUBCHEM_CONFORMER_ID>
00514CFD00000001

> <PUBCHEM_MMFF94_ENERGY>
104.2985

> <PUBCHEM_FEATURE_SELFOVERLAP>
50.836

> <PUBCHEM_SHAPE_FINGERPRINT>
10006869 2 18262796251620665059
10050765 1 18410575073012605430
10074138 170 18262782004734070640
11045515 52 18126277781879252774
11115154 58 18124290948100843903
11578080 2 17273676831827840866
11991303 11 18189627055036337156
12156800 1 18120409551177836677
12160290 23 18192683757391050924
12166972 35 17413303925636363079
12236239 1 17415291803519431342
12293681 4 18334579087836867467
12553582 1 18051139382705307558
12741549 16 17607510625388745159
12788726 201 18337375106887307003
13134695 92 17905606962247256679
13140716 1 18193566785566432425
13540713 4 18272378547323166750
13540713 5 18261101951747387514
13590594 115 18267865176344679723
13692114 37 18127108815148412773
138480 1 16537357688735200385
14028597 1 17677033728976027019
14556957 393 18118699944226597084
14790565 3 18124596371145419316
15484559 13 17547290008262734510
15629462 23 18409440415051144739
15927050 60 18120654635029412722
16087824 20 18412260654365912173
16988056 13 17619880170415223829
17138139 8 17768486635746871989
1813 80 17983598560690447982
19301676 85 17478064757076010422
19427546 62 18121221982776091856
20028762 73 17550377445508855294
20101258 96 18268152139788525760
20567600 347 17759814636860759781
21041028 32 18119257400214725462
21049683 118 18049132537123255480
21133410 62 18115849834562954397
21307412 95 17484822428765138910
21641784 216 18117009986222578972
23175994 123 18045501082129262926
23558518 356 18187370926375710394
23929065 36 18125974231382525520
283562 15 18263637519591500546
3178227 256 17472428651242583802
376196 1 17979355257181355449
38695281 34 17908135482408674420
394222 165 17760361102592582169
4058900 60 17616266788295719580
513202 73 18341065072659271478
5171179 24 17843391041081941464
57527295 17 17899665102722212871
59025328 239 17626926909666188591
5969126 39 18269829990638231116
59755656 520 18190176776659207004
6669772 16 17763182445325099902

> <PUBCHEM_SHAPE_MULTIPOLES>
561.05
8.59
7.17
1.84
14.64
5.83
0
5.23
0
-12.86
0
-2.15
-2.45
0

> <PUBCHEM_SHAPE_SELFOVERLAP>
1214.999

> <PUBCHEM_SHAPE_VOLUME>
309.1

> <PUBCHEM_COORDINATE_TYPE>
2
5
10

$$$$
