44440256
  -OEChem-10052120443D

 61 65  0     0  0  0  0  0  0999 V2000
   -2.3123   -1.5497    0.8973 S   0  0  0  0  0  0  0  0  0  0  0  0
    7.7796   -2.2905    0.2561 O   0  0  0  0  0  0  0  0  0  0  0  0
    7.3764    0.2548   -0.1348 O   0  0  0  0  0  0  0  0  0  0  0  0
    9.8814   -3.7340   -0.9006 O   0  0  0  0  0  0  0  0  0  0  0  0
   -8.0766   -0.2368   -0.0859 O   0  0  0  0  0  0  0  0  0  0  0  0
    0.3439    3.8276   -0.1918 N   0  0  0  0  0  0  0  0  0  0  0  0
   -0.8113    3.1423    0.0084 N   0  0  0  0  0  0  0  0  0  0  0  0
    5.0352    0.0818    0.0746 N   0  0  0  0  0  0  0  0  0  0  0  0
    2.0731    0.7401    0.1875 C   0  0  0  0  0  0  0  0  0  0  0  0
    0.9774    1.7460    0.1039 C   0  0  0  0  0  0  0  0  0  0  0  0
    3.2448    1.7099   -0.0604 C   0  0  0  0  0  0  0  0  0  0  0  0
    1.4163    3.0172   -0.1393 C   0  0  0  0  0  0  0  0  0  0  0  0
    2.8302    3.0579   -0.2520 C   0  0  0  0  0  0  0  0  0  0  0  0
   -0.4097    1.8695    0.1883 C   0  0  0  0  0  0  0  0  0  0  0  0
    4.5898    1.3896   -0.1083 C   0  0  0  0  0  0  0  0  0  0  0  0
    3.7167    4.0844   -0.4879 C   0  0  0  0  0  0  0  0  0  0  0  0
    5.5035    2.4224   -0.3472 C   0  0  0  0  0  0  0  0  0  0  0  0
   -1.3217    0.7758    0.4385 C   0  0  0  0  0  0  0  0  0  0  0  0
    5.0722    3.7516   -0.5342 C   0  0  0  0  0  0  0  0  0  0  0  0
   -2.7331    0.9558    0.5154 C   0  0  0  0  0  0  0  0  0  0  0  0
   -0.9567   -0.5389    0.6282 C   0  0  0  0  0  0  0  0  0  0  0  0
    6.3533   -0.3959    0.0550 C   0  0  0  0  0  0  0  0  0  0  0  0
   -3.3929   -0.2284    0.7604 C   0  0  0  0  0  0  0  0  0  0  0  0
    6.4262   -1.8881    0.2963 C   0  0  0  0  0  0  0  0  0  0  0  0
   -4.8053   -0.3632    0.8889 C   0  0  0  0  0  0  0  0  0  0  0  0
    7.9235   -3.6904    0.4764 C   0  0  0  0  0  0  0  0  0  0  0  0
    9.3933   -4.0553    0.3963 C   0  0  0  0  0  0  0  0  0  0  0  0
   -5.9963   -0.4764    0.9965 C   0  0  0  0  0  0  0  0  0  0  0  0
   -7.4459   -0.6148    1.1294 C   0  0  0  0  0  0  0  0  0  0  0  0
   -9.2728   -0.8405   -0.3762 C   0  0  0  0  0  0  0  0  0  0  0  0
   11.2640   -4.0357   -1.0260 C   0  0  0  0  0  0  0  0  0  0  0  0
  -10.1157   -1.2510    0.6567 C   0  0  0  0  0  0  0  0  0  0  0  0
   -9.6470   -1.0443   -1.7043 C   0  0  0  0  0  0  0  0  0  0  0  0
  -11.3328   -1.8653    0.3614 C   0  0  0  0  0  0  0  0  0  0  0  0
  -10.8639   -1.6584   -1.9997 C   0  0  0  0  0  0  0  0  0  0  0  0
  -11.7069   -2.0690   -0.9668 C   0  0  0  0  0  0  0  0  0  0  0  0
    2.0107   -0.0054   -0.6090 H   0  0  0  0  0  0  0  0  0  0  0  0
    2.1451    0.2897    1.1806 H   0  0  0  0  0  0  0  0  0  0  0  0
    0.2951    4.8265   -0.3528 H   0  0  0  0  0  0  0  0  0  0  0  0
    3.3884    5.1070   -0.6322 H   0  0  0  0  0  0  0  0  0  0  0  0
    6.5741    2.2747   -0.4025 H   0  0  0  0  0  0  0  0  0  0  0  0
    5.8087    4.5301   -0.7176 H   0  0  0  0  0  0  0  0  0  0  0  0
    4.3079   -0.6091    0.2443 H   0  0  0  0  0  0  0  0  0  0  0  0
   -3.2479    1.9027    0.3978 H   0  0  0  0  0  0  0  0  0  0  0  0
    0.0269   -0.9846    0.6274 H   0  0  0  0  0  0  0  0  0  0  0  0
    5.9938   -2.1080    1.2788 H   0  0  0  0  0  0  0  0  0  0  0  0
    5.8543   -2.3997   -0.4859 H   0  0  0  0  0  0  0  0  0  0  0  0
    7.5253   -3.9532    1.4626 H   0  0  0  0  0  0  0  0  0  0  0  0
    7.3650   -4.2299   -0.2972 H   0  0  0  0  0  0  0  0  0  0  0  0
    9.5238   -5.1261    0.5877 H   0  0  0  0  0  0  0  0  0  0  0  0
    9.9579   -3.4815    1.1403 H   0  0  0  0  0  0  0  0  0  0  0  0
   -7.6529   -1.6616    1.3873 H   0  0  0  0  0  0  0  0  0  0  0  0
   -7.8081    0.0313    1.9370 H   0  0  0  0  0  0  0  0  0  0  0  0
   11.5829   -3.7742   -2.0386 H   0  0  0  0  0  0  0  0  0  0  0  0
   11.4393   -5.1046   -0.8700 H   0  0  0  0  0  0  0  0  0  0  0  0
   11.8513   -3.4490   -0.3130 H   0  0  0  0  0  0  0  0  0  0  0  0
   -9.8753   -1.0865    1.7028 H   0  0  0  0  0  0  0  0  0  0  0  0
   -8.9943   -0.7268   -2.5129 H   0  0  0  0  0  0  0  0  0  0  0  0
  -11.9924   -2.1794    1.1651 H   0  0  0  0  0  0  0  0  0  0  0  0
  -11.1554   -1.8168   -3.0339 H   0  0  0  0  0  0  0  0  0  0  0  0
  -12.6551   -2.5459   -1.1969 H   0  0  0  0  0  0  0  0  0  0  0  0
  1 21  1  0  0  0  0
  1 23  1  0  0  0  0
  2 24  1  0  0  0  0
  2 26  1  0  0  0  0
  3 22  2  0  0  0  0
  4 27  1  0  0  0  0
  4 31  1  0  0  0  0
  5 29  1  0  0  0  0
  5 30  1  0  0  0  0
  6  7  1  0  0  0  0
  6 12  1  0  0  0  0
  6 39  1  0  0  0  0
  7 14  2  0  0  0  0
  8 15  1  0  0  0  0
  8 22  1  0  0  0  0
  8 43  1  0  0  0  0
  9 10  1  0  0  0  0
  9 11  1  0  0  0  0
  9 37  1  0  0  0  0
  9 38  1  0  0  0  0
 10 12  2  0  0  0  0
 10 14  1  0  0  0  0
 11 13  2  0  0  0  0
 11 15  1  0  0  0  0
 12 13  1  0  0  0  0
 13 16  1  0  0  0  0
 14 18  1  0  0  0  0
 15 17  2  0  0  0  0
 16 19  2  0  0  0  0
 16 40  1  0  0  0  0
 17 19  1  0  0  0  0
 17 41  1  0  0  0  0
 18 20  1  0  0  0  0
 18 21  2  0  0  0  0
 19 42  1  0  0  0  0
 20 23  2  0  0  0  0
 20 44  1  0  0  0  0
 21 45  1  0  0  0  0
 22 24  1  0  0  0  0
 23 25  1  0  0  0  0
 24 46  1  0  0  0  0
 24 47  1  0  0  0  0
 25 28  3  0  0  0  0
 26 27  1  0  0  0  0
 26 48  1  0  0  0  0
 26 49  1  0  0  0  0
 27 50  1  0  0  0  0
 27 51  1  0  0  0  0
 28 29  1  0  0  0  0
 29 52  1  0  0  0  0
 29 53  1  0  0  0  0
 30 32  2  0  0  0  0
 30 33  1  0  0  0  0
 31 54  1  0  0  0  0
 31 55  1  0  0  0  0
 31 56  1  0  0  0  0
 32 34  1  0  0  0  0
 32 57  1  0  0  0  0
 33 35  2  0  0  0  0
 33 58  1  0  0  0  0
 34 36  2  0  0  0  0
 34 59  1  0  0  0  0
 35 36  1  0  0  0  0
 35 60  1  0  0  0  0
 36 61  1  0  0  0  0
M  END
> <PUBCHEM_COMPOUND_CID>
44440256

> <PUBCHEM_CONFORMER_RMSD>
1

> <PUBCHEM_CONFORMER_DIVERSEORDER>
1
113
86
153
26
132
105
17
74
36
120
49
118
100
110
50
70
64
63
7
40
33
68
95
8
139
5
77
30
22
119
29
78
16
82
61
115
142
97
25
28
56
144
85
66
88
150
59
72
43
34
129
20
128
131
124
154
18
135
73
45
138
145
90
87
157
67
10
123
111
24
44
62
12
41
122
92
11
96
21
60
76
42
14
51
125
57
99
89
133
155
108
4
156
117
94
103
83
6
121
46
148
75
102
149
13
48
71
93
58
3
37
146
116
136
54
112
52
126
81
79
101
9
127
19
65
53
91
98
27
140
23
107
151
141
84
32
55
109
38
15
137
114
80
31
143
130
106
152
47
69
147
104
134
39
2
35

> <PUBCHEM_MMFF94_PARTIAL_CHARGES>
47
1 -0.08
10 -0.18
11 -0.14
12 -0.2
13 0.05
14 0.29
15 0.12
16 -0.15
17 -0.15
19 -0.15
2 -0.56
20 -0.15
21 -0.11
22 0.57
23 0.06
24 0.34
25 -0.02
26 0.28
27 0.28
28 -0.2
29 0.48
3 -0.57
30 0.08
31 0.28
32 -0.15
33 -0.15
34 -0.15
35 -0.15
36 -0.15
39 0.27
4 -0.56
40 0.15
41 0.15
42 0.15
43 0.37
44 0.15
45 0.15
5 -0.36
57 0.15
58 0.15
59 0.15
6 0.3
60 0.15
61 0.15
7 -0.71
8 -0.55
9 0.32

> <PUBCHEM_EFFECTIVE_ROTOR_COUNT>
10.2

> <PUBCHEM_PHARMACOPHORE_FEATURES>
12
1 2 acceptor
1 3 acceptor
1 4 acceptor
1 5 acceptor
1 6 donor
1 7 acceptor
1 8 donor
5 1 18 20 21 23 rings
5 6 7 10 12 14 rings
5 9 10 11 12 13 rings
6 11 13 15 16 17 19 rings
6 30 32 33 34 35 36 rings

> <PUBCHEM_HEAVY_ATOM_COUNT>
36

> <PUBCHEM_ATOM_DEF_STEREO_COUNT>
0

> <PUBCHEM_ATOM_UDEF_STEREO_COUNT>
0

> <PUBCHEM_BOND_DEF_STEREO_COUNT>
0

> <PUBCHEM_BOND_UDEF_STEREO_COUNT>
0

> <PUBCHEM_ISOTOPIC_ATOM_COUNT>
0

> <PUBCHEM_COMPONENT_COUNT>
1

> <PUBCHEM_CACTVS_TAUTO_COUNT>
4

> <PUBCHEM_CONFORMER_ID>
02A61AC000000001

> <PUBCHEM_MMFF94_ENERGY>
106.7726

> <PUBCHEM_FEATURE_SELFOVERLAP>
61.253

> <PUBCHEM_SHAPE_FINGERPRINT>
10411042 1 18336832988385523384
11409948 35 18408885148693099345
11672396 167 18411138017441912299
117089 54 18265343807583774554
11966995 16 18113621183868983998
12089408 11 17988368170003370025
13150687 139 18114459063917803291
13692115 27 18335699379007278784
14617042 71 9007054673574035171
150020 25 17749382712004161869
15152005 77 18271246006764668238
15198563 99 16877939395926312941
20771845 140 16845578612631158932
21057603 323 18191302668483569733
21102433 48 17988921189544640447
21130935 74 18266467675089663953
21895431 317 18272370841487972687
22899556 10 11383826057141879916
22899556 56 17202210594763233312
23523788 1 17416410849797141646
255183 451 18334582309637202940
2835820 83 18411139091748868850
335352 9 18336270136372149157
4353968 344 18341329995253613461
44389302 135 17703792501303406863
474113 269 18410573976561516547
57303763 176 18268430145386813945
59682541 35 12319465411541433377

> <PUBCHEM_SHAPE_MULTIPOLES>
706.29
44.34
5.52
1.1
67.44
0.16
-0.31
65.87
-14.08
-21.45
-1.17
2.56
0.59
-0.9

> <PUBCHEM_SHAPE_SELFOVERLAP>
1528.477

> <PUBCHEM_SHAPE_VOLUME>
388.9

> <PUBCHEM_COORDINATE_TYPE>
2
5
10

$$$$
