44328745
  -OEChem-10062122053D

 42 44  0     0  0  0  0  0  0999 V2000
   -2.4759    3.2636   -0.0786 O   0  0  0  0  0  0  0  0  0  0  0  0
    2.1031    3.1826   -0.0015 O   0  0  0  0  0  0  0  0  0  0  0  0
   -3.0260    0.4399    0.4445 N   0  0  0  0  0  0  0  0  0  0  0  0
    1.3528    0.4228   -0.0727 N   0  0  0  0  0  0  0  0  0  0  0  0
   -0.1806    3.6232   -0.0160 N   0  0  0  0  0  0  0  0  0  0  0  0
    4.9426   -0.5357    0.0546 N   0  0  0  0  0  0  0  0  0  0  0  0
    7.8445   -2.8706    0.1812 N   0  0  0  0  0  0  0  0  0  0  0  0
   -0.8865    1.4572   -0.1026 C   0  0  0  0  0  0  0  0  0  0  0  0
   -1.7937    0.3088   -0.1374 C   0  0  0  0  0  0  0  0  0  0  0  0
    0.4559    1.4363   -0.0777 C   0  0  0  0  0  0  0  0  0  0  0  0
    2.7842    0.6168   -0.0080 C   0  0  0  0  0  0  0  0  0  0  0  0
   -3.7384   -0.7312    0.3167 C   0  0  0  0  0  0  0  0  0  0  0  0
   -2.9250   -1.6340   -0.3715 C   0  0  0  0  0  0  0  0  0  0  0  0
   -1.7013   -0.9641   -0.6514 C   0  0  0  0  0  0  0  0  0  0  0  0
    3.4978   -0.7317    0.0073 C   0  0  0  0  0  0  0  0  0  0  0  0
   -1.3202    2.8752   -0.0608 C   0  0  0  0  0  0  0  0  0  0  0  0
    0.9338    2.8377   -0.0278 C   0  0  0  0  0  0  0  0  0  0  0  0
    5.6391   -1.8139    0.0802 C   0  0  0  0  0  0  0  0  0  0  0  0
   -5.0275   -1.0570    0.7530 C   0  0  0  0  0  0  0  0  0  0  0  0
   -3.4204   -2.9258   -0.6386 C   0  0  0  0  0  0  0  0  0  0  0  0
   -5.4975   -2.3443    0.4773 C   0  0  0  0  0  0  0  0  0  0  0  0
   -4.7079   -3.2659   -0.2077 C   0  0  0  0  0  0  0  0  0  0  0  0
    7.1472   -1.5900    0.1375 C   0  0  0  0  0  0  0  0  0  0  0  0
    3.1281    1.1812   -0.8835 H   0  0  0  0  0  0  0  0  0  0  0  0
    3.0551    1.1591    0.9063 H   0  0  0  0  0  0  0  0  0  0  0  0
    0.9883   -0.5235   -0.0777 H   0  0  0  0  0  0  0  0  0  0  0  0
   -3.3722    1.2698    0.9069 H   0  0  0  0  0  0  0  0  0  0  0  0
   -0.8529   -1.3770   -1.1805 H   0  0  0  0  0  0  0  0  0  0  0  0
    3.1644   -1.3061    0.8808 H   0  0  0  0  0  0  0  0  0  0  0  0
    3.2191   -1.3031   -0.8874 H   0  0  0  0  0  0  0  0  0  0  0  0
   -0.1642    4.6362    0.0159 H   0  0  0  0  0  0  0  0  0  0  0  0
    5.2442    0.0065   -0.7546 H   0  0  0  0  0  0  0  0  0  0  0  0
    5.3889   -2.4001   -0.8131 H   0  0  0  0  0  0  0  0  0  0  0  0
    5.3240   -2.3910    0.9587 H   0  0  0  0  0  0  0  0  0  0  0  0
   -5.6429   -0.3401    1.2862 H   0  0  0  0  0  0  0  0  0  0  0  0
   -2.8157   -3.6540   -1.1716 H   0  0  0  0  0  0  0  0  0  0  0  0
   -6.4947   -2.6296    0.8027 H   0  0  0  0  0  0  0  0  0  0  0  0
   -5.0951   -4.2609   -0.4107 H   0  0  0  0  0  0  0  0  0  0  0  0
    7.4144   -1.0043    1.0246 H   0  0  0  0  0  0  0  0  0  0  0  0
    7.4843   -1.0326   -0.7436 H   0  0  0  0  0  0  0  0  0  0  0  0
    7.5649   -3.3858    1.0150 H   0  0  0  0  0  0  0  0  0  0  0  0
    8.8465   -2.7067    0.2695 H   0  0  0  0  0  0  0  0  0  0  0  0
  1 16  2  0  0  0  0
  2 17  2  0  0  0  0
  3  9  1  0  0  0  0
  3 12  1  0  0  0  0
  3 27  1  0  0  0  0
  4 10  1  0  0  0  0
  4 11  1  0  0  0  0
  4 26  1  0  0  0  0
  5 16  1  0  0  0  0
  5 17  1  0  0  0  0
  5 31  1  0  0  0  0
  6 15  1  0  0  0  0
  6 18  1  0  0  0  0
  6 32  1  0  0  0  0
  7 23  1  0  0  0  0
  7 41  1  0  0  0  0
  7 42  1  0  0  0  0
  8  9  1  0  0  0  0
  8 10  2  0  0  0  0
  8 16  1  0  0  0  0
  9 14  2  0  0  0  0
 10 17  1  0  0  0  0
 11 15  1  0  0  0  0
 11 24  1  0  0  0  0
 11 25  1  0  0  0  0
 12 13  1  0  0  0  0
 12 19  2  0  0  0  0
 13 14  1  0  0  0  0
 13 20  2  0  0  0  0
 14 28  1  0  0  0  0
 15 29  1  0  0  0  0
 15 30  1  0  0  0  0
 18 23  1  0  0  0  0
 18 33  1  0  0  0  0
 18 34  1  0  0  0  0
 19 21  1  0  0  0  0
 19 35  1  0  0  0  0
 20 22  1  0  0  0  0
 20 36  1  0  0  0  0
 21 22  2  0  0  0  0
 21 37  1  0  0  0  0
 22 38  1  0  0  0  0
 23 39  1  0  0  0  0
 23 40  1  0  0  0  0
M  END
> <PUBCHEM_COMPOUND_CID>
44328745

> <PUBCHEM_CONFORMER_RMSD>
0.8

> <PUBCHEM_CONFORMER_DIVERSEORDER>
1
111
88
116
75
10
117
74
38
72
109
103
60
97
114
52
9
29
45
14
55
58
50
51
93
26
5
105
17
36
20
65
57
86
6
47
34
23
59
102
61
91
56
82
90
119
68
42
28
80
85
108
63
31
73
54
25
98
35
16
76
48
101
94
113
67
95
87
92
70
32
96
43
77
78
66
71
81
30
107
112
40
62
110
53
21
46
49
83
19
37
3
99
79
2
8
24
115
22
27
7
69
118
12
84
89
4
39
64
15
100
44
18
104
11
13
106
33
41

> <PUBCHEM_MMFF94_PARTIAL_CHARGES>
33
1 -0.57
10 0.11
11 0.37
12 -0.15
14 -0.15
15 0.27
16 0.62
17 0.62
18 0.27
19 -0.15
2 -0.57
20 -0.15
21 -0.15
22 -0.15
23 0.27
26 0.4
27 0.27
28 0.15
3 0.03
31 0.37
32 0.36
35 0.15
36 0.15
37 0.15
38 0.15
4 -0.87
41 0.36
42 0.36
5 -0.49
6 -0.9
7 -0.99
8 0.06
9 -0.2

> <PUBCHEM_EFFECTIVE_ROTOR_COUNT>
7.2

> <PUBCHEM_PHARMACOPHORE_FEATURES>
14
1 1 acceptor
1 2 acceptor
1 3 cation
1 3 donor
1 4 cation
1 4 donor
1 5 donor
1 6 cation
1 6 donor
1 7 cation
1 7 donor
5 3 9 12 13 14 rings
5 5 8 10 16 17 rings
6 12 13 19 20 21 22 rings

> <PUBCHEM_HEAVY_ATOM_COUNT>
23

> <PUBCHEM_ATOM_DEF_STEREO_COUNT>
0

> <PUBCHEM_ATOM_UDEF_STEREO_COUNT>
0

> <PUBCHEM_BOND_DEF_STEREO_COUNT>
0

> <PUBCHEM_BOND_UDEF_STEREO_COUNT>
0

> <PUBCHEM_ISOTOPIC_ATOM_COUNT>
0

> <PUBCHEM_COMPONENT_COUNT>
1

> <PUBCHEM_CACTVS_TAUTO_COUNT>
8

> <PUBCHEM_CONFORMER_ID>
02A4672900000001

> <PUBCHEM_MMFF94_ENERGY>
31.6956

> <PUBCHEM_FEATURE_SELFOVERLAP>
71.14

> <PUBCHEM_SHAPE_FINGERPRINT>
10050765 1 18410293618847060948
10411042 1 18410293639788088589
10622 236 17678723554575153850
11809386 21 18187921717176607058
12107183 9 18341907285870357873
12166972 35 17749392581290720374
12553582 1 18336532893728383803
12760667 363 18412820283344418431
13140716 1 18342742940145526673
13533116 47 17979073014265673091
13540713 4 18338497716860516664
13540713 5 18264227896964169628
13631057 29 18335981978990607682
13911852 28 18339640169686589775
13955234 65 17765437930167737361
14117953 113 18343301457703261631
14420673 8 18409733967385993819
14429380 30 18408325510244431018
14844126 61 18337392617342151616
14866123 147 18339646642539752753
15042514 8 18339362959248673364
15250474 111 17971743373444587810
15352361 1 18410855494630675790
15442244 35 18196942282654338009
16110190 28 18201719600209995998
16120349 21 18342467997623571809
16992752 21 18411149039319680292
17492 89 18050850219779711827
17780758 139 17988926643340040938
19246450 95 18197517159895328875
20832881 197 18262238927947670731
21478907 32 18410575119418956397
22950370 63 18338240465282090302
23559900 14 18194956564395767459
3004659 81 17968092045187887542
335352 9 18410572864998781421
3421961 26 18268147745736171752
397830 11 18201422668400134258
4409770 3 18190737540786050261
484985 159 18263637386067537415
5104073 3 17914068735753759195
559249 180 18410856551704391979
56633871 153 18272090538958050039
6058803 2 17768541830687485815
636775 72 8285899265504502806
77188 2 18338234972051444244
7970288 3 18410008866604471234
9709674 26 17831300867526755539

> <PUBCHEM_SHAPE_MULTIPOLES>
436.69
14.98
4.76
0.69
27.35
2.6
0
-22.07
2.08
-0.32
-0.23
-0.38
-0.16
-0.39

> <PUBCHEM_SHAPE_SELFOVERLAP>
942.99

> <PUBCHEM_SHAPE_VOLUME>
241.9

> <PUBCHEM_COORDINATE_TYPE>
2
5
10

$$$$
