22282869
  -OEChem-10052115183D

 43 45  0     1  0  0  0  0  0999 V2000
   -3.4055   -2.1345   -0.7729 O   0  0  0  0  0  0  0  0  0  0  0  0
   -5.8345   -2.1426   -0.0734 O   0  0  0  0  0  0  0  0  0  0  0  0
   -3.0458    0.1411   -0.4759 N   0  0  0  0  0  0  0  0  0  0  0  0
    0.6354    0.6561   -0.4011 N   0  0  0  0  0  0  0  0  0  0  0  0
    1.4059   -0.8611    1.2647 N   0  0  0  0  0  0  0  0  0  0  0  0
    5.0950   -0.6917   -0.3742 N   0  0  0  0  0  0  0  0  0  0  0  0
    3.7144   -1.6279    1.3669 N   0  0  0  0  0  0  0  0  0  0  0  0
   -0.7074    0.6370    0.1408 C   0  0  1  0  0  0  0  0  0  0  0  0
   -1.1316    2.0545    0.5825 C   0  0  1  0  0  0  0  0  0  0  0  0
   -2.6141    2.0614    0.9967 C   0  0  0  0  0  0  0  0  0  0  0  0
   -1.6560    0.0826   -0.9275 C   0  0  0  0  0  0  0  0  0  0  0  0
   -3.5062    1.4802   -0.0971 C   0  0  0  0  0  0  0  0  0  0  0  0
   -0.2683    2.5740    1.7357 C   0  0  0  0  0  0  0  0  0  0  0  0
    1.6633   -0.0967    0.1780 C   0  0  0  0  0  0  0  0  0  0  0  0
   -3.8191   -1.0185   -0.4483 C   0  0  0  0  0  0  0  0  0  0  0  0
    0.9030    1.4957   -1.5673 C   0  0  0  0  0  0  0  0  0  0  0  0
    2.9519   -0.0695   -0.3533 C   0  0  0  0  0  0  0  0  0  0  0  0
   -5.2461   -0.8676    0.0148 C   0  0  0  0  0  0  0  0  0  0  0  0
    3.9064   -0.8498    0.2876 C   0  0  0  0  0  0  0  0  0  0  0  0
    3.6034    0.5742   -1.4364 C   0  0  0  0  0  0  0  0  0  0  0  0
    2.4335   -1.5696    1.7846 C   0  0  0  0  0  0  0  0  0  0  0  0
    4.9223    0.1727   -1.4247 C   0  0  0  0  0  0  0  0  0  0  0  0
   -0.7924   -0.0183    1.0179 H   0  0  0  0  0  0  0  0  0  0  0  0
   -1.0325    2.7682   -0.2437 H   0  0  0  0  0  0  0  0  0  0  0  0
   -2.7415    1.4725    1.9145 H   0  0  0  0  0  0  0  0  0  0  0  0
   -2.9364    3.0843    1.2242 H   0  0  0  0  0  0  0  0  0  0  0  0
   -1.3744   -0.9476   -1.1734 H   0  0  0  0  0  0  0  0  0  0  0  0
   -1.6194    0.6456   -1.8664 H   0  0  0  0  0  0  0  0  0  0  0  0
   -3.4659    2.1058   -0.9967 H   0  0  0  0  0  0  0  0  0  0  0  0
   -4.5421    1.4748    0.2464 H   0  0  0  0  0  0  0  0  0  0  0  0
   -0.3072    1.8982    2.5966 H   0  0  0  0  0  0  0  0  0  0  0  0
    0.7784    2.6805    1.4337 H   0  0  0  0  0  0  0  0  0  0  0  0
   -0.6152    3.5593    2.0653 H   0  0  0  0  0  0  0  0  0  0  0  0
    1.6172    2.2898   -1.3283 H   0  0  0  0  0  0  0  0  0  0  0  0
    1.2003    0.8899   -2.4291 H   0  0  0  0  0  0  0  0  0  0  0  0
    0.0116    2.0294   -1.9134 H   0  0  0  0  0  0  0  0  0  0  0  0
   -5.2722   -0.5304    1.0543 H   0  0  0  0  0  0  0  0  0  0  0  0
   -5.7874   -0.1800   -0.6403 H   0  0  0  0  0  0  0  0  0  0  0  0
    3.2451    1.2609   -2.1851 H   0  0  0  0  0  0  0  0  0  0  0  0
    5.9647   -1.1425   -0.1261 H   0  0  0  0  0  0  0  0  0  0  0  0
    2.1942   -2.1715    2.6546 H   0  0  0  0  0  0  0  0  0  0  0  0
    5.7522    0.4250   -2.0698 H   0  0  0  0  0  0  0  0  0  0  0  0
   -6.7550   -2.0574    0.2279 H   0  0  0  0  0  0  0  0  0  0  0  0
  1 15  2  0  0  0  0
  2 18  1  0  0  0  0
  2 43  1  0  0  0  0
  3 11  1  0  0  0  0
  3 12  1  0  0  0  0
  3 15  1  0  0  0  0
  4  8  1  0  0  0  0
  4 14  1  0  0  0  0
  4 16  1  0  0  0  0
  5 14  2  0  0  0  0
  5 21  1  0  0  0  0
  6 19  1  0  0  0  0
  6 22  1  0  0  0  0
  6 40  1  0  0  0  0
  7 19  1  0  0  0  0
  7 21  2  0  0  0  0
  8  9  1  0  0  0  0
  8 11  1  0  0  0  0
  8 23  1  0  0  0  0
  9 10  1  0  0  0  0
  9 13  1  0  0  0  0
  9 24  1  0  0  0  0
 10 12  1  0  0  0  0
 10 25  1  0  0  0  0
 10 26  1  0  0  0  0
 11 27  1  0  0  0  0
 11 28  1  0  0  0  0
 12 29  1  0  0  0  0
 12 30  1  0  0  0  0
 13 31  1  0  0  0  0
 13 32  1  0  0  0  0
 13 33  1  0  0  0  0
 14 17  1  0  0  0  0
 15 18  1  0  0  0  0
 16 34  1  0  0  0  0
 16 35  1  0  0  0  0
 16 36  1  0  0  0  0
 17 19  2  0  0  0  0
 17 20  1  0  0  0  0
 18 37  1  0  0  0  0
 18 38  1  0  0  0  0
 20 22  2  0  0  0  0
 20 39  1  0  0  0  0
 21 41  1  0  0  0  0
 22 42  1  0  0  0  0
M  END
> <PUBCHEM_COMPOUND_CID>
22282869

> <PUBCHEM_CONFORMER_RMSD>
0.8

> <PUBCHEM_CONFORMER_DIVERSEORDER>
2
47
119
71
101
14
50
67
133
73
76
127
40
41
102
28
89
131
42
69
77
134
75
78
92
136
24
137
46
38
84
124
105
23
29
19
79
4
107
112
44
48
110
120
57
25
104
32
109
99
59
26
51
93
95
91
90
103
7
94
49
27
125
135
9
68
83
52
34
58
56
80
22
86
39
87
72
3
106
8
60
88
30
108
53
128
130
113
15
11
132
96
45
13
21
129
36
85
100
81
1
55
98
97
16
37
63
115
20
6
35
10
62
122
12
117
43
74
64
5
65
66
111
54
126
33
18
70
31
17
82
61
114
121
116
118
123

> <PUBCHEM_MMFF94_PARTIAL_CHARGES>
23
1 -0.57
11 0.3
12 0.3
14 0.41
15 0.57
16 0.37
18 0.34
19 0.11
2 -0.68
20 -0.15
21 0.47
22 -0.3
3 -0.66
39 0.15
4 -0.84
40 0.27
41 0.15
42 0.15
43 0.4
5 -0.62
6 0.03
7 -0.57
8 0.37

> <PUBCHEM_EFFECTIVE_ROTOR_COUNT>
5.2

> <PUBCHEM_PHARMACOPHORE_FEATURES>
10
1 1 acceptor
1 2 acceptor
1 2 donor
1 6 cation
1 6 donor
3 4 5 14 cation
3 5 7 21 cation
5 6 17 19 20 22 rings
6 3 8 9 10 11 12 rings
6 5 7 14 17 19 21 rings

> <PUBCHEM_HEAVY_ATOM_COUNT>
22

> <PUBCHEM_ATOM_DEF_STEREO_COUNT>
0

> <PUBCHEM_ATOM_UDEF_STEREO_COUNT>
2

> <PUBCHEM_BOND_DEF_STEREO_COUNT>
0

> <PUBCHEM_BOND_UDEF_STEREO_COUNT>
0

> <PUBCHEM_ISOTOPIC_ATOM_COUNT>
0

> <PUBCHEM_COMPONENT_COUNT>
1

> <PUBCHEM_CACTVS_TAUTO_COUNT>
3

> <PUBCHEM_CONFORMER_ID>
0154027500000002

> <PUBCHEM_MMFF94_ENERGY>
60.3217

> <PUBCHEM_FEATURE_SELFOVERLAP>
50.994

> <PUBCHEM_SHAPE_FINGERPRINT>
10366900 7 16987710204046600453
11045515 52 17894348865275405117
11370993 144 14979960267806040727
11552529 35 13037745592135987741
11578080 2 18118091780530412556
11725454 13 14707765255164763092
11796584 16 18409167719092439543
12236239 1 18334581213407439332
12553582 1 18201146741740616751
12596602 18 18411139134634855148
12616971 3 17822857455284772016
12633257 1 17916881235058092235
12714826 92 18412535497338280101
12788726 201 18412267216358522299
12824470 246 18334006177616390041
13009979 54 18193265296427160186
13103583 49 18126029233176959939
13167823 11 18261111846275871167
13583140 156 16987702499328731230
13631057 29 18116722995911611074
13760787 19 18261957345158959989
13911987 19 16661512708446675158
14251757 5 18337394954010855047
14576447 43 18113898277572590926
14787075 74 18124308569824020736
15527383 91 14333414449593506290
15537594 2 18334015029803034635
15806764 133 16487253236321718608
16752209 62 18270951371991499991
17134984 74 17386281129507524115
17138139 8 18116144661390993859
17349148 13 17458622285933718920
18222031 100 17703217508002399533
200 152 17967818227673570541
20281475 54 18261386690076180314
20645477 70 16660360342872382130
21033648 29 16128366031018427667
21054139 6 18186801383563334010
22950370 63 18343306989436106047
2297311 6 17988936560372002501
23557571 272 17489038067039020237
23559900 14 17701827579276145748
238078 22 18412548729715534209
314173 85 17775280573717924905
3411729 13 17629754836525152849
351380 3 18410292540683143159
465052 167 18128261275919530567
474 4 18115314500785658708
5104073 3 18060697273564975024
602551 16 17989485221243763750
6913067 236 16950555615006588612
77492 1 18263086530805539312
7970288 3 18201153351606219087
8863177 126 18048040963492165483

> <PUBCHEM_SHAPE_MULTIPOLES>
416.11
10.88
2.31
1.52
2.97
0.42
-0.27
-6.48
2.17
2.38
-0.83
-1.34
0.21
-1.76

> <PUBCHEM_SHAPE_SELFOVERLAP>
887.861

> <PUBCHEM_SHAPE_VOLUME>
228

> <PUBCHEM_COORDINATE_TYPE>
2
5
10

$$$$
