49830813
  -OEChem-10052115183D

 42 45  0     0  0  0  0  0  0999 V2000
    1.4705    2.0915    0.2441 S   0  0  0  0  0  0  0  0  0  0  0  0
   -6.5830   -0.0425    0.4191 S   0  0  0  0  0  0  0  0  0  0  0  0
    6.5973    1.4758    0.0829 O   0  0  0  0  0  0  0  0  0  0  0  0
    1.3529   -2.3784    0.5066 N   0  0  0  0  0  0  0  0  0  0  0  0
   -5.1278    0.0512   -1.7084 N   0  0  0  0  0  0  0  0  0  0  0  0
   -1.0060   -2.2676    0.5999 N   0  0  0  0  0  0  0  0  0  0  0  0
    7.4173   -0.3825   -1.0466 N   0  0  0  0  0  0  0  0  0  0  0  0
   -0.7212    0.7799    0.4124 C   0  0  0  0  0  0  0  0  0  0  0  0
    0.3141   -0.2136    0.4257 C   0  0  0  0  0  0  0  0  0  0  0  0
   -2.1426    0.5837    0.4826 C   0  0  0  0  0  0  0  0  0  0  0  0
    1.5793    0.3739    0.3385 C   0  0  0  0  0  0  0  0  0  0  0  0
   -0.2322    2.0613    0.3180 C   0  0  0  0  0  0  0  0  0  0  0  0
   -2.8767    0.4195   -0.6956 C   0  0  0  0  0  0  0  0  0  0  0  0
    2.7434   -0.4039    0.3342 C   0  0  0  0  0  0  0  0  0  0  0  0
    0.2387   -1.6130    0.5094 C   0  0  0  0  0  0  0  0  0  0  0  0
   -4.2738    0.2270   -0.6294 C   0  0  0  0  0  0  0  0  0  0  0  0
   -2.7770    0.5588    1.7197 C   0  0  0  0  0  0  0  0  0  0  0  0
   -4.8894    0.2058    0.6258 C   0  0  0  0  0  0  0  0  0  0  0  0
   -4.1583    0.3700    1.8133 C   0  0  0  0  0  0  0  0  0  0  0  0
    2.5529   -1.7717    0.4210 C   0  0  0  0  0  0  0  0  0  0  0  0
    4.0565    0.2000    0.2389 C   0  0  0  0  0  0  0  0  0  0  0  0
   -6.3579   -0.0992   -1.2756 C   0  0  0  0  0  0  0  0  0  0  0  0
   -7.5309   -0.3107   -2.1512 C   0  0  0  0  0  0  0  0  0  0  0  0
    5.1389   -0.3618   -0.3532 C   0  0  0  0  0  0  0  0  0  0  0  0
    6.4427    0.3594   -0.4011 C   0  0  0  0  0  0  0  0  0  0  0  0
    8.7723    0.0871   -1.2309 C   0  0  0  0  0  0  0  0  0  0  0  0
   -0.7866    2.9901    0.2878 H   0  0  0  0  0  0  0  0  0  0  0  0
   -2.3866    0.4368   -1.6662 H   0  0  0  0  0  0  0  0  0  0  0  0
   -2.2071    0.6852    2.6383 H   0  0  0  0  0  0  0  0  0  0  0  0
   -4.6469    0.3513    2.7826 H   0  0  0  0  0  0  0  0  0  0  0  0
    3.3896   -2.4648    0.4369 H   0  0  0  0  0  0  0  0  0  0  0  0
    4.1644    1.1834    0.6893 H   0  0  0  0  0  0  0  0  0  0  0  0
   -1.0043   -3.2778    0.6581 H   0  0  0  0  0  0  0  0  0  0  0  0
   -1.8868   -1.7826    0.6089 H   0  0  0  0  0  0  0  0  0  0  0  0
   -8.0168   -1.2674   -1.9336 H   0  0  0  0  0  0  0  0  0  0  0  0
   -8.2650    0.4918   -2.0260 H   0  0  0  0  0  0  0  0  0  0  0  0
   -7.2277   -0.3232   -3.2033 H   0  0  0  0  0  0  0  0  0  0  0  0
    5.0813   -1.3380   -0.8241 H   0  0  0  0  0  0  0  0  0  0  0  0
    7.1893   -1.2967   -1.4263 H   0  0  0  0  0  0  0  0  0  0  0  0
    8.9577    1.0012   -0.6621 H   0  0  0  0  0  0  0  0  0  0  0  0
    9.4545   -0.7005   -0.9020 H   0  0  0  0  0  0  0  0  0  0  0  0
    8.9249    0.2767   -2.2962 H   0  0  0  0  0  0  0  0  0  0  0  0
  1 11  1  0  0  0  0
  1 12  1  0  0  0  0
  2 18  1  0  0  0  0
  2 22  1  0  0  0  0
  3 25  2  0  0  0  0
  4 15  2  0  0  0  0
  4 20  1  0  0  0  0
  5 16  1  0  0  0  0
  5 22  2  0  0  0  0
  6 15  1  0  0  0  0
  6 33  1  0  0  0  0
  6 34  1  0  0  0  0
  7 25  1  0  0  0  0
  7 26  1  0  0  0  0
  7 39  1  0  0  0  0
  8  9  1  0  0  0  0
  8 10  1  0  0  0  0
  8 12  2  0  0  0  0
  9 11  2  0  0  0  0
  9 15  1  0  0  0  0
 10 13  2  0  0  0  0
 10 17  1  0  0  0  0
 11 14  1  0  0  0  0
 12 27  1  0  0  0  0
 13 16  1  0  0  0  0
 13 28  1  0  0  0  0
 14 20  2  0  0  0  0
 14 21  1  0  0  0  0
 16 18  2  0  0  0  0
 17 19  2  0  0  0  0
 17 29  1  0  0  0  0
 18 19  1  0  0  0  0
 19 30  1  0  0  0  0
 20 31  1  0  0  0  0
 21 24  2  3  0  0  0
 21 32  1  0  0  0  0
 22 23  1  0  0  0  0
 23 35  1  0  0  0  0
 23 36  1  0  0  0  0
 23 37  1  0  0  0  0
 24 25  1  0  0  0  0
 24 38  1  0  0  0  0
 26 40  1  0  0  0  0
 26 41  1  0  0  0  0
 26 42  1  0  0  0  0
M  END
> <PUBCHEM_COMPOUND_CID>
49830813

> <PUBCHEM_CONFORMER_RMSD>
0.8

> <PUBCHEM_CONFORMER_DIVERSEORDER>
1
4
5
3
2

> <PUBCHEM_MMFF94_PARTIAL_CHARGES>
35
1 -0.08
10 0.05
11 0.04
12 -0.11
13 -0.15
14 0.03
15 0.41
16 0.23
17 -0.15
18 0.04
19 -0.15
2 -0.08
20 0.16
21 -0.18
22 0.2
23 0.18
24 -0.14
25 0.62
26 0.3
27 0.15
28 0.15
29 0.15
3 -0.57
30 0.15
31 0.15
32 0.15
33 0.4
34 0.4
38 0.15
39 0.37
4 -0.62
5 -0.57
6 -0.9
7 -0.73
8 -0.05

> <PUBCHEM_EFFECTIVE_ROTOR_COUNT>
4

> <PUBCHEM_PHARMACOPHORE_FEATURES>
9
1 3 acceptor
1 5 acceptor
1 6 donor
1 7 donor
3 4 6 15 cation
5 1 8 9 11 12 rings
5 2 5 16 18 22 rings
6 10 13 16 17 18 19 rings
6 4 9 11 14 15 20 rings

> <PUBCHEM_HEAVY_ATOM_COUNT>
26

> <PUBCHEM_ATOM_DEF_STEREO_COUNT>
0

> <PUBCHEM_ATOM_UDEF_STEREO_COUNT>
0

> <PUBCHEM_BOND_DEF_STEREO_COUNT>
0

> <PUBCHEM_BOND_UDEF_STEREO_COUNT>
1

> <PUBCHEM_ISOTOPIC_ATOM_COUNT>
0

> <PUBCHEM_COMPONENT_COUNT>
1

> <PUBCHEM_CACTVS_TAUTO_COUNT>
7

> <PUBCHEM_CONFORMER_ID>
02F85B9D00000001

> <PUBCHEM_MMFF94_ENERGY>
66.7089

> <PUBCHEM_FEATURE_SELFOVERLAP>
45.808

> <PUBCHEM_SHAPE_FINGERPRINT>
10 15 17240484732433507922
10299344 5 17060624391142105468
10429389 143 16515688857853019948
10835480 77 16805321072010528525
11135926 11 18408610240326278275
11315181 36 16773799199598998745
11607047 74 16484131894846732745
11991303 11 18041008392299410858
12011746 2 18408604764363807888
12236239 1 17775564243692105345
12838862 33 18261945332889865544
13288520 33 16487254370535676785
13540713 4 18049442835962664080
13673619 4 14405180681703454923
13862211 1 18411978027573133602
13911987 19 18260829284846592327
13947920 75 17775564247296229463
14123256 10 18410576180291228588
14767858 380 18411420609495326516
14856354 85 16487257685802186045
15048467 5 14201396084162076052
15131766 46 16010742648755422238
15183329 4 18131635565335694470
15461852 350 16660369207574325643
15849732 13 17603590746651405990
16728433 281 17754432597239512773
17492 54 18408318878213247163
18681886 176 17418084438725758025
200 152 18343015572174484489
2026 5 17415295936538682822
21150785 3 17846779620212429910
21267235 1 17489867168153093757
21792961 116 17749391430207459344
2297311 6 15698281110216371403
23035841 295 17132396111655593116
23198884 109 17275108327532414914
23522609 53 17416152592760102912
23536379 177 16200157565049507952
23559900 14 18200306765895593249
23569943 247 17486788385119576734
23576562 1 17969223515334803277
283562 15 18339367336226660320
3004659 81 17917136274415877789
3009799 131 17821727234451204660
3103668 31 18046911751385374203
335352 9 18410298034536749172
34797466 226 15554161571439163880
4325135 7 18131072619429028316
4339292 15 14836111144739095925
4340502 62 16298386851295383458
484989 97 18266740380197453387
5207 217 18259985980960881890
54039377 194 17775001349916365159
5486654 2 18408887334757742986
563151 97 18264209110918933785
57527295 17 18188195513284477409

> <PUBCHEM_SHAPE_MULTIPOLES>
516.97
20.68
1.7
1.43
18.52
0.22
0.3
0.5
11.95
1.05
-0.42
-2.37
0.11
-0.75

> <PUBCHEM_SHAPE_SELFOVERLAP>
1119.581

> <PUBCHEM_SHAPE_VOLUME>
287.3

> <PUBCHEM_COORDINATE_TYPE>
2
5
10

$$$$
