44460583
  -OEChem-10062122043D

 62 69  0     1  0  0  0  0  0999 V2000
    0.9815    1.9964    1.7426 O   0  0  0  0  0  0  0  0  0  0  0  0
    3.7768    1.9108   -0.7010 O   0  0  0  0  0  0  0  0  0  0  0  0
   -4.0202   -3.0097   -0.3665 O   0  0  0  0  0  0  0  0  0  0  0  0
   -6.4170    1.2269   -0.1438 O   0  0  0  0  0  0  0  0  0  0  0  0
    1.7786    0.0936    0.5992 N   0  0  0  0  0  0  0  0  0  0  0  0
   -0.9210    1.4122    0.5543 N   0  0  0  0  0  0  0  0  0  0  0  0
    1.1500    1.7665   -1.9104 N   0  0  0  0  0  0  0  0  0  0  0  0
   -2.1418   -4.3999   -0.4776 N   0  0  0  0  0  0  0  0  0  0  0  0
    2.1157    1.4363    1.0766 C   0  0  1  0  0  0  0  0  0  0  0  0
    2.6357    2.4098   -0.0180 C   0  0  2  0  0  0  0  0  0  0  0  0
   -0.0515    2.4972    0.9250 C   0  0  2  0  0  0  0  0  0  0  0  0
    1.5662    2.8497   -1.0219 C   0  0  2  0  0  0  0  0  0  0  0  0
    0.3867    3.4011   -0.2312 C   0  0  0  0  0  0  0  0  0  0  0  0
    0.5707   -0.5462    0.4002 C   0  0  0  0  0  0  0  0  0  0  0  0
   -0.7121    0.0760    0.3873 C   0  0  0  0  0  0  0  0  0  0  0  0
    0.5330   -1.9666    0.1256 C   0  0  0  0  0  0  0  0  0  0  0  0
   -1.8386   -0.8079    0.1348 C   0  0  0  0  0  0  0  0  0  0  0  0
    2.6809   -0.9620    0.3402 C   0  0  0  0  0  0  0  0  0  0  0  0
    3.1338    1.3818    2.2415 C   0  0  0  0  0  0  0  0  0  0  0  0
   -2.3041    1.5168    0.3922 C   0  0  0  0  0  0  0  0  0  0  0  0
    1.9709   -2.1799    0.1104 C   0  0  0  0  0  0  0  0  0  0  0  0
   -0.5599   -2.8048   -0.0775 C   0  0  0  0  0  0  0  0  0  0  0  0
   -1.7973   -2.1842   -0.0637 C   0  0  0  0  0  0  0  0  0  0  0  0
   -2.8747    0.2314    0.1571 C   0  0  0  0  0  0  0  0  0  0  0  0
   -0.7060   -4.2645   -0.3528 C   0  0  0  0  0  0  0  0  0  0  0  0
    4.0936   -0.9784    0.2912 C   0  0  0  0  0  0  0  0  0  0  0  0
   -2.8204   -3.1964   -0.3157 C   0  0  0  0  0  0  0  0  0  0  0  0
   -3.1127    2.6722    0.4427 C   0  0  0  0  0  0  0  0  0  0  0  0
    2.7128   -3.3674   -0.1238 C   0  0  0  0  0  0  0  0  0  0  0  0
   -4.2805    0.1704   -0.0222 C   0  0  0  0  0  0  0  0  0  0  0  0
    0.5340    2.2952   -3.1187 C   0  0  0  0  0  0  0  0  0  0  0  0
    4.6059    2.9645   -1.1741 C   0  0  0  0  0  0  0  0  0  0  0  0
    4.7860   -2.1684    0.0512 C   0  0  0  0  0  0  0  0  0  0  0  0
    4.1052   -3.3542   -0.1475 C   0  0  0  0  0  0  0  0  0  0  0  0
   -4.4903    2.5589    0.2616 C   0  0  0  0  0  0  0  0  0  0  0  0
   -5.0696    1.3229    0.0326 C   0  0  0  0  0  0  0  0  0  0  0  0
    2.9311    3.3216    0.5259 H   0  0  0  0  0  0  0  0  0  0  0  0
   -0.6461    3.1220    1.6024 H   0  0  0  0  0  0  0  0  0  0  0  0
    1.9799    3.6619   -1.6315 H   0  0  0  0  0  0  0  0  0  0  0  0
    0.7200    4.3508    0.2117 H   0  0  0  0  0  0  0  0  0  0  0  0
   -0.4609    3.6613   -0.8739 H   0  0  0  0  0  0  0  0  0  0  0  0
    2.8625    0.6052    2.9672 H   0  0  0  0  0  0  0  0  0  0  0  0
    3.1340    2.3295    2.7960 H   0  0  0  0  0  0  0  0  0  0  0  0
    4.1628    1.2126    1.9233 H   0  0  0  0  0  0  0  0  0  0  0  0
    1.9687    1.2203   -2.1788 H   0  0  0  0  0  0  0  0  0  0  0  0
   -0.2392   -4.5605   -1.2953 H   0  0  0  0  0  0  0  0  0  0  0  0
   -0.3605   -4.8826    0.4792 H   0  0  0  0  0  0  0  0  0  0  0  0
    4.6816   -0.0797    0.4274 H   0  0  0  0  0  0  0  0  0  0  0  0
   -2.6784    3.6524    0.6180 H   0  0  0  0  0  0  0  0  0  0  0  0
    2.1965   -4.3078   -0.2995 H   0  0  0  0  0  0  0  0  0  0  0  0
   -4.7638   -0.7819   -0.2084 H   0  0  0  0  0  0  0  0  0  0  0  0
   -2.6076   -5.2820   -0.6655 H   0  0  0  0  0  0  0  0  0  0  0  0
   -0.3896    2.8424   -2.9111 H   0  0  0  0  0  0  0  0  0  0  0  0
    0.2657    1.4605   -3.7746 H   0  0  0  0  0  0  0  0  0  0  0  0
    1.2194    2.9422   -3.6763 H   0  0  0  0  0  0  0  0  0  0  0  0
    5.4927    2.5127   -1.6280 H   0  0  0  0  0  0  0  0  0  0  0  0
    4.9384    3.6034   -0.3499 H   0  0  0  0  0  0  0  0  0  0  0  0
    4.1058    3.5591   -1.9423 H   0  0  0  0  0  0  0  0  0  0  0  0
    5.8723   -2.1577    0.0205 H   0  0  0  0  0  0  0  0  0  0  0  0
    4.6526   -4.2737   -0.3326 H   0  0  0  0  0  0  0  0  0  0  0  0
   -5.1067    3.4534    0.3014 H   0  0  0  0  0  0  0  0  0  0  0  0
   -6.6519    0.2949   -0.2923 H   0  0  0  0  0  0  0  0  0  0  0  0
  1  9  1  0  0  0  0
  1 11  1  0  0  0  0
  2 10  1  0  0  0  0
  2 32  1  0  0  0  0
  3 27  2  0  0  0  0
  4 36  1  0  0  0  0
  4 62  1  0  0  0  0
  5  9  1  0  0  0  0
  5 14  1  0  0  0  0
  5 18  1  0  0  0  0
  6 11  1  0  0  0  0
  6 15  1  0  0  0  0
  6 20  1  0  0  0  0
  7 12  1  0  0  0  0
  7 31  1  0  0  0  0
  7 45  1  0  0  0  0
  8 25  1  0  0  0  0
  8 27  1  0  0  0  0
  8 52  1  0  0  0  0
  9 10  1  0  0  0  0
  9 19  1  0  0  0  0
 10 12  1  0  0  0  0
 10 37  1  0  0  0  0
 11 13  1  0  0  0  0
 11 38  1  0  0  0  0
 12 13  1  0  0  0  0
 12 39  1  0  0  0  0
 13 40  1  0  0  0  0
 13 41  1  0  0  0  0
 14 15  2  0  0  0  0
 14 16  1  0  0  0  0
 15 17  1  0  0  0  0
 16 21  1  0  0  0  0
 16 22  2  0  0  0  0
 17 23  2  0  0  0  0
 17 24  1  0  0  0  0
 18 21  1  0  0  0  0
 18 26  2  0  0  0  0
 19 42  1  0  0  0  0
 19 43  1  0  0  0  0
 19 44  1  0  0  0  0
 20 24  2  0  0  0  0
 20 28  1  0  0  0  0
 21 29  2  0  0  0  0
 22 23  1  0  0  0  0
 22 25  1  0  0  0  0
 23 27  1  0  0  0  0
 24 30  1  0  0  0  0
 25 46  1  0  0  0  0
 25 47  1  0  0  0  0
 26 33  1  0  0  0  0
 26 48  1  0  0  0  0
 28 35  2  0  0  0  0
 28 49  1  0  0  0  0
 29 34  1  0  0  0  0
 29 50  1  0  0  0  0
 30 36  2  0  0  0  0
 30 51  1  0  0  0  0
 31 53  1  0  0  0  0
 31 54  1  0  0  0  0
 31 55  1  0  0  0  0
 32 56  1  0  0  0  0
 32 57  1  0  0  0  0
 32 58  1  0  0  0  0
 33 34  2  0  0  0  0
 33 59  1  0  0  0  0
 34 60  1  0  0  0  0
 35 36  1  0  0  0  0
 35 61  1  0  0  0  0
M  END
> <PUBCHEM_COMPOUND_CID>
44460583

> <PUBCHEM_CONFORMER_RMSD>
0.8

> <PUBCHEM_CONFORMER_DIVERSEORDER>
1
2

> <PUBCHEM_MMFF94_PARTIAL_CHARGES>
42
1 -0.56
10 0.28
11 0.54
12 0.27
14 -0.05
15 -0.05
16 -0.01
17 -0.01
18 -0.15
2 -0.56
20 -0.15
22 -0.14
23 0.09
25 0.44
26 -0.15
27 0.54
28 -0.15
29 -0.15
3 -0.57
30 -0.15
31 0.27
32 0.28
33 -0.15
34 -0.15
35 -0.15
36 0.08
4 -0.53
45 0.36
48 0.15
49 0.15
5 -0.04
50 0.15
51 0.15
52 0.37
59 0.15
6 -0.04
60 0.15
61 0.15
62 0.45
7 -0.9
8 -0.73
9 0.54

> <PUBCHEM_EFFECTIVE_ROTOR_COUNT>
3.2

> <PUBCHEM_PHARMACOPHORE_FEATURES>
17
1 1 acceptor
1 2 acceptor
1 3 acceptor
1 4 donor
1 5 cation
1 6 cation
1 7 cation
1 7 donor
1 8 donor
5 5 14 16 18 21 rings
5 6 15 17 20 24 rings
5 8 22 23 25 27 rings
6 1 9 10 11 12 13 rings
6 14 15 16 17 22 23 rings
6 18 21 26 29 33 34 rings
6 20 24 28 30 35 36 rings
7 1 5 6 9 11 14 15 rings

> <PUBCHEM_HEAVY_ATOM_COUNT>
36

> <PUBCHEM_ATOM_DEF_STEREO_COUNT>
3

> <PUBCHEM_ATOM_UDEF_STEREO_COUNT>
1

> <PUBCHEM_BOND_DEF_STEREO_COUNT>
0

> <PUBCHEM_BOND_UDEF_STEREO_COUNT>
0

> <PUBCHEM_ISOTOPIC_ATOM_COUNT>
0

> <PUBCHEM_COMPONENT_COUNT>
1

> <PUBCHEM_CACTVS_TAUTO_COUNT>
6

> <PUBCHEM_CONFORMER_ID>
02A66A2700000001

> <PUBCHEM_MMFF94_ENERGY>
149.4901

> <PUBCHEM_FEATURE_SELFOVERLAP>
87.427

> <PUBCHEM_SHAPE_FINGERPRINT>
10190108 129 17543105675552279379
10940486 97 18409731789747488470
1100329 8 18411981325739024491
11227688 84 17620754324566679198
11513181 2 18201720690641339454
11582403 64 16556470942085847864
12422481 6 18115847703748030840
12788726 201 17831859423111006553
13140716 1 18341317929667236050
13402501 40 18196369212993017971
14117953 113 18050567339651655559
14178342 30 18124295345429396984
14790565 3 18125164839883435281
15439362 3 18409166588846679468
16112460 7 18272103703639065123
16728300 4 16958706036726433746
17492 54 17971217879715545852
18681886 176 18267017254577959314
19591789 44 18124593072446330355
20028762 73 17986943069141238591
20642791 178 18194697959661641377
20691752 17 17603575353251168570
20764821 26 18410852183205602967
20905425 154 18127138686957407446
21033648 29 18197762328822844273
22113638 7 18338515210003181454
22149856 69 18340217319909843665
22393880 68 18270130135748197828
23558518 356 18263354961845636355
23559900 14 18343293752420935066
244849 19 17345477175217114400
25019877 29 17629752384077864438
3178227 256 18267316326753022227
335352 9 18341328886144586559
338550 245 18336265742926125231
340366 18 18333731299609264853
350125 39 18411704275042651019
460360 51 18339378451754807987
469060 322 17618232710827555018
484989 97 18411135845170155539
57527306 92 16516266023847465278

> <PUBCHEM_SHAPE_MULTIPOLES>
697.46
8.97
5.87
1.38
5.64
3.74
-0.6
-0.86
0.05
-1.04
-1.39
-0.96
-1.5
-0.95

> <PUBCHEM_SHAPE_SELFOVERLAP>
1606.26

> <PUBCHEM_SHAPE_VOLUME>
357.3

> <PUBCHEM_COORDINATE_TYPE>
2
5
10

$$$$
