25002232
  -OEChem-10052120443D

 58 62  0     0  0  0  0  0  0999 V2000
   -0.3897   -4.2519    1.8002 F   0  0  0  0  0  0  0  0  0  0  0  0
    1.2139   -4.0988   -1.1212 O   0  0  0  0  0  0  0  0  0  0  0  0
   -5.3023    3.4002    1.1433 O   0  0  0  0  0  0  0  0  0  0  0  0
    1.9214   -2.2853    0.1706 N   0  0  0  0  0  0  0  0  0  0  0  0
    3.6735   -0.0780    0.1900 N   0  0  0  0  0  0  0  0  0  0  0  0
   -5.0724    0.3155   -0.5714 N   0  0  0  0  0  0  0  0  0  0  0  0
   -5.5518    1.3759    0.1125 N   0  0  0  0  0  0  0  0  0  0  0  0
    5.8174    0.7712   -0.1836 N   0  0  0  0  0  0  0  0  0  0  0  0
    3.9745    2.2339    0.3371 N   0  0  0  0  0  0  0  0  0  0  0  0
   -1.4330    1.3615   -0.9863 C   0  0  0  0  0  0  0  0  0  0  0  0
   -0.6992    2.6986   -0.8512 C   0  0  0  0  0  0  0  0  0  0  0  0
   -2.8685    1.4253   -0.5442 C   0  0  0  0  0  0  0  0  0  0  0  0
   -1.0329    3.3765    0.4719 C   0  0  0  0  0  0  0  0  0  0  0  0
   -2.5375    3.6265    0.5962 C   0  0  0  0  0  0  0  0  0  0  0  0
   -3.3724    2.4546    0.1521 C   0  0  0  0  0  0  0  0  0  0  0  0
    3.3422   -2.5060   -0.0793 C   0  0  0  0  0  0  0  0  0  0  0  0
    1.6459   -1.1605    1.0676 C   0  0  0  0  0  0  0  0  0  0  0  0
    3.9866   -1.2449   -0.6519 C   0  0  0  0  0  0  0  0  0  0  0  0
    2.2537    0.1261    0.5121 C   0  0  0  0  0  0  0  0  0  0  0  0
   -3.8151    0.3269   -0.8782 C   0  0  0  0  0  0  0  0  0  0  0  0
   -3.2883   -0.8706   -1.6364 C   0  0  0  0  0  0  0  0  0  0  0  0
   -4.8139    2.4611    0.5170 C   0  0  0  0  0  0  0  0  0  0  0  0
    0.9715   -3.1349   -0.3966 C   0  0  0  0  0  0  0  0  0  0  0  0
   -2.5143   -1.7677   -0.7241 C   0  0  0  0  0  0  0  0  0  0  0  0
   -0.4464   -2.8647   -0.1264 C   0  0  0  0  0  0  0  0  0  0  0  0
    4.5286    1.0275    0.1110 C   0  0  0  0  0  0  0  0  0  0  0  0
   -1.1673   -2.0268   -0.9772 C   0  0  0  0  0  0  0  0  0  0  0  0
   -3.1404   -2.3465    0.3798 C   0  0  0  0  0  0  0  0  0  0  0  0
   -1.0725   -3.4435    0.9775 C   0  0  0  0  0  0  0  0  0  0  0  0
   -2.4197   -3.1844    1.2306 C   0  0  0  0  0  0  0  0  0  0  0  0
    6.6129    1.8588   -0.2524 C   0  0  0  0  0  0  0  0  0  0  0  0
    4.8265    3.2765    0.2523 C   0  0  0  0  0  0  0  0  0  0  0  0
    6.1687    3.1480   -0.0416 C   0  0  0  0  0  0  0  0  0  0  0  0
   -1.3480    1.0474   -2.0307 H   0  0  0  0  0  0  0  0  0  0  0  0
   -0.9085    0.6301   -0.3637 H   0  0  0  0  0  0  0  0  0  0  0  0
    0.3818    2.5384   -0.9304 H   0  0  0  0  0  0  0  0  0  0  0  0
   -0.9837    3.3592   -1.6802 H   0  0  0  0  0  0  0  0  0  0  0  0
   -0.6943    2.7426    1.3016 H   0  0  0  0  0  0  0  0  0  0  0  0
   -0.4929    4.3263    0.5560 H   0  0  0  0  0  0  0  0  0  0  0  0
   -2.8110    4.4979   -0.0118 H   0  0  0  0  0  0  0  0  0  0  0  0
   -2.7587    3.8785    1.6400 H   0  0  0  0  0  0  0  0  0  0  0  0
    3.8041   -2.7717    0.8793 H   0  0  0  0  0  0  0  0  0  0  0  0
    3.4937   -3.3467   -0.7638 H   0  0  0  0  0  0  0  0  0  0  0  0
    0.5757   -1.0189    1.2315 H   0  0  0  0  0  0  0  0  0  0  0  0
    2.0944   -1.4065    2.0379 H   0  0  0  0  0  0  0  0  0  0  0  0
    5.0640   -1.4324   -0.7220 H   0  0  0  0  0  0  0  0  0  0  0  0
    3.6144   -1.0600   -1.6675 H   0  0  0  0  0  0  0  0  0  0  0  0
    2.1191    0.9088    1.2680 H   0  0  0  0  0  0  0  0  0  0  0  0
    1.7213    0.4335   -0.3960 H   0  0  0  0  0  0  0  0  0  0  0  0
   -4.1318   -1.4356   -2.0545 H   0  0  0  0  0  0  0  0  0  0  0  0
   -2.7008   -0.5454   -2.5005 H   0  0  0  0  0  0  0  0  0  0  0  0
   -0.6754   -1.5817   -1.8390 H   0  0  0  0  0  0  0  0  0  0  0  0
   -6.5419    1.3226    0.3292 H   0  0  0  0  0  0  0  0  0  0  0  0
   -4.1910   -2.1638    0.5876 H   0  0  0  0  0  0  0  0  0  0  0  0
   -2.9073   -3.6371    2.0888 H   0  0  0  0  0  0  0  0  0  0  0  0
    7.6523    1.6585   -0.4895 H   0  0  0  0  0  0  0  0  0  0  0  0
    4.3856    4.2510    0.4334 H   0  0  0  0  0  0  0  0  0  0  0  0
    6.8293    4.0024   -0.1031 H   0  0  0  0  0  0  0  0  0  0  0  0
  1 29  1  0  0  0  0
  2 23  2  0  0  0  0
  3 22  2  0  0  0  0
  4 16  1  0  0  0  0
  4 17  1  0  0  0  0
  4 23  1  0  0  0  0
  5 18  1  0  0  0  0
  5 19  1  0  0  0  0
  5 26  1  0  0  0  0
  6  7  1  0  0  0  0
  6 20  2  0  0  0  0
  7 22  1  0  0  0  0
  7 53  1  0  0  0  0
  8 26  2  0  0  0  0
  8 31  1  0  0  0  0
  9 26  1  0  0  0  0
  9 32  2  0  0  0  0
 10 11  1  0  0  0  0
 10 12  1  0  0  0  0
 10 34  1  0  0  0  0
 10 35  1  0  0  0  0
 11 13  1  0  0  0  0
 11 36  1  0  0  0  0
 11 37  1  0  0  0  0
 12 15  2  0  0  0  0
 12 20  1  0  0  0  0
 13 14  1  0  0  0  0
 13 38  1  0  0  0  0
 13 39  1  0  0  0  0
 14 15  1  0  0  0  0
 14 40  1  0  0  0  0
 14 41  1  0  0  0  0
 15 22  1  0  0  0  0
 16 18  1  0  0  0  0
 16 42  1  0  0  0  0
 16 43  1  0  0  0  0
 17 19  1  0  0  0  0
 17 44  1  0  0  0  0
 17 45  1  0  0  0  0
 18 46  1  0  0  0  0
 18 47  1  0  0  0  0
 19 48  1  0  0  0  0
 19 49  1  0  0  0  0
 20 21  1  0  0  0  0
 21 24  1  0  0  0  0
 21 50  1  0  0  0  0
 21 51  1  0  0  0  0
 23 25  1  0  0  0  0
 24 27  2  0  0  0  0
 24 28  1  0  0  0  0
 25 27  1  0  0  0  0
 25 29  2  0  0  0  0
 27 52  1  0  0  0  0
 28 30  2  0  0  0  0
 28 54  1  0  0  0  0
 29 30  1  0  0  0  0
 30 55  1  0  0  0  0
 31 33  2  0  0  0  0
 31 56  1  0  0  0  0
 32 33  1  0  0  0  0
 32 57  1  0  0  0  0
 33 58  1  0  0  0  0
M  END
> <PUBCHEM_COMPOUND_CID>
25002232

> <PUBCHEM_CONFORMER_RMSD>
1

> <PUBCHEM_CONFORMER_DIVERSEORDER>
1
68
128
115
52
77
105
33
69
129
132
119
65
100
102
111
93
27
79
101
46
35
89
26
109
73
43
94
56
71
37
117
39
72
113
98
24
20
137
9
41
135
83
123
82
11
122
81
63
114
108
99
66
50
126
75
31
21
103
19
55
23
17
25
7
116
125
45
78
40
124
80
53
85
42
54
107
95
51
59
76
88
4
18
121
38
48
58
3
91
86
36
130
70
6
106
62
84
133
47
112
92
96
49
14
87
110
22
74
136
8
97
13
2
60
29
67
127
120
64
104
16
118
15
90
12
131
44
57
30
28
61
10
5
134
32
34

> <PUBCHEM_MMFF94_PARTIAL_CHARGES>
38
1 -0.19
10 0.14
12 -0.12
14 0.14
15 -0.12
16 0.3
17 0.3
18 0.37
19 0.37
2 -0.57
20 0.37
21 0.2
22 0.62
23 0.54
24 -0.14
25 0.09
26 0.72
27 -0.15
28 -0.15
29 0.19
3 -0.57
30 -0.15
31 0.16
32 0.16
33 -0.15
4 -0.66
5 -0.84
52 0.15
53 0.37
54 0.15
55 0.15
56 0.15
57 0.15
58 0.15
6 -0.51
7 -0.37
8 -0.62
9 -0.62

> <PUBCHEM_EFFECTIVE_ROTOR_COUNT>
7

> <PUBCHEM_PHARMACOPHORE_FEATURES>
11
1 2 acceptor
1 3 acceptor
1 6 acceptor
1 7 donor
1 9 acceptor
4 5 8 9 26 cation
6 10 11 12 13 14 15 rings
6 24 25 27 28 29 30 rings
6 4 5 16 17 18 19 rings
6 6 7 12 15 20 22 rings
6 8 9 26 31 32 33 rings

> <PUBCHEM_HEAVY_ATOM_COUNT>
33

> <PUBCHEM_ATOM_DEF_STEREO_COUNT>
0

> <PUBCHEM_ATOM_UDEF_STEREO_COUNT>
0

> <PUBCHEM_BOND_DEF_STEREO_COUNT>
0

> <PUBCHEM_BOND_UDEF_STEREO_COUNT>
0

> <PUBCHEM_ISOTOPIC_ATOM_COUNT>
0

> <PUBCHEM_COMPONENT_COUNT>
1

> <PUBCHEM_CACTVS_TAUTO_COUNT>
2

> <PUBCHEM_CONFORMER_ID>
017D80F800000001

> <PUBCHEM_MMFF94_ENERGY>
91.8797

> <PUBCHEM_FEATURE_SELFOVERLAP>
55.842

> <PUBCHEM_SHAPE_FINGERPRINT>
10864689 126 18341610443327588560
11135609 187 18337091424851729797
11513181 2 18202002153133938606
12788726 201 18339910619112733040
1361 2 18336549317841845657
14114211 80 18130795551046720959
14347329 18 18340760550829268464
14363568 33 16893716627374790760
14747282 125 16900202638547462124
14790565 3 18339925888138799289
14840074 17 17894630370237713484
14849402 71 18119809101908132218
14904385 31 18411415124811761224
14932702 115 17983586479090382264
15142526 21 18262520282523223139
15297060 5 18272377494344360824
15320467 1 18339641260624574788
16112460 7 18341615867527788408
19611394 137 17466231146331678819
392239 28 18119821214290302883
4073 2 18338799035245212480
437795 96 17550374581256708400
4394409 98 13158217299370247662
463206 1 18336547234825229708
469060 322 16370996468657946102
50150288 127 16628868108790420521
5171179 24 17556849544617842448
56638632 10 18127984203178238345
57527585 21 18199448004818314567
5776283 40 18267604424632736774
6036956 94 18047752894928324421
6700243 42 17407434741315109158
7288768 16 18114180843518747147

> <PUBCHEM_SHAPE_MULTIPOLES>
630.23
12.98
6.38
1.14
14.26
1.43
-0.03
-13.74
0.12
-1.56
-1.51
-0.83
0.58
-0.21

> <PUBCHEM_SHAPE_SELFOVERLAP>
1374.797

> <PUBCHEM_SHAPE_VOLUME>
340.1

> <PUBCHEM_COORDINATE_TYPE>
2
5
10

$$$$
