16043304
  -OEChem-10062121563D

 47 49  0     1  0  0  0  0  0999 V2000
    5.4164    0.9220   -1.7537 Cl  0  0  0  0  0  0  0  0  0  0  0  0
    2.6879    4.7653    0.8453 Cl  0  0  0  0  0  0  0  0  0  0  0  0
   -1.6480   -0.6237   -0.8072 S   0  0  0  0  0  0  0  0  0  0  0  0
    1.1339   -0.8491   -1.7745 O   0  0  0  0  0  0  0  0  0  0  0  0
    2.0425   -1.7366    0.1391 N   0  0  0  0  0  0  0  0  0  0  0  0
    5.1249   -3.5110   -0.9848 N   0  0  0  0  0  0  0  0  0  0  0  0
   -4.3482    0.4368   -0.3993 N   0  0  0  0  0  0  0  0  0  0  0  0
   -6.6835    0.1333    0.1120 N   0  0  0  0  0  0  0  0  0  0  0  0
   -5.9815    1.8254   -1.3537 N   0  0  0  0  0  0  0  0  0  0  0  0
    3.3851   -1.8395   -0.3952 C   0  0  1  0  0  0  0  0  0  0  0  0
    4.3677   -0.9845    0.4281 C   0  0  0  0  0  0  0  0  0  0  0  0
    3.7893   -3.3208   -0.4307 C   0  0  0  0  0  0  0  0  0  0  0  0
    3.9622    0.4692    0.5058 C   0  0  0  0  0  0  0  0  0  0  0  0
    0.9859   -1.2339   -0.6133 C   0  0  0  0  0  0  0  0  0  0  0  0
    4.3963    1.3843   -0.4404 C   0  0  0  0  0  0  0  0  0  0  0  0
    3.1418    0.8552    1.5554 C   0  0  0  0  0  0  0  0  0  0  0  0
   -0.3224   -1.2236    0.0564 C   0  0  0  0  0  0  0  0  0  0  0  0
    4.0011    2.7178   -0.3354 C   0  0  0  0  0  0  0  0  0  0  0  0
    2.7466    2.1887    1.6605 C   0  0  0  0  0  0  0  0  0  0  0  0
   -0.6072   -1.6442    1.3085 C   0  0  0  0  0  0  0  0  0  0  0  0
    3.1762    3.1200    0.7150 C   0  0  0  0  0  0  0  0  0  0  0  0
   -2.6755   -0.9254    0.5290 C   0  0  0  0  0  0  0  0  0  0  0  0
   -1.9925   -1.4713    1.5934 C   0  0  0  0  0  0  0  0  0  0  0  0
   -4.0774   -0.5982    0.4192 C   0  0  0  0  0  0  0  0  0  0  0  0
   -5.0345   -1.3085    1.1096 C   0  0  0  0  0  0  0  0  0  0  0  0
   -5.6548    0.7452   -0.5052 C   0  0  0  0  0  0  0  0  0  0  0  0
   -6.3360   -0.8937    0.9153 C   0  0  0  0  0  0  0  0  0  0  0  0
   -4.9962    2.6008   -2.0991 C   0  0  0  0  0  0  0  0  0  0  0  0
    3.3866   -1.4656   -1.4266 H   0  0  0  0  0  0  0  0  0  0  0  0
    5.3926   -1.0670    0.0521 H   0  0  0  0  0  0  0  0  0  0  0  0
    4.4228   -1.3847    1.4511 H   0  0  0  0  0  0  0  0  0  0  0  0
    3.7503   -3.7545    0.5758 H   0  0  0  0  0  0  0  0  0  0  0  0
    3.0719   -3.8796   -1.0434 H   0  0  0  0  0  0  0  0  0  0  0  0
    1.9012   -2.0555    1.0910 H   0  0  0  0  0  0  0  0  0  0  0  0
    2.8015    0.1425    2.3014 H   0  0  0  0  0  0  0  0  0  0  0  0
    5.8238   -3.1417   -0.3421 H   0  0  0  0  0  0  0  0  0  0  0  0
    5.3179   -4.5095   -1.0567 H   0  0  0  0  0  0  0  0  0  0  0  0
    4.3350    3.4455   -1.0720 H   0  0  0  0  0  0  0  0  0  0  0  0
    2.1037    2.4878    2.4844 H   0  0  0  0  0  0  0  0  0  0  0  0
    0.0912   -2.0578    2.0231 H   0  0  0  0  0  0  0  0  0  0  0  0
   -2.4484   -1.7345    2.5398 H   0  0  0  0  0  0  0  0  0  0  0  0
   -4.8095   -2.1437    1.7605 H   0  0  0  0  0  0  0  0  0  0  0  0
   -7.1609   -1.3916    1.4138 H   0  0  0  0  0  0  0  0  0  0  0  0
   -6.9634    2.0619   -1.4362 H   0  0  0  0  0  0  0  0  0  0  0  0
   -4.2919    3.0876   -1.4177 H   0  0  0  0  0  0  0  0  0  0  0  0
   -5.5050    3.3770   -2.6782 H   0  0  0  0  0  0  0  0  0  0  0  0
   -4.4456    1.9596   -2.7943 H   0  0  0  0  0  0  0  0  0  0  0  0
  1 15  1  0  0  0  0
  2 21  1  0  0  0  0
  3 17  1  0  0  0  0
  3 22  1  0  0  0  0
  4 14  2  0  0  0  0
  5 10  1  0  0  0  0
  5 14  1  0  0  0  0
  5 34  1  0  0  0  0
  6 12  1  0  0  0  0
  6 36  1  0  0  0  0
  6 37  1  0  0  0  0
  7 24  2  0  0  0  0
  7 26  1  0  0  0  0
  8 26  2  0  0  0  0
  8 27  1  0  0  0  0
  9 26  1  0  0  0  0
  9 28  1  0  0  0  0
  9 44  1  0  0  0  0
 10 11  1  0  0  0  0
 10 12  1  0  0  0  0
 10 29  1  0  0  0  0
 11 13  1  0  0  0  0
 11 30  1  0  0  0  0
 11 31  1  0  0  0  0
 12 32  1  0  0  0  0
 12 33  1  0  0  0  0
 13 15  2  0  0  0  0
 13 16  1  0  0  0  0
 14 17  1  0  0  0  0
 15 18  1  0  0  0  0
 16 19  2  0  0  0  0
 16 35  1  0  0  0  0
 17 20  2  0  0  0  0
 18 21  2  0  0  0  0
 18 38  1  0  0  0  0
 19 21  1  0  0  0  0
 19 39  1  0  0  0  0
 20 23  1  0  0  0  0
 20 40  1  0  0  0  0
 22 23  2  0  0  0  0
 22 24  1  0  0  0  0
 23 41  1  0  0  0  0
 24 25  1  0  0  0  0
 25 27  2  0  0  0  0
 25 42  1  0  0  0  0
 27 43  1  0  0  0  0
 28 45  1  0  0  0  0
 28 46  1  0  0  0  0
 28 47  1  0  0  0  0
M  END
> <PUBCHEM_COMPOUND_CID>
16043304

> <PUBCHEM_CONFORMER_RMSD>
1

> <PUBCHEM_CONFORMER_DIVERSEORDER>
2
19
30
21
86
109
146
88
129
79
128
57
91
45
13
43
117
51
85
49
50
144
46
140
119
74
75
61
131
97
65
34
67
62
39
81
93
20
33
66
56
110
84
90
99
111
82
102
98
6
126
41
103
72
76
23
69
143
142
27
105
124
35
112
77
54
83
101
7
22
68
123
38
89
133
58
4
141
92
12
107
44
48
137
10
116
87
28
108
60
122
37
104
1
96
17
16
71
55
42
138
36
132
106
115
148
70
29
135
53
139
59
125
25
15
47
118
127
121
40
9
114
24
31
32
63
73
95
14
100
145
80
18
120
52
134
136
5
64
130
94
147
3
26
11
8
78
113

> <PUBCHEM_MMFF94_PARTIAL_CHARGES>
39
1 -0.18
10 0.3
11 0.14
12 0.27
13 -0.14
14 0.71
15 0.18
16 -0.15
17 -0.05
18 -0.15
19 -0.15
2 -0.18
20 -0.15
21 0.18
22 -0.01
23 -0.15
24 0.36
25 -0.15
26 0.72
27 0.16
28 0.37
3 -0.08
34 0.37
35 0.15
36 0.36
37 0.36
38 0.15
39 0.15
4 -0.57
40 0.15
41 0.15
42 0.15
43 0.15
44 0.4
5 -0.73
6 -0.99
7 -0.62
8 -0.62
9 -0.87

> <PUBCHEM_EFFECTIVE_ROTOR_COUNT>
8

> <PUBCHEM_PHARMACOPHORE_FEATURES>
10
1 4 acceptor
1 5 donor
1 6 cation
1 6 donor
1 7 acceptor
1 9 donor
4 7 8 9 26 cation
5 3 17 20 22 23 rings
6 13 15 16 18 19 21 rings
6 7 8 24 25 26 27 rings

> <PUBCHEM_HEAVY_ATOM_COUNT>
28

> <PUBCHEM_ATOM_DEF_STEREO_COUNT>
1

> <PUBCHEM_ATOM_UDEF_STEREO_COUNT>
0

> <PUBCHEM_BOND_DEF_STEREO_COUNT>
0

> <PUBCHEM_BOND_UDEF_STEREO_COUNT>
0

> <PUBCHEM_ISOTOPIC_ATOM_COUNT>
0

> <PUBCHEM_COMPONENT_COUNT>
1

> <PUBCHEM_CACTVS_TAUTO_COUNT>
6

> <PUBCHEM_CONFORMER_ID>
00F4CD2800000002

> <PUBCHEM_MMFF94_ENERGY>
64.4931

> <PUBCHEM_FEATURE_SELFOVERLAP>
50.746

> <PUBCHEM_SHAPE_FINGERPRINT>
10165383 225 18189346822138449358
10763959 59 18410855442985495348
11595378 159 16153694423604093405
12166972 35 17703510991534025450
12403259 415 18187369796741393011
12422481 6 15358518762933090671
12596602 18 15791731944645364537
12616971 3 17203326681101722551
13533116 47 18413113852748821347
13561361 72 17822559534958205709
13583140 156 18340499974620854378
13878862 14 18338216211622921333
14068700 686 17906177600081972163
14251764 38 18412545384279597273
14739800 52 17823118083070574361
15183329 4 17203892972523635729
15419008 47 18188493467043231989
15629462 23 17550101459706148838
15975801 100 16591962876793393452
16067690 210 16298384639361781021
17844677 252 18341338795061315347
21033648 29 18260823825842744121
21133410 127 18043243754814676660
21279426 13 18262233309908784461
21315764 268 18409164407667106359
21344244 78 18200585896653733714
21388113 180 18265606757517412665
21475661 188 18335691784481206432
22289505 5 18412265017535648462
23559900 14 18411699859373614050
23569914 2 17684600560005480901
249057 3 18202563956378934254
2838139 119 18338503223266254173
3044373 193 18342740723931598967
328310 1195 18411975841329310645
3459 39 17023450964111789165
34797466 226 18412266130064566739
394071 54 14056721274753364364
4144715 1 18334023778577252003
44317340 157 18343578556361069267
44555599 121 18059305249717496465

> <PUBCHEM_SHAPE_MULTIPOLES>
553.04
16.14
4.31
1.65
21.08
2.9
0.25
3.7
2.94
-6.65
0.05
0.2
0.58
3.85

> <PUBCHEM_SHAPE_SELFOVERLAP>
1152.402

> <PUBCHEM_SHAPE_VOLUME>
317.4

> <PUBCHEM_COORDINATE_TYPE>
2
5
10

$$$$
