49831048
  -OEChem-10052115193D

 28 30  0     0  0  0  0  0  0999 V2000
    2.8074    0.6003    0.2031 N   0  0  0  0  0  0  0  0  0  0  0  0
    1.4517    0.5680    0.3239 N   0  0  0  0  0  0  0  0  0  0  0  0
    4.8995   -0.0628   -0.1890 N   0  0  0  0  0  0  0  0  0  0  0  0
    3.6370   -0.4397   -0.1744 C   0  0  0  0  0  0  0  0  0  0  0  0
    0.9322   -0.5899    0.0424 C   0  0  0  0  0  0  0  0  0  0  0  0
    3.0244   -1.6787   -0.4693 C   0  0  0  0  0  0  0  0  0  0  0  0
    1.6944   -1.7998   -0.3764 C   0  0  0  0  0  0  0  0  0  0  0  0
    3.6064    1.6883    0.4377 C   0  0  0  0  0  0  0  0  0  0  0  0
   -0.5266   -0.7954    0.1231 C   0  0  0  0  0  0  0  0  0  0  0  0
   -2.7894    0.2087   -0.0520 C   0  0  0  0  0  0  0  0  0  0  0  0
   -1.3174    0.2529   -0.1058 C   0  0  0  0  0  0  0  0  0  0  0  0
    4.8868    1.2551    0.1902 C   0  0  0  0  0  0  0  0  0  0  0  0
   -3.4314   -0.8187    0.6393 C   0  0  0  0  0  0  0  0  0  0  0  0
   -3.5405    1.1943   -0.6921 C   0  0  0  0  0  0  0  0  0  0  0  0
   -4.8248   -0.8605    0.6903 C   0  0  0  0  0  0  0  0  0  0  0  0
   -4.9338    1.1526   -0.6411 C   0  0  0  0  0  0  0  0  0  0  0  0
   -5.5760    0.1251    0.0501 C   0  0  0  0  0  0  0  0  0  0  0  0
    3.6380   -2.5206   -0.7696 H   0  0  0  0  0  0  0  0  0  0  0  0
    1.1838   -2.7292   -0.5951 H   0  0  0  0  0  0  0  0  0  0  0  0
    3.2051    2.6424    0.7497 H   0  0  0  0  0  0  0  0  0  0  0  0
   -0.8862   -1.7964    0.3268 H   0  0  0  0  0  0  0  0  0  0  0  0
   -0.9012    1.2261   -0.3557 H   0  0  0  0  0  0  0  0  0  0  0  0
    5.8007    1.8260    0.2655 H   0  0  0  0  0  0  0  0  0  0  0  0
   -2.8880   -1.5954    1.1692 H   0  0  0  0  0  0  0  0  0  0  0  0
   -3.0573    2.0020   -1.2366 H   0  0  0  0  0  0  0  0  0  0  0  0
   -5.3253   -1.6576    1.2323 H   0  0  0  0  0  0  0  0  0  0  0  0
   -5.5190    1.9199   -1.1396 H   0  0  0  0  0  0  0  0  0  0  0  0
   -6.6608    0.0932    0.0907 H   0  0  0  0  0  0  0  0  0  0  0  0
  1  2  1  0  0  0  0
  1  4  1  0  0  0  0
  1  8  1  0  0  0  0
  2  5  2  0  0  0  0
  3  4  2  0  0  0  0
  3 12  1  0  0  0  0
  4  6  1  0  0  0  0
  5  7  1  0  0  0  0
  5  9  1  0  0  0  0
  6  7  2  0  0  0  0
  6 18  1  0  0  0  0
  7 19  1  0  0  0  0
  8 12  2  0  0  0  0
  8 20  1  0  0  0  0
  9 11  2  3  0  0  0
  9 21  1  0  0  0  0
 10 11  1  0  0  0  0
 10 13  2  0  0  0  0
 10 14  1  0  0  0  0
 11 22  1  0  0  0  0
 12 23  1  0  0  0  0
 13 15  1  0  0  0  0
 13 24  1  0  0  0  0
 14 16  2  0  0  0  0
 14 25  1  0  0  0  0
 15 17  2  0  0  0  0
 15 26  1  0  0  0  0
 16 17  1  0  0  0  0
 16 27  1  0  0  0  0
 17 28  1  0  0  0  0
M  END
> <PUBCHEM_COMPOUND_CID>
49831048

> <PUBCHEM_CONFORMER_RMSD>
0.6

> <PUBCHEM_CONFORMER_DIVERSEORDER>
2
3
4
1

> <PUBCHEM_MMFF94_PARTIAL_CHARGES>
28
1 0.51
10 0.03
11 -0.18
12 0.08
13 -0.15
14 -0.15
15 -0.15
16 -0.15
17 -0.15
18 0.15
19 0.15
2 -0.65
20 0.15
21 0.15
22 0.15
23 0.15
24 0.15
25 0.15
26 0.15
27 0.15
28 0.15
3 -0.57
4 0.14
5 0.42
6 -0.11
7 -0.14
8 -0.3
9 -0.14

> <PUBCHEM_EFFECTIVE_ROTOR_COUNT>
2

> <PUBCHEM_PHARMACOPHORE_FEATURES>
5
1 2 acceptor
3 1 3 4 cation
5 1 3 4 8 12 rings
6 1 2 4 5 6 7 rings
6 10 13 14 15 16 17 rings

> <PUBCHEM_HEAVY_ATOM_COUNT>
17

> <PUBCHEM_ATOM_DEF_STEREO_COUNT>
0

> <PUBCHEM_ATOM_UDEF_STEREO_COUNT>
0

> <PUBCHEM_BOND_DEF_STEREO_COUNT>
0

> <PUBCHEM_BOND_UDEF_STEREO_COUNT>
1

> <PUBCHEM_ISOTOPIC_ATOM_COUNT>
0

> <PUBCHEM_COMPONENT_COUNT>
1

> <PUBCHEM_CACTVS_TAUTO_COUNT>
1

> <PUBCHEM_CONFORMER_ID>
02F85C8800000002

> <PUBCHEM_MMFF94_ENERGY>
42.689

> <PUBCHEM_FEATURE_SELFOVERLAP>
25.508

> <PUBCHEM_SHAPE_FINGERPRINT>
10 15 18262231244309395568
10014705 185 18187361005143571021
10912923 1 17561083584092973059
11128504 68 15913325822926959168
11287383 113 18409168822402973723
11471102 20 18343864403308395702
11595378 159 16660913401162900621
12107183 9 17480311071698298387
12236239 1 16774081760648417035
12730499 353 18411989065496925634
13081056 2 18410011035256299045
13760787 5 17561366153959088615
13955234 65 18273213067579231570
14341114 176 18409455777868769217
14528608 73 18272929448917363829
15196674 1 18410011005391832045
15375358 24 18333733515844200483
15961568 22 17531534277637129508
16079462 125 18187070746779548085
17834072 33 18131346427804739015
17844677 252 18341620274195784661
19489759 90 17240480312870027193
200 152 17917991659791267315
20279233 1 18260274035906747819
20645477 56 18259984864712353637
20645477 70 18201440220818753334
21033648 29 18339910572280160273
21065201 7 17530966843689766739
22289505 5 18341889650149584188
22854114 59 18409731772287745203
23402539 116 17967809479131098295
23402655 69 18202281394294578942
23557571 272 17749107751495931237
23559900 14 18041002782581070134
239999 70 18342181029579485422
2916195 48 18334008423546968137
29717793 49 16988567861939633772
3060560 45 17989211434801669998
33824 294 18410575059294695514
3545911 37 18410295813252523967
4047638 21 18410293618872466818
4072396 5 18341881980049806074
4214541 1 18408323263928523081
42630746 31 18202002118979693718
42788 4 18408886239329903889
4325135 7 18343016735825843679
449060 50 18411419522736621247
5104073 3 18260832540790278731
5281201 14 18341618061949835580
542803 24 15719396126783429119
77779 3 18411139108806788591
8272917 22 18059580139633759014

> <PUBCHEM_SHAPE_MULTIPOLES>
334.91
12.97
1.61
0.76
5.03
0.09
-0.01
-3.09
0.14
-1.08
-0.09
0.33
0
1.2

> <PUBCHEM_SHAPE_SELFOVERLAP>
737.199

> <PUBCHEM_SHAPE_VOLUME>
179.8

> <PUBCHEM_COORDINATE_TYPE>
2
5
10

$$$$
