44352843
  -OEChem-10062121583D

 79 87  0     1  0  0  0  0  0999 V2000
    1.2240    0.0147    2.5884 O   0  0  0  0  0  0  0  0  0  0  0  0
   -0.3583    0.6439   -0.2794 O   0  0  0  0  0  0  0  0  0  0  0  0
    6.5322   -2.1335   -2.0271 O   0  0  0  0  0  0  0  0  0  0  0  0
   -3.4680    1.6619    1.6675 O   0  0  0  0  0  0  0  0  0  0  0  0
   -8.6976   -0.1685   -2.5653 O   0  0  0  0  0  0  0  0  0  0  0  0
   -9.6459   -1.0146   -0.6459 O   0  0  0  0  0  0  0  0  0  0  0  0
    1.8493    1.5146    0.9243 N   0  0  0  0  0  0  0  0  0  0  0  0
    1.9995   -1.4815    0.9849 N   0  0  0  0  0  0  0  0  0  0  0  0
   -2.6169   -0.4486    1.1285 N   0  0  0  0  0  0  0  0  0  0  0  0
    6.7697    0.1753   -2.3235 N   0  0  0  0  0  0  0  0  0  0  0  0
    0.7779    1.1481    1.8384 C   0  0  1  0  0  0  0  0  0  0  0  0
   -0.5780    0.9275    1.1095 C   0  0  2  0  0  0  0  0  0  0  0  0
    1.0019   -1.2447    2.0032 C   0  0  2  0  0  0  0  0  0  0  0  0
   -1.3188   -0.2552    1.7274 C   0  0  2  0  0  0  0  0  0  0  0  0
   -0.4517   -1.5023    1.5807 C   0  0  0  0  0  0  0  0  0  0  0  0
    2.8328    0.7560    0.3333 C   0  0  0  0  0  0  0  0  0  0  0  0
    2.8991   -0.6683    0.3531 C   0  0  0  0  0  0  0  0  0  0  0  0
    3.8699    1.3943   -0.4450 C   0  0  0  0  0  0  0  0  0  0  0  0
    3.9982   -1.2457   -0.4033 C   0  0  0  0  0  0  0  0  0  0  0  0
    2.1210    2.7811    0.3866 C   0  0  0  0  0  0  0  0  0  0  0  0
    0.5873    2.1626    2.9906 C   0  0  0  0  0  0  0  0  0  0  0  0
    2.4504   -2.7519    0.6121 C   0  0  0  0  0  0  0  0  0  0  0  0
    3.3521    2.7535   -0.3366 C   0  0  0  0  0  0  0  0  0  0  0  0
    4.9548    0.8266   -1.1051 C   0  0  0  0  0  0  0  0  0  0  0  0
    5.0062   -0.5583   -1.0760 C   0  0  0  0  0  0  0  0  0  0  0  0
    3.6238   -2.6494   -0.1925 C   0  0  0  0  0  0  0  0  0  0  0  0
    6.0750    1.3798   -1.9206 C   0  0  0  0  0  0  0  0  0  0  0  0
    1.3800    3.9794    0.4538 C   0  0  0  0  0  0  0  0  0  0  0  0
    6.1702   -0.9872   -1.8488 C   0  0  0  0  0  0  0  0  0  0  0  0
    1.9087   -4.0101    0.9503 C   0  0  0  0  0  0  0  0  0  0  0  0
    3.8365    3.9662   -0.8899 C   0  0  0  0  0  0  0  0  0  0  0  0
   -2.8483   -1.7511    0.4936 C   0  0  0  0  0  0  0  0  0  0  0  0
    4.2064   -3.8615   -0.6434 C   0  0  0  0  0  0  0  0  0  0  0  0
   -3.6029    0.5528    1.1518 C   0  0  0  0  0  0  0  0  0  0  0  0
   -1.5221    0.8972   -1.0558 C   0  0  0  0  0  0  0  0  0  0  0  0
    1.8888    5.1502   -0.1142 C   0  0  0  0  0  0  0  0  0  0  0  0
    3.1107    5.1501   -0.7645 C   0  0  0  0  0  0  0  0  0  0  0  0
    2.5202   -5.1725    0.4832 C   0  0  0  0  0  0  0  0  0  0  0  0
    3.6555   -5.1009   -0.3054 C   0  0  0  0  0  0  0  0  0  0  0  0
   -4.9102    0.2761    0.5352 C   0  0  0  0  0  0  0  0  0  0  0  0
   -5.9373   -0.2806    1.2973 C   0  0  0  0  0  0  0  0  0  0  0  0
   -5.1221    0.5708   -0.8116 C   0  0  0  0  0  0  0  0  0  0  0  0
   -7.1762   -0.5429    0.7126 C   0  0  0  0  0  0  0  0  0  0  0  0
   -6.3610    0.3085   -1.3964 C   0  0  0  0  0  0  0  0  0  0  0  0
   -7.3880   -0.2484   -0.6342 C   0  0  0  0  0  0  0  0  0  0  0  0
   -8.6795   -0.5225   -1.2438 C   0  0  0  0  0  0  0  0  0  0  0  0
   -9.9194   -0.3905   -3.2778 C   0  0  0  0  0  0  0  0  0  0  0  0
   -1.1384    1.8657    1.1749 H   0  0  0  0  0  0  0  0  0  0  0  0
    1.2404   -1.9619    2.7993 H   0  0  0  0  0  0  0  0  0  0  0  0
   -1.4950   -0.0495    2.7912 H   0  0  0  0  0  0  0  0  0  0  0  0
   -0.8488   -2.3047    2.2163 H   0  0  0  0  0  0  0  0  0  0  0  0
   -0.4190   -1.8999    0.5620 H   0  0  0  0  0  0  0  0  0  0  0  0
    0.0000    1.7177    3.8042 H   0  0  0  0  0  0  0  0  0  0  0  0
    0.0671    3.0751    2.6979 H   0  0  0  0  0  0  0  0  0  0  0  0
    1.5527    2.4448    3.4287 H   0  0  0  0  0  0  0  0  0  0  0  0
    5.7238    1.9015   -2.8140 H   0  0  0  0  0  0  0  0  0  0  0  0
    6.7520    2.0027   -1.3312 H   0  0  0  0  0  0  0  0  0  0  0  0
    0.4037    4.0183    0.9220 H   0  0  0  0  0  0  0  0  0  0  0  0
    1.0187   -4.0881    1.5681 H   0  0  0  0  0  0  0  0  0  0  0  0
    4.7727    3.9800   -1.4423 H   0  0  0  0  0  0  0  0  0  0  0  0
   -3.8544   -1.8427    0.0818 H   0  0  0  0  0  0  0  0  0  0  0  0
   -2.7629   -2.5462    1.2402 H   0  0  0  0  0  0  0  0  0  0  0  0
   -2.1716   -1.9216   -0.3459 H   0  0  0  0  0  0  0  0  0  0  0  0
    5.0940   -3.8550   -1.2657 H   0  0  0  0  0  0  0  0  0  0  0  0
    7.6078    0.1764   -2.8963 H   0  0  0  0  0  0  0  0  0  0  0  0
   -1.1613    1.2062   -2.0439 H   0  0  0  0  0  0  0  0  0  0  0  0
   -2.1203    1.7352   -0.6906 H   0  0  0  0  0  0  0  0  0  0  0  0
   -2.0998   -0.0022   -1.2480 H   0  0  0  0  0  0  0  0  0  0  0  0
    1.3134    6.0699   -0.0478 H   0  0  0  0  0  0  0  0  0  0  0  0
    3.4940    6.0673   -1.2025 H   0  0  0  0  0  0  0  0  0  0  0  0
    2.1008   -6.1410    0.7415 H   0  0  0  0  0  0  0  0  0  0  0  0
    4.1237   -6.0129   -0.6655 H   0  0  0  0  0  0  0  0  0  0  0  0
   -5.7821   -0.5143    2.3474 H   0  0  0  0  0  0  0  0  0  0  0  0
   -4.3392    1.0134   -1.4189 H   0  0  0  0  0  0  0  0  0  0  0  0
   -7.9627   -0.9772    1.3242 H   0  0  0  0  0  0  0  0  0  0  0  0
   -6.4810    0.5560   -2.4473 H   0  0  0  0  0  0  0  0  0  0  0  0
   -9.7763   -0.0606   -4.3100 H   0  0  0  0  0  0  0  0  0  0  0  0
  -10.7286    0.1935   -2.8296 H   0  0  0  0  0  0  0  0  0  0  0  0
  -10.1665   -1.4562   -3.2791 H   0  0  0  0  0  0  0  0  0  0  0  0
  1 11  1  0  0  0  0
  1 13  1  0  0  0  0
  2 12  1  0  0  0  0
  2 35  1  0  0  0  0
  3 29  2  0  0  0  0
  4 34  2  0  0  0  0
  5 46  1  0  0  0  0
  5 47  1  0  0  0  0
  6 46  2  0  0  0  0
  7 11  1  0  0  0  0
  7 16  1  0  0  0  0
  7 20  1  0  0  0  0
  8 13  1  0  0  0  0
  8 17  1  0  0  0  0
  8 22  1  0  0  0  0
  9 14  1  0  0  0  0
  9 32  1  0  0  0  0
  9 34  1  0  0  0  0
 10 27  1  0  0  0  0
 10 29  1  0  0  0  0
 10 65  1  0  0  0  0
 11 12  1  0  0  0  0
 11 21  1  0  0  0  0
 12 14  1  0  0  0  0
 12 48  1  0  0  0  0
 13 15  1  0  0  0  0
 13 49  1  0  0  0  0
 14 15  1  0  0  0  0
 14 50  1  0  0  0  0
 15 51  1  0  0  0  0
 15 52  1  0  0  0  0
 16 17  2  0  0  0  0
 16 18  1  0  0  0  0
 17 19  1  0  0  0  0
 18 23  1  0  0  0  0
 18 24  2  0  0  0  0
 19 25  2  0  0  0  0
 19 26  1  0  0  0  0
 20 23  1  0  0  0  0
 20 28  2  0  0  0  0
 21 53  1  0  0  0  0
 21 54  1  0  0  0  0
 21 55  1  0  0  0  0
 22 26  1  0  0  0  0
 22 30  2  0  0  0  0
 23 31  2  0  0  0  0
 24 25  1  0  0  0  0
 24 27  1  0  0  0  0
 25 29  1  0  0  0  0
 26 33  2  0  0  0  0
 27 56  1  0  0  0  0
 27 57  1  0  0  0  0
 28 36  1  0  0  0  0
 28 58  1  0  0  0  0
 30 38  1  0  0  0  0
 30 59  1  0  0  0  0
 31 37  1  0  0  0  0
 31 60  1  0  0  0  0
 32 61  1  0  0  0  0
 32 62  1  0  0  0  0
 32 63  1  0  0  0  0
 33 39  1  0  0  0  0
 33 64  1  0  0  0  0
 34 40  1  0  0  0  0
 35 66  1  0  0  0  0
 35 67  1  0  0  0  0
 35 68  1  0  0  0  0
 36 37  2  0  0  0  0
 36 69  1  0  0  0  0
 37 70  1  0  0  0  0
 38 39  2  0  0  0  0
 38 71  1  0  0  0  0
 39 72  1  0  0  0  0
 40 41  2  0  0  0  0
 40 42  1  0  0  0  0
 41 43  1  0  0  0  0
 41 73  1  0  0  0  0
 42 44  2  0  0  0  0
 42 74  1  0  0  0  0
 43 45  2  0  0  0  0
 43 75  1  0  0  0  0
 44 45  1  0  0  0  0
 44 76  1  0  0  0  0
 45 46  1  0  0  0  0
 47 77  1  0  0  0  0
 47 78  1  0  0  0  0
 47 79  1  0  0  0  0
M  END
> <PUBCHEM_COMPOUND_CID>
44352843

> <PUBCHEM_CONFORMER_RMSD>
1

> <PUBCHEM_CONFORMER_DIVERSEORDER>
1
6
7
3
5
2
4

> <PUBCHEM_MMFF94_PARTIAL_CHARGES>
56
1 -0.56
10 -0.73
11 0.54
12 0.28
13 0.54
14 0.3
16 -0.05
17 -0.05
18 -0.01
19 -0.01
2 -0.56
20 -0.15
22 -0.15
24 -0.14
25 0.09
27 0.44
28 -0.15
29 0.54
3 -0.57
30 -0.15
31 -0.15
32 0.3
33 -0.15
34 0.54
35 0.28
36 -0.15
37 -0.15
38 -0.15
39 -0.15
4 -0.57
40 0.09
41 -0.15
42 -0.15
43 -0.15
44 -0.15
45 0.09
46 0.63
47 0.28
5 -0.43
58 0.15
59 0.15
6 -0.57
60 0.15
64 0.15
65 0.37
69 0.15
7 -0.04
70 0.15
71 0.15
72 0.15
73 0.15
74 0.15
75 0.15
76 0.15
8 -0.04
9 -0.66

> <PUBCHEM_EFFECTIVE_ROTOR_COUNT>
7.2

> <PUBCHEM_PHARMACOPHORE_FEATURES>
17
1 1 acceptor
1 10 donor
1 2 acceptor
1 3 acceptor
1 4 acceptor
1 6 acceptor
1 7 cation
1 8 cation
5 10 24 25 27 29 rings
5 7 16 18 20 23 rings
5 8 17 19 22 26 rings
6 1 11 12 13 14 15 rings
6 16 17 18 19 24 25 rings
6 20 23 28 31 36 37 rings
6 22 26 30 33 38 39 rings
6 40 41 42 43 44 45 rings
7 1 7 8 11 13 16 17 rings

> <PUBCHEM_HEAVY_ATOM_COUNT>
47

> <PUBCHEM_ATOM_DEF_STEREO_COUNT>
4

> <PUBCHEM_ATOM_UDEF_STEREO_COUNT>
0

> <PUBCHEM_BOND_DEF_STEREO_COUNT>
0

> <PUBCHEM_BOND_UDEF_STEREO_COUNT>
0

> <PUBCHEM_ISOTOPIC_ATOM_COUNT>
0

> <PUBCHEM_COMPONENT_COUNT>
1

> <PUBCHEM_CACTVS_TAUTO_COUNT>
2

> <PUBCHEM_CONFORMER_ID>
02A4C54B00000001

> <PUBCHEM_MMFF94_ENERGY>
219.5497

> <PUBCHEM_FEATURE_SELFOVERLAP>
87.234

> <PUBCHEM_SHAPE_FINGERPRINT>
10556698 54 17896586307487868325
10622 236 18056199077148978299
10675989 125 18339371854484854528
10693767 8 18129109939887555038
11115154 58 17988935435565819017
11181472 205 18410570645076026821
11386260 185 18337388352904844381
12047536 79 7925094545996771815
1361 2 18410585002354469362
13911987 19 18045816522777644924
14068700 675 18059585633593282416
14117953 113 18409740578015349964
14415360 78 18192435388671332300
15082195 135 18410572903152548083
15324884 4 17536621825523839168
15439362 3 18122636217287081780
15444296 8 17404882358046433918
15484559 13 18410014347351837094
15950262 2 15070907575268586070
19319366 153 18272086166517338160
21133410 127 17250626841852281068
22121540 332 17386268948789784189
23522609 53 17845116051105242873
23559900 14 18340494468382662304
24771750 20 17899721207937470764
255183 451 18198625440997360007
3388396 114 18120399587597722358
3504750 166 16459380333143464818
3882209 13 17826787041809451402
3918712 181 15936403451661739093
4066623 53 17895750691329756164
42767 46 17132111343061842711
4353968 344 18050586045580233638
57527306 92 15719679861408862524
57527452 28 15913060789702223772
6004065 56 18411145757806832480
9831232 110 18337659851062331415

> <PUBCHEM_SHAPE_MULTIPOLES>
912.1
21.3
5.85
2.37
63.48
0.01
-0.28
5.51
-21.32
-13.17
-0.02
1.98
-0.21
-0.44

> <PUBCHEM_SHAPE_SELFOVERLAP>
2086.4

> <PUBCHEM_SHAPE_VOLUME>
470.3

> <PUBCHEM_COORDINATE_TYPE>
2
5
10

$$$$
