49830431
  -OEChem-10052115183D

 53 56  0     1  0  0  0  0  0999 V2000
    0.1880    2.3814    0.2847 F   0  0  0  0  0  0  0  0  0  0  0  0
    0.5345    2.2328    2.4372 F   0  0  0  0  0  0  0  0  0  0  0  0
   -0.2903    4.0814    1.6136 F   0  0  0  0  0  0  0  0  0  0  0  0
   -2.3071   -1.6268   -0.5816 O   0  0  0  0  0  0  0  0  0  0  0  0
   -1.5991    2.2075    1.7014 O   0  0  0  0  0  0  0  0  0  0  0  0
   -5.8138   -2.5956   -1.0101 N   0  0  0  0  0  0  0  0  0  0  0  0
    5.7048    1.3207   -1.0704 N   0  0  0  0  0  0  0  0  0  0  0  0
    6.1803    0.0951   -0.7758 N   0  0  0  0  0  0  0  0  0  0  0  0
   -0.1618   -3.6000    1.6066 N   0  0  0  0  0  0  0  0  0  0  0  0
   -4.6967   -1.6465   -1.0336 C   0  0  1  0  0  0  0  0  0  0  0  0
   -5.2013   -0.2929   -0.4906 C   0  0  0  0  0  0  0  0  0  0  0  0
   -3.5454   -2.2364   -0.2101 C   0  0  0  0  0  0  0  0  0  0  0  0
   -4.1707    0.8101   -0.4938 C   0  0  0  0  0  0  0  0  0  0  0  0
    3.9214    0.2143   -0.5662 C   0  0  0  0  0  0  0  0  0  0  0  0
    2.5118   -1.4955    0.0679 C   0  0  0  0  0  0  0  0  0  0  0  0
    5.0906   -0.6249   -0.4553 C   0  0  0  0  0  0  0  0  0  0  0  0
    1.1972   -2.0350    0.3618 C   0  0  0  0  0  0  0  0  0  0  0  0
    2.6019   -0.1449   -0.3228 C   0  0  0  0  0  0  0  0  0  0  0  0
   -3.3504    1.0013    0.6181 C   0  0  0  0  0  0  0  0  0  0  0  0
    4.3510    1.4497   -0.9609 C   0  0  0  0  0  0  0  0  0  0  0  0
   -4.0391    1.6387   -1.6082 C   0  0  0  0  0  0  0  0  0  0  0  0
   -1.1840   -2.0830    0.0258 C   0  0  0  0  0  0  0  0  0  0  0  0
    3.6391   -2.3673    0.1926 C   0  0  0  0  0  0  0  0  0  0  0  0
    0.0626   -1.5461   -0.2764 C   0  0  0  0  0  0  0  0  0  0  0  0
    4.9704   -1.9707   -0.0626 C   0  0  0  0  0  0  0  0  0  0  0  0
   -2.3985    2.0209    0.6157 C   0  0  0  0  0  0  0  0  0  0  0  0
   -3.0874    2.6584   -1.6106 C   0  0  0  0  0  0  0  0  0  0  0  0
    1.0327   -3.0535    1.2869 C   0  0  0  0  0  0  0  0  0  0  0  0
   -2.2669    2.8495   -0.4988 C   0  0  0  0  0  0  0  0  0  0  0  0
    3.6620    2.7196   -1.2448 C   0  0  0  0  0  0  0  0  0  0  0  0
   -1.2419   -3.0991    0.9660 C   0  0  0  0  0  0  0  0  0  0  0  0
   -0.2942    2.7366    1.4946 C   0  0  0  0  0  0  0  0  0  0  0  0
   -4.3676   -1.5120   -2.0718 H   0  0  0  0  0  0  0  0  0  0  0  0
   -6.0669    0.0415   -1.0798 H   0  0  0  0  0  0  0  0  0  0  0  0
   -5.5837   -0.4156    0.5327 H   0  0  0  0  0  0  0  0  0  0  0  0
   -3.7462   -2.1013    0.8607 H   0  0  0  0  0  0  0  0  0  0  0  0
   -3.4781   -3.3091   -0.4381 H   0  0  0  0  0  0  0  0  0  0  0  0
   -5.5268   -3.4755   -1.4373 H   0  0  0  0  0  0  0  0  0  0  0  0
   -6.5787   -2.2386   -1.5815 H   0  0  0  0  0  0  0  0  0  0  0  0
    1.7726    0.5419   -0.4041 H   0  0  0  0  0  0  0  0  0  0  0  0
   -3.4497    0.3640    1.4932 H   0  0  0  0  0  0  0  0  0  0  0  0
   -4.6721    1.4995   -2.4805 H   0  0  0  0  0  0  0  0  0  0  0  0
    3.5077   -3.4145    0.4635 H   0  0  0  0  0  0  0  0  0  0  0  0
    0.1110   -0.7676   -1.0332 H   0  0  0  0  0  0  0  0  0  0  0  0
    5.8089   -2.6482    0.0296 H   0  0  0  0  0  0  0  0  0  0  0  0
    6.3720    2.0315   -1.3428 H   0  0  0  0  0  0  0  0  0  0  0  0
   -2.9909    3.3085   -2.4754 H   0  0  0  0  0  0  0  0  0  0  0  0
    1.8533   -3.4734    1.8597 H   0  0  0  0  0  0  0  0  0  0  0  0
   -1.5656    3.6781   -0.5274 H   0  0  0  0  0  0  0  0  0  0  0  0
    2.9469    2.5935   -2.0642 H   0  0  0  0  0  0  0  0  0  0  0  0
    4.3637    3.5098   -1.5316 H   0  0  0  0  0  0  0  0  0  0  0  0
    3.1128    3.0643   -0.3626 H   0  0  0  0  0  0  0  0  0  0  0  0
   -2.1569   -3.5872    1.2798 H   0  0  0  0  0  0  0  0  0  0  0  0
  1 32  1  0  0  0  0
  2 32  1  0  0  0  0
  3 32  1  0  0  0  0
  4 12  1  0  0  0  0
  4 22  1  0  0  0  0
  5 26  1  0  0  0  0
  5 32  1  0  0  0  0
  6 10  1  0  0  0  0
  6 38  1  0  0  0  0
  6 39  1  0  0  0  0
  7  8  1  0  0  0  0
  7 20  1  0  0  0  0
  7 46  1  0  0  0  0
  8 16  2  0  0  0  0
  9 28  2  0  0  0  0
  9 31  1  0  0  0  0
 10 11  1  0  0  0  0
 10 12  1  0  0  0  0
 10 33  1  0  0  0  0
 11 13  1  0  0  0  0
 11 34  1  0  0  0  0
 11 35  1  0  0  0  0
 12 36  1  0  0  0  0
 12 37  1  0  0  0  0
 13 19  2  0  0  0  0
 13 21  1  0  0  0  0
 14 16  1  0  0  0  0
 14 18  1  0  0  0  0
 14 20  2  0  0  0  0
 15 17  1  0  0  0  0
 15 18  2  0  0  0  0
 15 23  1  0  0  0  0
 16 25  1  0  0  0  0
 17 24  2  0  0  0  0
 17 28  1  0  0  0  0
 18 40  1  0  0  0  0
 19 26  1  0  0  0  0
 19 41  1  0  0  0  0
 20 30  1  0  0  0  0
 21 27  2  0  0  0  0
 21 42  1  0  0  0  0
 22 24  1  0  0  0  0
 22 31  2  0  0  0  0
 23 25  2  0  0  0  0
 23 43  1  0  0  0  0
 24 44  1  0  0  0  0
 25 45  1  0  0  0  0
 26 29  2  0  0  0  0
 27 29  1  0  0  0  0
 27 47  1  0  0  0  0
 28 48  1  0  0  0  0
 29 49  1  0  0  0  0
 30 50  1  0  0  0  0
 30 51  1  0  0  0  0
 30 52  1  0  0  0  0
 31 53  1  0  0  0  0
M  END
> <PUBCHEM_COMPOUND_CID>
49830431

> <PUBCHEM_CONFORMER_RMSD>
1.2

> <PUBCHEM_CONFORMER_DIVERSEORDER>
1
157
133
402
82
486
78
329
50
241
484
288
298
11
105
561
13
80
310
418
275
236
139
28
240
62
429
251
244
223
167
22
2
522
500
97
282
502
315
351
188
492
6
77
419
43
178
63
18
555
262
21
4
93
374
463
165
173
85
273
294
138
95
119
216
71
106
341
516
47
268
54
523
109
307
295
408
557
414
87
72
59
69
452
436
61
185
158
130
57
258
160
149
31
326
432
128
144
264
194
229
220
246
383
32
66
132
34
155
359
239
17
195
375
45
407
265
462
211
112
357
24
94
234
284
110
197
406
493
506
267
317
206
25
68
250
129
117
46
566
76
593
222
527
91
124
219
81
99
371
562
55
3
199
224
40
497
182
570
86
48
7
249
231
314
79
174
272
33
147
26
514
41
292
73
120
60
23
208
237
49
159
52
202
8
381
154
84
16
35
20
135
10

> <PUBCHEM_MMFF94_PARTIAL_CHARGES>
42
1 -0.34
10 0.27
11 0.14
12 0.28
13 -0.14
16 0.29
18 -0.15
19 -0.15
2 -0.34
20 -0.33
21 -0.15
22 0.08
23 -0.15
24 -0.15
25 -0.15
26 0.08
27 -0.15
28 0.16
29 -0.15
3 -0.34
30 0.18
31 0.16
32 1.3
38 0.36
39 0.36
4 -0.36
40 0.15
41 0.15
42 0.15
43 0.15
44 0.15
45 0.15
46 0.27
47 0.15
48 0.15
49 0.15
5 -0.36
53 0.15
6 -0.99
7 0.3
8 -0.71
9 -0.62

> <PUBCHEM_EFFECTIVE_ROTOR_COUNT>
8

> <PUBCHEM_PHARMACOPHORE_FEATURES>
11
1 4 acceptor
1 5 acceptor
1 6 cation
1 6 donor
1 7 donor
1 8 acceptor
1 9 acceptor
5 7 8 14 16 20 rings
6 13 19 21 26 27 29 rings
6 14 15 16 18 23 25 rings
6 9 17 22 24 28 31 rings

> <PUBCHEM_HEAVY_ATOM_COUNT>
32

> <PUBCHEM_ATOM_DEF_STEREO_COUNT>
0

> <PUBCHEM_ATOM_UDEF_STEREO_COUNT>
1

> <PUBCHEM_BOND_DEF_STEREO_COUNT>
0

> <PUBCHEM_BOND_UDEF_STEREO_COUNT>
0

> <PUBCHEM_ISOTOPIC_ATOM_COUNT>
0

> <PUBCHEM_COMPONENT_COUNT>
1

> <PUBCHEM_CACTVS_TAUTO_COUNT>
2

> <PUBCHEM_CONFORMER_ID>
02F85A1F00000001

> <PUBCHEM_MMFF94_ENERGY>
99.6746

> <PUBCHEM_FEATURE_SELFOVERLAP>
55.955

> <PUBCHEM_SHAPE_FINGERPRINT>
10032420 55 18262783138868900687
10670039 82 18408039619866968038
12788726 201 18411419514384525058
13402501 40 18270116958334820133
13583140 156 17532667723394685618
14117953 113 16824169720762503877
14251757 5 18337956787013829338
14279260 333 18270116800307754446
14394314 77 18341902882976024161
14400156 266 18338527336188899206
14787075 74 18410855469055927583
14931854 50 18410571794945146631
14932702 115 17977403937849485644
15297060 5 17702104664353272131
15351339 4 18335411387736349226
15420108 30 17043450840018664922
15968369 26 18053352630291735600
17138139 8 18199730531671349500
17909252 39 17846498115239896754
19319366 153 18334570210050075059
20642791 35 18271793662829372403
20775438 99 17192880465781831487
21049683 271 18262798614148356071
221357 26 18341327889775484031
238918 7 17265793488249699816
3493558 16 18115597074751309750
4112364 45 13410692030376705647
463206 1 18341054004001009464
469060 322 17896907459261208403
50150288 127 17054479276226056968
6371009 1 18260819402385203142
6669772 16 17984689284736424192

> <PUBCHEM_SHAPE_MULTIPOLES>
605.06
12.24
5
1.53
6.2
0.43
0.6
-0.49
-6.44
-1.71
1.51
-0.6
1.04
-1.31

> <PUBCHEM_SHAPE_SELFOVERLAP>
1327.114

> <PUBCHEM_SHAPE_VOLUME>
329.4

> <PUBCHEM_COORDINATE_TYPE>
2
5
10

$$$$
