49830693
  -OEChem-10052120433D

 35 37  0     0  0  0  0  0  0999 V2000
   -6.9110    0.8261   -0.0005 F   0  0  0  0  0  0  0  0  0  0  0  0
    6.7061    1.0140   -0.0021 F   0  0  0  0  0  0  0  0  0  0  0  0
    5.0773    1.9636   -1.0851 F   0  0  0  0  0  0  0  0  0  0  0  0
    5.0793    1.9642    1.0837 F   0  0  0  0  0  0  0  0  0  0  0  0
    0.7100    1.0864    0.0009 O   0  0  0  0  0  0  0  0  0  0  0  0
   -1.0096   -0.5034    0.0007 N   0  0  0  0  0  0  0  0  0  0  0  0
   -4.4118    1.9281    0.0005 N   0  0  0  0  0  0  0  0  0  0  0  0
    1.1871   -1.2030    0.0009 N   0  0  0  0  0  0  0  0  0  0  0  0
    3.2649   -0.0466    0.0008 N   0  0  0  0  0  0  0  0  0  0  0  0
   -3.4492   -0.2812    0.0000 C   0  0  0  0  0  0  0  0  0  0  0  0
   -2.1669    0.2842    0.0007 C   0  0  0  0  0  0  0  0  0  0  0  0
   -4.5589    0.5897    0.0000 C   0  0  0  0  0  0  0  0  0  0  0  0
   -3.6398   -1.6733   -0.0004 C   0  0  0  0  0  0  0  0  0  0  0  0
   -2.0121    1.6630    0.0007 C   0  0  0  0  0  0  0  0  0  0  0  0
   -5.8325    0.0278   -0.0005 C   0  0  0  0  0  0  0  0  0  0  0  0
   -4.9249   -2.2083   -0.0012 C   0  0  0  0  0  0  0  0  0  0  0  0
   -6.0224   -1.3564   -0.0011 C   0  0  0  0  0  0  0  0  0  0  0  0
   -3.1570    2.4336    0.0005 C   0  0  0  0  0  0  0  0  0  0  0  0
    0.3399   -0.0833    0.0009 C   0  0  0  0  0  0  0  0  0  0  0  0
    2.6019   -1.2247    0.0009 C   0  0  0  0  0  0  0  0  0  0  0  0
    4.6149   -0.1173    0.0004 C   0  0  0  0  0  0  0  0  0  0  0  0
    3.2219   -2.4638    0.0003 C   0  0  0  0  0  0  0  0  0  0  0  0
    5.3292   -1.3045    0.0001 C   0  0  0  0  0  0  0  0  0  0  0  0
    4.6120   -2.4957    0.0000 C   0  0  0  0  0  0  0  0  0  0  0  0
    5.3517    1.1804   -0.0008 C   0  0  0  0  0  0  0  0  0  0  0  0
   -2.8205   -2.3846   -0.0004 H   0  0  0  0  0  0  0  0  0  0  0  0
   -1.1334   -1.5086    0.0006 H   0  0  0  0  0  0  0  0  0  0  0  0
   -1.0818    2.2059    0.0009 H   0  0  0  0  0  0  0  0  0  0  0  0
   -5.0692   -3.2844   -0.0017 H   0  0  0  0  0  0  0  0  0  0  0  0
   -7.0287   -1.7647   -0.0016 H   0  0  0  0  0  0  0  0  0  0  0  0
   -3.0996    3.5173    0.0006 H   0  0  0  0  0  0  0  0  0  0  0  0
    0.7361   -2.1144    0.0008 H   0  0  0  0  0  0  0  0  0  0  0  0
    2.6574   -3.3905    0.0002 H   0  0  0  0  0  0  0  0  0  0  0  0
    6.4134   -1.3287   -0.0003 H   0  0  0  0  0  0  0  0  0  0  0  0
    5.1353   -3.4471   -0.0004 H   0  0  0  0  0  0  0  0  0  0  0  0
  1 15  1  0  0  0  0
  2 25  1  0  0  0  0
  3 25  1  0  0  0  0
  4 25  1  0  0  0  0
  5 19  2  0  0  0  0
  6 11  1  0  0  0  0
  6 19  1  0  0  0  0
  6 27  1  0  0  0  0
  7 12  2  0  0  0  0
  7 18  1  0  0  0  0
  8 19  1  0  0  0  0
  8 20  1  0  0  0  0
  8 32  1  0  0  0  0
  9 20  1  0  0  0  0
  9 21  2  0  0  0  0
 10 11  2  0  0  0  0
 10 12  1  0  0  0  0
 10 13  1  0  0  0  0
 11 14  1  0  0  0  0
 12 15  1  0  0  0  0
 13 16  2  0  0  0  0
 13 26  1  0  0  0  0
 14 18  2  0  0  0  0
 14 28  1  0  0  0  0
 15 17  2  0  0  0  0
 16 17  1  0  0  0  0
 16 29  1  0  0  0  0
 17 30  1  0  0  0  0
 18 31  1  0  0  0  0
 20 22  2  0  0  0  0
 21 23  1  0  0  0  0
 21 25  1  0  0  0  0
 22 24  1  0  0  0  0
 22 33  1  0  0  0  0
 23 24  2  0  0  0  0
 23 34  1  0  0  0  0
 24 35  1  0  0  0  0
M  END
> <PUBCHEM_COMPOUND_CID>
49830693

> <PUBCHEM_CONFORMER_RMSD>
0.8

> <PUBCHEM_CONFORMER_DIVERSEORDER>
1
22
16
6
17
15
14
8
7
9
10
4
23
12
5
18
2
24
3
11
13
21
20
19

> <PUBCHEM_MMFF94_PARTIAL_CHARGES>
34
1 -0.19
11 0.12
12 0.31
13 -0.15
14 -0.15
15 0.19
16 -0.15
17 -0.15
18 0.16
19 0.69
2 -0.34
20 0.43
21 0.17
22 -0.15
23 -0.15
24 -0.15
25 1.16
26 0.15
27 0.37
28 0.15
29 0.15
3 -0.34
30 0.15
31 0.15
32 0.37
33 0.15
34 0.15
35 0.15
4 -0.34
5 -0.57
6 -0.55
7 -0.62
8 -0.55
9 -0.62

> <PUBCHEM_EFFECTIVE_ROTOR_COUNT>
5

> <PUBCHEM_PHARMACOPHORE_FEATURES>
8
1 5 acceptor
1 6 donor
1 7 acceptor
1 8 donor
1 9 acceptor
6 10 12 13 15 16 17 rings
6 7 10 11 12 14 18 rings
6 9 20 21 22 23 24 rings

> <PUBCHEM_HEAVY_ATOM_COUNT>
25

> <PUBCHEM_ATOM_DEF_STEREO_COUNT>
0

> <PUBCHEM_ATOM_UDEF_STEREO_COUNT>
0

> <PUBCHEM_BOND_DEF_STEREO_COUNT>
0

> <PUBCHEM_BOND_UDEF_STEREO_COUNT>
0

> <PUBCHEM_ISOTOPIC_ATOM_COUNT>
0

> <PUBCHEM_COMPONENT_COUNT>
1

> <PUBCHEM_CACTVS_TAUTO_COUNT>
11

> <PUBCHEM_CONFORMER_ID>
02F85B2500000001

> <PUBCHEM_MMFF94_ENERGY>
69.1667

> <PUBCHEM_FEATURE_SELFOVERLAP>
40.681

> <PUBCHEM_SHAPE_FINGERPRINT>
10595046 47 18410012126167455666
10835480 77 18409722933535616373
10968037 39 18410011048916492055
11524674 6 16415477160568909783
12107183 9 17617094707291578058
12236239 1 18260830388906375447
12516196 113 18273213110211893073
12616971 3 17917417706105585110
13073987 5 18410856533869992457
13167823 11 18410290268297348650
13533116 47 18410855430527926346
14251732 16 18411418436057290635
14341114 176 18410578366313531191
14461889 52 18337105769815398370
14528608 73 18410859863076405774
14904525 67 15913609466804165899
14933364 13 18412827979915009704
15196674 1 18410573955118387042
15927050 60 17479734262007296708
15961568 22 18187087265208321356
16110190 28 18342461435240850591
17834072 33 18410575067646928430
17844677 252 18339649931994006250
17857418 61 18410293614345416943
1813 80 17022907821919835268
18335252 98 18409172138307935779
20511986 3 18186790371108814575
21236236 1 18340769252554309395
21267235 1 18339086994794040303
21315763 129 18336544907242001164
23522609 53 18058475186657368353
23559900 14 18339916113157107297
239999 70 18271811164626607174
245318 6 17098920535962920524
3004659 81 18336265648495224362
3246875 12 18268706302586909008
329604 57 18201720639280657200
335352 9 18411416195186831133
34797466 226 17846505833058517164
350125 39 18412825806878173601
3545911 37 18410293605697505524
4073 2 18114187457842340146
4214541 1 18338798905846898339
4325135 7 18409449197925988052
497634 4 18410857612350356749
5104073 3 18411137991746059826
513532 50 18342189847705831918
5312625 73 18342174501033379954
67856867 119 18189340228662601549
7495541 125 17917986179091491402

> <PUBCHEM_SHAPE_MULTIPOLES>
459.6
18.22
2.65
0.65
3.38
0.11
0
-0.54
0.01
0.83
0
0.3
-0.11
0

> <PUBCHEM_SHAPE_SELFOVERLAP>
1014.218

> <PUBCHEM_SHAPE_VOLUME>
245.3

> <PUBCHEM_COORDINATE_TYPE>
2
5
10

$$$$
