49831002
  -OEChem-10052120443D

 31 33  0     0  0  0  0  0  0999 V2000
   -6.2467   -0.8547    0.0003 O   0  5  0  0  0  0  0  0  0  0  0  0
   -5.8503    1.3045    0.0010 O   0  0  0  0  0  0  0  0  0  0  0  0
   -0.6743    1.4043    0.0002 N   0  0  0  0  0  0  0  0  0  0  0  0
    0.0599   -0.6934   -0.0009 N   0  0  0  0  0  0  0  0  0  0  0  0
    1.6430    1.1281   -0.0005 N   0  0  0  0  0  0  0  0  0  0  0  0
    4.0294    1.4668   -0.0005 N   0  0  0  0  0  0  0  0  0  0  0  0
   -5.4517    0.1154    0.0005 N   0  3  0  0  0  0  0  0  0  0  0  0
   -1.8008    0.6225    0.0000 C   0  0  0  0  0  0  0  0  0  0  0  0
   -1.3160   -0.6826   -0.0006 C   0  0  0  0  0  0  0  0  0  0  0  0
    0.4110    0.5730   -0.0006 C   0  0  0  0  0  0  0  0  0  0  0  0
   -3.1605    0.9351    0.0004 C   0  0  0  0  0  0  0  0  0  0  0  0
   -2.2278   -1.7517   -0.0006 C   0  0  0  0  0  0  0  0  0  0  0  0
   -4.0539   -0.1413    0.0003 C   0  0  0  0  0  0  0  0  0  0  0  0
   -3.5979   -1.4616   -0.0002 C   0  0  0  0  0  0  0  0  0  0  0  0
    2.9922    0.5996   -0.0008 C   0  0  0  0  0  0  0  0  0  0  0  0
    3.1337   -0.7788   -0.0007 C   0  0  0  0  0  0  0  0  0  0  0  0
    5.5150   -0.4405    0.0002 C   0  0  0  0  0  0  0  0  0  0  0  0
    4.4226   -1.3007   -0.0001 C   0  0  0  0  0  0  0  0  0  0  0  0
    5.2670    0.9227   -0.0001 C   0  0  0  0  0  0  0  0  0  0  0  0
    6.9060   -0.9667    0.0027 C   0  0  0  0  0  0  0  0  0  0  0  0
   -0.6505    2.4153    0.0006 H   0  0  0  0  0  0  0  0  0  0  0  0
   -3.4796    1.9718    0.0008 H   0  0  0  0  0  0  0  0  0  0  0  0
   -1.8829   -2.7808   -0.0010 H   0  0  0  0  0  0  0  0  0  0  0  0
    1.6996    2.1461   -0.0003 H   0  0  0  0  0  0  0  0  0  0  0  0
   -4.2856   -2.3045   -0.0003 H   0  0  0  0  0  0  0  0  0  0  0  0
    2.3049   -1.4735   -0.0012 H   0  0  0  0  0  0  0  0  0  0  0  0
    4.5644   -2.3780   -0.0011 H   0  0  0  0  0  0  0  0  0  0  0  0
    6.0780    1.6445   -0.0011 H   0  0  0  0  0  0  0  0  0  0  0  0
    7.2534   -1.1179   -1.0241 H   0  0  0  0  0  0  0  0  0  0  0  0
    7.5899   -0.2744    0.5052 H   0  0  0  0  0  0  0  0  0  0  0  0
    6.9653   -1.9209    0.5372 H   0  0  0  0  0  0  0  0  0  0  0  0
  1  7  1  0  0  0  0
  2  7  2  0  0  0  0
  3  8  1  0  0  0  0
  3 10  1  0  0  0  0
  3 21  1  0  0  0  0
  4  9  1  0  0  0  0
  4 10  2  0  0  0  0
  5 10  1  0  0  0  0
  5 15  1  0  0  0  0
  5 24  1  0  0  0  0
  6 15  2  0  0  0  0
  6 19  1  0  0  0  0
  7 13  1  0  0  0  0
  8  9  2  0  0  0  0
  8 11  1  0  0  0  0
  9 12  1  0  0  0  0
 11 13  2  0  0  0  0
 11 22  1  0  0  0  0
 12 14  2  0  0  0  0
 12 23  1  0  0  0  0
 13 14  1  0  0  0  0
 14 25  1  0  0  0  0
 15 16  1  0  0  0  0
 16 18  2  0  0  0  0
 16 26  1  0  0  0  0
 17 18  1  0  0  0  0
 17 19  2  0  0  0  0
 17 20  1  0  0  0  0
 18 27  1  0  0  0  0
 19 28  1  0  0  0  0
 20 29  1  0  0  0  0
 20 30  1  0  0  0  0
 20 31  1  0  0  0  0
M  CHG  2   1  -1   7   1
M  END
> <PUBCHEM_COMPOUND_CID>
49831002

> <PUBCHEM_CONFORMER_RMSD>
0.6

> <PUBCHEM_CONFORMER_DIVERSEORDER>
1
21
18
8
7
5
12
4
13
11
2
20
17
9
10
6
15
19
14
3
16

> <PUBCHEM_MMFF94_PARTIAL_CHARGES>
28
1 -0.52
10 0.27
11 -0.15
12 -0.15
13 0.13
14 -0.15
15 0.41
16 -0.15
17 -0.14
18 -0.15
19 0.16
2 -0.52
20 0.14
21 0.27
22 0.15
23 0.15
24 0.4
25 0.15
26 0.15
27 0.15
28 0.15
3 0.03
4 -0.57
5 -0.58
6 -0.62
7 0.91
8 -0.15
9 0.23

> <PUBCHEM_EFFECTIVE_ROTOR_COUNT>
3

> <PUBCHEM_PHARMACOPHORE_FEATURES>
9
1 1 acceptor
1 1 anion
1 2 acceptor
1 3 donor
1 5 donor
4 3 4 5 10 cation
5 3 4 8 9 10 rings
6 6 15 16 17 18 19 rings
6 8 9 11 12 13 14 rings

> <PUBCHEM_HEAVY_ATOM_COUNT>
20

> <PUBCHEM_ATOM_DEF_STEREO_COUNT>
0

> <PUBCHEM_ATOM_UDEF_STEREO_COUNT>
0

> <PUBCHEM_BOND_DEF_STEREO_COUNT>
0

> <PUBCHEM_BOND_UDEF_STEREO_COUNT>
0

> <PUBCHEM_ISOTOPIC_ATOM_COUNT>
0

> <PUBCHEM_COMPONENT_COUNT>
1

> <PUBCHEM_CACTVS_TAUTO_COUNT>
5

> <PUBCHEM_CONFORMER_ID>
02F85C5A00000001

> <PUBCHEM_MMFF94_ENERGY>
54.1013

> <PUBCHEM_FEATURE_SELFOVERLAP>
45.901

> <PUBCHEM_SHAPE_FINGERPRINT>
10968037 39 18407761443002907031
11315181 36 17988647410467965048
11524674 6 17060620009875018399
11578080 2 16662878138585163671
12107183 9 17691408512390894554
12236239 1 18187085061261772148
12516196 113 17917990585843916552
13167823 11 18410291432644552758
13288520 33 18411419514315446157
13533116 47 13470419829342231348
13862211 1 18341612646597468287
14251764 18 18341896311342699131
15042514 8 18264773341121112931
15183329 4 18335978692860253347
15196674 1 18410575132082091302
17834072 33 18411981386300699924
17834072 8 18333728014012004999
17844677 252 18409736157613534340
1813 80 17022904544991650660
19141452 34 18411418444584058351
19489759 90 15770061618602491083
200 152 18060136548261927570
20645477 70 18412827950283158302
21236236 1 18342176614442873145
21267235 1 18409454686709757674
21279426 13 18194964045754076255
2215653 11 18272086089012468823
22224240 67 16630517437348121206
23035841 295 18334575737202791602
23402539 116 18201996638559115709
23536379 177 18410855455959860233
23559900 14 18341606083481641640
239999 70 18343305864845790742
26918003 58 18202002135879708642
29717793 49 18130793348076385276
300161 21 18341325669377235256
3004659 81 18334013887520464760
335352 9 18410573985763511181
3545911 37 18410292506354546390
4073 2 18041002903436039538
4214541 1 18410573968256756352
42788 4 18410575088973896453
4325135 7 18260833713907245828
4463277 17 18409166610315559033
5104073 3 18411701031877905218
559249 180 18411697690668115959
59755656 215 18408606924949122798
59755656 520 16877661270591465475
77779 3 18410575106670749808
9709674 26 18190746521435669162

> <PUBCHEM_SHAPE_MULTIPOLES>
374.95
16.09
1.58
0.59
4.1
0.11
0
1.91
-0.01
-0.1
0
0.07
0.02
0

> <PUBCHEM_SHAPE_SELFOVERLAP>
827.58

> <PUBCHEM_SHAPE_VOLUME>
201.4

> <PUBCHEM_COORDINATE_TYPE>
2
5
10

$$$$
