49830988
  -OEChem-10052115183D

 57 60  0     0  0  0  0  0  0999 V2000
   -0.3458    5.6042    0.6242 O   0  0  0  0  0  0  0  0  0  0  0  0
    3.1274   -0.4800   -0.9768 O   0  0  0  0  0  0  0  0  0  0  0  0
    0.0283    2.8933   -0.0162 N   0  0  0  0  0  0  0  0  0  0  0  0
    1.6205    1.2124   -0.5018 N   0  0  0  0  0  0  0  0  0  0  0  0
    0.9004   -1.0734   -0.7554 N   0  0  0  0  0  0  0  0  0  0  0  0
   -1.4038   -1.6234   -0.5160 N   0  0  0  0  0  0  0  0  0  0  0  0
   -2.6686   -1.2474   -0.2788 N   0  0  0  0  0  0  0  0  0  0  0  0
    5.5582   -2.3427   -0.4608 N   0  0  0  0  0  0  0  0  0  0  0  0
   -0.5927    3.2750    1.2569 C   0  0  0  0  0  0  0  0  0  0  0  0
    0.8699    3.9259   -0.6362 C   0  0  0  0  0  0  0  0  0  0  0  0
   -1.2706    4.6331    1.1127 C   0  0  0  0  0  0  0  0  0  0  0  0
    0.1135    5.2488   -0.6798 C   0  0  0  0  0  0  0  0  0  0  0  0
    0.3359    1.5521   -0.2677 C   0  0  0  0  0  0  0  0  0  0  0  0
   -0.7071    0.6486   -0.2612 C   0  0  0  0  0  0  0  0  0  0  0  0
   -0.3621   -0.6635   -0.5138 C   0  0  0  0  0  0  0  0  0  0  0  0
    1.8284   -0.0977   -0.7345 C   0  0  0  0  0  0  0  0  0  0  0  0
    4.1063    0.5489   -0.9550 C   0  0  0  0  0  0  0  0  0  0  0  0
    5.4801   -0.0406   -1.2545 C   0  0  0  0  0  0  0  0  0  0  0  0
    5.9054   -1.0579   -0.2236 C   0  0  0  0  0  0  0  0  0  0  0  0
    6.6152   -0.6391    0.8902 C   0  0  0  0  0  0  0  0  0  0  0  0
   -4.9499   -2.0313   -0.0787 C   0  0  0  0  0  0  0  0  0  0  0  0
   -3.5089   -2.2300   -0.3129 C   0  0  0  0  0  0  0  0  0  0  0  0
   -6.8077   -0.5667    0.4125 C   0  0  0  0  0  0  0  0  0  0  0  0
   -5.4435   -0.7546    0.1902 C   0  0  0  0  0  0  0  0  0  0  0  0
   -5.8206   -3.1202   -0.1250 C   0  0  0  0  0  0  0  0  0  0  0  0
    6.9932   -1.6009    1.8204 C   0  0  0  0  0  0  0  0  0  0  0  0
   -7.6784   -1.6556    0.3661 C   0  0  0  0  0  0  0  0  0  0  0  0
   -7.1848   -2.9324    0.0976 C   0  0  0  0  0  0  0  0  0  0  0  0
    5.9427   -3.2493    0.4654 C   0  0  0  0  0  0  0  0  0  0  0  0
    6.6546   -2.9333    1.6113 C   0  0  0  0  0  0  0  0  0  0  0  0
   -7.3356    0.7979    0.7010 C   0  0  0  0  0  0  0  0  0  0  0  0
    0.1911    3.3309    2.0225 H   0  0  0  0  0  0  0  0  0  0  0  0
   -1.3353    2.5432    1.5924 H   0  0  0  0  0  0  0  0  0  0  0  0
    1.1518    3.6453   -1.6580 H   0  0  0  0  0  0  0  0  0  0  0  0
    1.7861    4.0405   -0.0438 H   0  0  0  0  0  0  0  0  0  0  0  0
   -2.1335    4.5791    0.4379 H   0  0  0  0  0  0  0  0  0  0  0  0
   -1.6328    4.9745    2.0876 H   0  0  0  0  0  0  0  0  0  0  0  0
    0.7753    6.0459   -1.0328 H   0  0  0  0  0  0  0  0  0  0  0  0
   -0.7409    5.1981   -1.3656 H   0  0  0  0  0  0  0  0  0  0  0  0
   -1.7253    0.9735   -0.0839 H   0  0  0  0  0  0  0  0  0  0  0  0
    4.1202    1.0343    0.0295 H   0  0  0  0  0  0  0  0  0  0  0  0
    3.8764    1.2985   -1.7226 H   0  0  0  0  0  0  0  0  0  0  0  0
    5.4574   -0.5378   -2.2326 H   0  0  0  0  0  0  0  0  0  0  0  0
    6.2274    0.7587   -1.3229 H   0  0  0  0  0  0  0  0  0  0  0  0
   -1.1494   -2.5867   -0.7016 H   0  0  0  0  0  0  0  0  0  0  0  0
    6.8731    0.4031    1.0450 H   0  0  0  0  0  0  0  0  0  0  0  0
   -3.1851   -3.2675   -0.5201 H   0  0  0  0  0  0  0  0  0  0  0  0
   -4.7781    0.1044    0.2321 H   0  0  0  0  0  0  0  0  0  0  0  0
   -5.4505   -4.1207   -0.3330 H   0  0  0  0  0  0  0  0  0  0  0  0
    7.5502   -1.3129    2.7069 H   0  0  0  0  0  0  0  0  0  0  0  0
   -8.7430   -1.5231    0.5396 H   0  0  0  0  0  0  0  0  0  0  0  0
   -7.8626   -3.7802    0.0622 H   0  0  0  0  0  0  0  0  0  0  0  0
    5.6539   -4.2740    0.2559 H   0  0  0  0  0  0  0  0  0  0  0  0
    6.9385   -3.6999    2.3231 H   0  0  0  0  0  0  0  0  0  0  0  0
   -8.3862    0.8892    0.4051 H   0  0  0  0  0  0  0  0  0  0  0  0
   -6.7791    1.5599    0.1446 H   0  0  0  0  0  0  0  0  0  0  0  0
   -7.2547    1.0134    1.7711 H   0  0  0  0  0  0  0  0  0  0  0  0
  1 11  1  0  0  0  0
  1 12  1  0  0  0  0
  2 16  1  0  0  0  0
  2 17  1  0  0  0  0
  3  9  1  0  0  0  0
  3 10  1  0  0  0  0
  3 13  1  0  0  0  0
  4 13  2  0  0  0  0
  4 16  1  0  0  0  0
  5 15  1  0  0  0  0
  5 16  2  0  0  0  0
  6  7  1  0  0  0  0
  6 15  1  0  0  0  0
  6 45  1  0  0  0  0
  7 22  2  3  0  0  0
  8 19  1  0  0  0  0
  8 29  2  0  0  0  0
  9 11  1  0  0  0  0
  9 32  1  0  0  0  0
  9 33  1  0  0  0  0
 10 12  1  0  0  0  0
 10 34  1  0  0  0  0
 10 35  1  0  0  0  0
 11 36  1  0  0  0  0
 11 37  1  0  0  0  0
 12 38  1  0  0  0  0
 12 39  1  0  0  0  0
 13 14  1  0  0  0  0
 14 15  2  0  0  0  0
 14 40  1  0  0  0  0
 17 18  1  0  0  0  0
 17 41  1  0  0  0  0
 17 42  1  0  0  0  0
 18 19  1  0  0  0  0
 18 43  1  0  0  0  0
 18 44  1  0  0  0  0
 19 20  2  0  0  0  0
 20 26  1  0  0  0  0
 20 46  1  0  0  0  0
 21 22  1  0  0  0  0
 21 24  1  0  0  0  0
 21 25  2  0  0  0  0
 22 47  1  0  0  0  0
 23 24  2  0  0  0  0
 23 27  1  0  0  0  0
 23 31  1  0  0  0  0
 24 48  1  0  0  0  0
 25 28  1  0  0  0  0
 25 49  1  0  0  0  0
 26 30  2  0  0  0  0
 26 50  1  0  0  0  0
 27 28  2  0  0  0  0
 27 51  1  0  0  0  0
 28 52  1  0  0  0  0
 29 30  1  0  0  0  0
 29 53  1  0  0  0  0
 30 54  1  0  0  0  0
 31 55  1  0  0  0  0
 31 56  1  0  0  0  0
 31 57  1  0  0  0  0
M  END
> <PUBCHEM_COMPOUND_CID>
49830988

> <PUBCHEM_CONFORMER_RMSD>
1.2

> <PUBCHEM_CONFORMER_DIVERSEORDER>
1
61
29
46
68
67
47
49
52
83
64
38
89
87
63
41
22
58
76
53
40
74
69
88
26
70
35
92
57
50
18
37
81
43
48
95
94
66
60
12
72
82
23
59
44
21
79
86
62
80
54
42
71
11
28
73
20
9
55
90
65
77
19
51
34
36
33
5
85
25
56
30
78
93
39
16
84
31
75
24
27
45
8
32
91
17
13
15
6
14
10
3
2
7
4

> <PUBCHEM_MMFF94_PARTIAL_CHARGES>
42
1 -0.56
10 0.37
11 0.28
12 0.28
13 0.41
14 -0.15
15 0.41
16 0.7
17 0.28
18 0.14
19 0.17
2 -0.36
20 -0.15
21 0.09
22 0.3
23 -0.14
24 -0.15
25 -0.15
26 -0.15
27 -0.15
28 -0.15
29 0.16
3 -0.84
30 -0.15
31 0.14
4 -0.62
40 0.15
45 0.4
46 0.15
47 0.06
48 0.15
49 0.15
5 -0.62
50 0.15
51 0.15
52 0.15
53 0.15
54 0.15
6 -0.46
7 -0.49
8 -0.62
9 0.37

> <PUBCHEM_EFFECTIVE_ROTOR_COUNT>
9.2

> <PUBCHEM_PHARMACOPHORE_FEATURES>
10
1 1 acceptor
1 6 donor
1 7 acceptor
1 8 acceptor
3 3 4 13 cation
3 4 5 16 cation
6 1 3 9 10 11 12 rings
6 21 23 24 25 27 28 rings
6 4 5 13 14 15 16 rings
6 8 19 20 26 29 30 rings

> <PUBCHEM_HEAVY_ATOM_COUNT>
31

> <PUBCHEM_ATOM_DEF_STEREO_COUNT>
0

> <PUBCHEM_ATOM_UDEF_STEREO_COUNT>
0

> <PUBCHEM_BOND_DEF_STEREO_COUNT>
0

> <PUBCHEM_BOND_UDEF_STEREO_COUNT>
1

> <PUBCHEM_ISOTOPIC_ATOM_COUNT>
0

> <PUBCHEM_COMPONENT_COUNT>
1

> <PUBCHEM_CACTVS_TAUTO_COUNT>
6

> <PUBCHEM_CONFORMER_ID>
02F85C4C00000001

> <PUBCHEM_MMFF94_ENERGY>
98.6369

> <PUBCHEM_FEATURE_SELFOVERLAP>
50.886

> <PUBCHEM_SHAPE_FINGERPRINT>
10411042 1 18411985771198643276
11136131 41 17907856554638364121
11331351 85 18271800233485640009
11456790 92 18337123323963636411
12107183 9 18342181106994307223
12516196 113 18411419531221697430
13004483 165 18341894108536296452
13540713 5 18188787033381444644
13590594 115 18411149047641199897
13782708 43 17894910788916310295
14028597 1 18041559131280424050
14394314 77 18339919415660007446
14849402 71 18194691595036846005
15021287 119 18130504245338322031
15131766 46 15050579765813793274
15347590 135 18336249229304328834
16990366 60 18336543914967769947
16992752 21 18411147913906516302
16993427 108 18335408067663793514
19301679 30 18339925909819669678
23559900 14 18196934581809702891
24771293 8 17844798377726941862
27425 322 12247390233822986740
3103668 31 18263649472665431549
3504750 166 18192990418335618706
3886686 26 17547288900879382146
5219985 9 18408603681963425606
6086070 43 18337371826328852095
6697151 62 18268977851809874167
9962374 69 18199464553939722623
9981440 41 17473550144920098080

> <PUBCHEM_SHAPE_MULTIPOLES>
596.34
21.71
6.53
1.18
8.28
11.86
-0.3
-29.42
-6.46
0.68
-1.39
-1.82
0.08
-2.55

> <PUBCHEM_SHAPE_SELFOVERLAP>
1272.766

> <PUBCHEM_SHAPE_VOLUME>
327.3

> <PUBCHEM_COORDINATE_TYPE>
2
5
10

$$$$
