44375773
  -OEChem-10052115143D

 39 41  0     0  0  0  0  0  0999 V2000
   -5.2760   -0.5137   -1.1645 S   0  0  0  0  0  0  0  0  0  0  0  0
    2.9125   -2.6035    1.4309 O   0  0  0  0  0  0  0  0  0  0  0  0
    6.0979   -1.1026   -1.5026 O   0  0  0  0  0  0  0  0  0  0  0  0
   -0.4485    0.1763    0.6953 N   0  0  0  0  0  0  0  0  0  0  0  0
    4.7308   -2.1831    0.0469 N   0  0  0  0  0  0  0  0  0  0  0  0
   -7.8382   -1.1093   -1.3241 N   0  0  0  0  0  0  0  0  0  0  0  0
   -6.8689   -1.3033    0.8205 N   0  0  0  0  0  0  0  0  0  0  0  0
    0.0225    1.4418    0.4272 C   0  0  0  0  0  0  0  0  0  0  0  0
   -1.8067   -0.1536    1.0699 C   0  0  0  0  0  0  0  0  0  0  0  0
    1.3766    1.3174    0.1086 C   0  0  0  0  0  0  0  0  0  0  0  0
    1.7006   -0.0655    0.1949 C   0  0  0  0  0  0  0  0  0  0  0  0
    0.5582   -0.7413    0.5575 C   0  0  0  0  0  0  0  0  0  0  0  0
   -2.7477   -0.1386   -0.1383 C   0  0  0  0  0  0  0  0  0  0  0  0
    2.9965   -0.7030   -0.0476 C   0  0  0  0  0  0  0  0  0  0  0  0
   -0.6396    2.6746    0.4422 C   0  0  0  0  0  0  0  0  0  0  0  0
    2.1076    2.4788   -0.2111 C   0  0  0  0  0  0  0  0  0  0  0  0
   -4.1645   -0.5311    0.2714 C   0  0  0  0  0  0  0  0  0  0  0  0
    0.1058    3.8128    0.1218 C   0  0  0  0  0  0  0  0  0  0  0  0
    1.4584    3.7187   -0.2002 C   0  0  0  0  0  0  0  0  0  0  0  0
    3.4972   -1.9487    0.5849 C   0  0  0  0  0  0  0  0  0  0  0  0
    3.9458   -0.2767   -0.8924 C   0  0  0  0  0  0  0  0  0  0  0  0
    5.0765   -1.2154   -0.8481 C   0  0  0  0  0  0  0  0  0  0  0  0
   -6.7968   -1.0310   -0.4431 C   0  0  0  0  0  0  0  0  0  0  0  0
   -2.1279    0.5640    1.8336 H   0  0  0  0  0  0  0  0  0  0  0  0
   -1.7972   -1.1448    1.5384 H   0  0  0  0  0  0  0  0  0  0  0  0
    0.3725   -1.7948    0.7223 H   0  0  0  0  0  0  0  0  0  0  0  0
   -2.3693   -0.8349   -0.8985 H   0  0  0  0  0  0  0  0  0  0  0  0
   -2.7536    0.8576   -0.5972 H   0  0  0  0  0  0  0  0  0  0  0  0
   -1.6911    2.7591    0.6947 H   0  0  0  0  0  0  0  0  0  0  0  0
    3.1653    2.4429   -0.4509 H   0  0  0  0  0  0  0  0  0  0  0  0
   -4.5415    0.1698    1.0239 H   0  0  0  0  0  0  0  0  0  0  0  0
   -4.1576   -1.5361    0.7068 H   0  0  0  0  0  0  0  0  0  0  0  0
   -0.3779    4.7862    0.1256 H   0  0  0  0  0  0  0  0  0  0  0  0
    2.0179    4.6185   -0.4422 H   0  0  0  0  0  0  0  0  0  0  0  0
    3.9274    0.5807   -1.5441 H   0  0  0  0  0  0  0  0  0  0  0  0
    5.3199   -2.9706    0.2925 H   0  0  0  0  0  0  0  0  0  0  0  0
   -8.7637   -1.3965   -1.0250 H   0  0  0  0  0  0  0  0  0  0  0  0
   -7.7157   -0.8820   -2.3049 H   0  0  0  0  0  0  0  0  0  0  0  0
   -7.8300   -1.5840    1.0442 H   0  0  0  0  0  0  0  0  0  0  0  0
  1 17  1  0  0  0  0
  1 23  1  0  0  0  0
  2 20  2  0  0  0  0
  3 22  2  0  0  0  0
  4  8  1  0  0  0  0
  4  9  1  0  0  0  0
  4 12  1  0  0  0  0
  5 20  1  0  0  0  0
  5 22  1  0  0  0  0
  5 36  1  0  0  0  0
  6 23  1  0  0  0  0
  6 37  1  0  0  0  0
  6 38  1  0  0  0  0
  7 23  2  0  0  0  0
  7 39  1  0  0  0  0
  8 10  1  0  0  0  0
  8 15  2  0  0  0  0
  9 13  1  0  0  0  0
  9 24  1  0  0  0  0
  9 25  1  0  0  0  0
 10 11  1  0  0  0  0
 10 16  2  0  0  0  0
 11 12  2  0  0  0  0
 11 14  1  0  0  0  0
 12 26  1  0  0  0  0
 13 17  1  0  0  0  0
 13 27  1  0  0  0  0
 13 28  1  0  0  0  0
 14 20  1  0  0  0  0
 14 21  2  0  0  0  0
 15 18  1  0  0  0  0
 15 29  1  0  0  0  0
 16 19  1  0  0  0  0
 16 30  1  0  0  0  0
 17 31  1  0  0  0  0
 17 32  1  0  0  0  0
 18 19  2  0  0  0  0
 18 33  1  0  0  0  0
 19 34  1  0  0  0  0
 21 22  1  0  0  0  0
 21 35  1  0  0  0  0
M  END
> <PUBCHEM_COMPOUND_CID>
44375773

> <PUBCHEM_CONFORMER_RMSD>
0.8

> <PUBCHEM_CONFORMER_DIVERSEORDER>
1
66
129
138
84
147
21
144
76
98
13
104
44
136
139
64
47
105
63
9
68
2
19
128
52
35
62
93
131
143
115
145
57
137
109
108
24
91
125
20
97
95
119
151
55
28
140
88
74
87
107
149
142
11
130
16
7
65
100
61
89
69
25
12
6
120
51
78
121
132
3
157
77
81
92
56
71
86
156
82
10
83
123
154
110
43
8
41
99
72
5
148
15
38
106
113
54
101
94
80
45
4
118
33
111
17
30
58
23
18
39
141
79
42
127
126
114
29
103
32
26
133
73
50
60
90
155
59
37
22
153
116
49
67
36
14
112
75
85
152
27
40
70
53
146
48
96
46
150
102
31
117
134
135
124
122
34

> <PUBCHEM_MMFF94_PARTIAL_CHARGES>
31
1 -0.37
11 -0.05
12 -0.3
14 0.06
15 -0.15
16 -0.15
17 0.23
18 -0.15
19 -0.15
2 -0.57
20 0.62
21 -0.14
22 0.62
23 0.64
26 0.15
29 0.15
3 -0.57
30 0.15
33 0.15
34 0.15
35 0.15
36 0.37
37 0.4
38 0.4
39 0.4
4 0.05
5 -0.49
6 -0.85
7 -0.85
8 -0.15
9 0.26

> <PUBCHEM_EFFECTIVE_ROTOR_COUNT>
6.2

> <PUBCHEM_PHARMACOPHORE_FEATURES>
10
1 2 acceptor
1 3 acceptor
1 4 cation
1 5 donor
1 6 donor
1 7 donor
3 6 7 23 cation
5 4 8 10 11 12 rings
5 5 14 20 21 22 rings
6 8 10 15 16 18 19 rings

> <PUBCHEM_HEAVY_ATOM_COUNT>
23

> <PUBCHEM_ATOM_DEF_STEREO_COUNT>
0

> <PUBCHEM_ATOM_UDEF_STEREO_COUNT>
0

> <PUBCHEM_BOND_DEF_STEREO_COUNT>
0

> <PUBCHEM_BOND_UDEF_STEREO_COUNT>
0

> <PUBCHEM_ISOTOPIC_ATOM_COUNT>
0

> <PUBCHEM_COMPONENT_COUNT>
1

> <PUBCHEM_CACTVS_TAUTO_COUNT>
3

> <PUBCHEM_CONFORMER_ID>
02A51EDD00000001

> <PUBCHEM_MMFF94_ENERGY>
40.0372

> <PUBCHEM_FEATURE_SELFOVERLAP>
50.876

> <PUBCHEM_SHAPE_FINGERPRINT>
10411042 1 18411136892487716856
10693767 8 18342738528839567662
11265709 11 18341334413698723313
12107183 9 18270690754035784377
12166972 35 18131632305391934289
12236239 1 17847066601537635307
12553582 1 18336274457261970458
12623949 98 17202777990350177622
12730499 353 18118126003377608585
12788726 201 18263082111400223794
13009979 54 17988652878389068825
13533116 47 18201155563698355833
13540713 4 17825960492036657675
13631057 29 18339366245794868914
13955234 65 18196368337242014441
14170010 4 18340201998284424632
14767858 380 18261408740949910030
14931854 50 18041006098454156198
15183329 4 18335136458875320603
16988056 13 18041557052722481565
17492 89 18050005485501320578
17844677 252 18410576211084071349
1813 80 18201729422298769436
18222031 100 18343018882665952178
19784866 240 18060704996369697063
20612939 158 18338237171717569817
20645477 70 18338233872966174891
21049683 271 18187938312545175493
2132832 1 18059862766147177489
221357 26 18333724720167864365
23559900 14 18338232795019269171
23622692 118 18272092682183524009
25147074 1 18129682858196326449
3004659 81 18201716276047675143
46194498 28 17676483994874404085
465052 167 18272655649052940767
59682541 52 18261103085291829671
70251023 43 18271248227525698354
7164475 11 18046909277968313074
7471813 234 18342174470594621005
7970288 3 18340767044208916223
8863177 126 18115879671210759571

> <PUBCHEM_SHAPE_MULTIPOLES>
445.52
15.11
3.6
1.11
28.91
4.27
0.12
-14.81
6.18
-3.52
-0.33
0.11
-0.47
-0.39

> <PUBCHEM_SHAPE_SELFOVERLAP>
953.439

> <PUBCHEM_SHAPE_VOLUME>
250.5

> <PUBCHEM_COORDINATE_TYPE>
2
5
10

$$$$
