5081913
  -OEChem-10062122033D

 33 34  0     0  0  0  0  0  0999 V2000
   -5.2681    2.9357   -1.0894 Cl  0  0  0  0  0  0  0  0  0  0  0  0
    4.9107    2.2448    0.1997 F   0  0  0  0  0  0  0  0  0  0  0  0
    3.3427    3.4210   -0.7288 F   0  0  0  0  0  0  0  0  0  0  0  0
    3.3692    3.1605    1.4300 F   0  0  0  0  0  0  0  0  0  0  0  0
    4.5403   -2.4067   -0.3191 F   0  0  0  0  0  0  0  0  0  0  0  0
    2.8647   -3.3346    0.6985 F   0  0  0  0  0  0  0  0  0  0  0  0
    2.8124   -3.0721   -1.4595 F   0  0  0  0  0  0  0  0  0  0  0  0
   -1.4584   -1.8898   -0.1439 O   0  0  0  0  0  0  0  0  0  0  0  0
   -3.8418   -2.3495    1.0394 O   0  0  0  0  0  0  0  0  0  0  0  0
   -0.8471    0.3457    0.0945 N   0  0  0  0  0  0  0  0  0  0  0  0
    0.5478    0.2390    0.0550 C   0  0  0  0  0  0  0  0  0  0  0  0
    2.7242    1.2764    0.1308 C   0  0  0  0  0  0  0  0  0  0  0  0
    2.5337   -1.1172   -0.1349 C   0  0  0  0  0  0  0  0  0  0  0  0
    1.1434   -1.0107   -0.0968 C   0  0  0  0  0  0  0  0  0  0  0  0
    1.3340    1.3829    0.1691 C   0  0  0  0  0  0  0  0  0  0  0  0
    3.3242    0.0264   -0.0212 C   0  0  0  0  0  0  0  0  0  0  0  0
    3.5698    2.4991    0.2532 C   0  0  0  0  0  0  0  0  0  0  0  0
    3.1753   -2.4538   -0.2981 C   0  0  0  0  0  0  0  0  0  0  0  0
   -3.1697   -0.2837    0.0215 C   0  0  0  0  0  0  0  0  0  0  0  0
   -1.7746   -0.7012   -0.0045 C   0  0  0  0  0  0  0  0  0  0  0  0
   -4.1571   -1.1206    0.5416 C   0  0  0  0  0  0  0  0  0  0  0  0
   -3.5130    0.9708   -0.4823 C   0  0  0  0  0  0  0  0  0  0  0  0
   -5.4878   -0.7028    0.5576 C   0  0  0  0  0  0  0  0  0  0  0  0
   -4.8437    1.3885   -0.4664 C   0  0  0  0  0  0  0  0  0  0  0  0
   -5.8311    0.5518    0.0538 C   0  0  0  0  0  0  0  0  0  0  0  0
    0.6133   -1.9453   -0.1920 H   0  0  0  0  0  0  0  0  0  0  0  0
    0.8702    2.3595    0.2877 H   0  0  0  0  0  0  0  0  0  0  0  0
    4.4073   -0.0565   -0.0509 H   0  0  0  0  0  0  0  0  0  0  0  0
   -1.1885    1.2901    0.2513 H   0  0  0  0  0  0  0  0  0  0  0  0
   -2.7753    1.6300   -0.9328 H   0  0  0  0  0  0  0  0  0  0  0  0
   -6.2619   -1.3497    0.9614 H   0  0  0  0  0  0  0  0  0  0  0  0
   -6.8721    0.8639    0.0726 H   0  0  0  0  0  0  0  0  0  0  0  0
   -2.8811   -2.4852    1.0350 H   0  0  0  0  0  0  0  0  0  0  0  0
  1 24  1  0  0  0  0
  2 17  1  0  0  0  0
  3 17  1  0  0  0  0
  4 17  1  0  0  0  0
  5 18  1  0  0  0  0
  6 18  1  0  0  0  0
  7 18  1  0  0  0  0
  8 20  2  0  0  0  0
  9 21  1  0  0  0  0
  9 33  1  0  0  0  0
 10 11  1  0  0  0  0
 10 20  1  0  0  0  0
 10 29  1  0  0  0  0
 11 14  2  0  0  0  0
 11 15  1  0  0  0  0
 12 15  2  0  0  0  0
 12 16  1  0  0  0  0
 12 17  1  0  0  0  0
 13 14  1  0  0  0  0
 13 16  2  0  0  0  0
 13 18  1  0  0  0  0
 14 26  1  0  0  0  0
 15 27  1  0  0  0  0
 16 28  1  0  0  0  0
 19 20  1  0  0  0  0
 19 21  2  0  0  0  0
 19 22  1  0  0  0  0
 21 23  1  0  0  0  0
 22 24  2  0  0  0  0
 22 30  1  0  0  0  0
 23 25  2  0  0  0  0
 23 31  1  0  0  0  0
 24 25  1  0  0  0  0
 25 32  1  0  0  0  0
M  END
> <PUBCHEM_COMPOUND_CID>
5081913

> <PUBCHEM_CONFORMER_RMSD>
0.8

> <PUBCHEM_CONFORMER_DIVERSEORDER>
1
6
3
5
2
4

> <PUBCHEM_MMFF94_PARTIAL_CHARGES>
33
1 -0.18
10 -0.55
11 0.12
12 -0.14
13 -0.14
14 -0.15
15 -0.15
16 -0.15
17 1.16
18 1.16
19 0.09
2 -0.34
20 0.54
21 0.08
22 -0.15
23 -0.15
24 0.18
25 -0.15
26 0.15
27 0.15
28 0.15
29 0.37
3 -0.34
30 0.15
31 0.15
32 0.15
33 0.45
4 -0.34
5 -0.34
6 -0.34
7 -0.34
8 -0.57
9 -0.53

> <PUBCHEM_EFFECTIVE_ROTOR_COUNT>
5

> <PUBCHEM_PHARMACOPHORE_FEATURES>
5
1 10 donor
1 8 acceptor
1 9 donor
6 11 12 13 14 15 16 rings
6 19 21 22 23 24 25 rings

> <PUBCHEM_HEAVY_ATOM_COUNT>
25

> <PUBCHEM_ATOM_DEF_STEREO_COUNT>
0

> <PUBCHEM_ATOM_UDEF_STEREO_COUNT>
0

> <PUBCHEM_BOND_DEF_STEREO_COUNT>
0

> <PUBCHEM_BOND_UDEF_STEREO_COUNT>
0

> <PUBCHEM_ISOTOPIC_ATOM_COUNT>
0

> <PUBCHEM_COMPONENT_COUNT>
1

> <PUBCHEM_CACTVS_TAUTO_COUNT>
7

> <PUBCHEM_CONFORMER_ID>
004D8B3900000001

> <PUBCHEM_MMFF94_ENERGY>
61.3659

> <PUBCHEM_FEATURE_SELFOVERLAP>
25.371

> <PUBCHEM_SHAPE_FINGERPRINT>
10369192 42 18117842320629985532
10411042 1 18052260588281987198
1100329 8 16463327567080353091
11370993 144 18336544924543586269
11405975 8 18409167671647131187
12107183 9 17982178812121899881
12403259 415 18260548879986722973
12507560 40 18408042918570318477
12730499 353 18339370771925605562
12769317 202 18200588219598024760
13533116 47 18343865511489092577
13583140 156 18200312246811438789
13757389 114 17543646674006848628
13955234 65 18341612629164424426
14341114 176 18335710438209780121
14790565 3 17976543037625422116
15042514 8 17546443376300160682
15081414 286 18408045117299026045
15196674 1 18410011022988471629
15927050 60 18125157389244285302
15961568 22 17604433023476216812
16992752 21 17832992642624693138
17349148 13 16558747876258762127
17844677 252 18410017598557047497
17868525 174 18192141608000875344
20369508 70 18338234852071506006
20645477 70 18272374152537901590
20832881 197 18044938969662640883
21033648 29 17458618966214338157
21065198 57 18408323268202391391
21065199 12 18335423499865818499
21065201 7 17676488328870678595
21279426 13 18192993708564975629
21315764 268 18334853888639953173
21452121 103 18410004451408914672
21859007 373 17460573858912090973
221490 88 18409736148780525978
22393880 68 18200600322978901582
23559900 14 18341326691305223291
239999 70 18412267207711110630
245318 6 16448144951825594133
268830 7 17917164840032335043
3004659 81 17751930112288860562
314173 41 18267027159010323078
3411729 13 18335416907291427352
3421961 26 18410855421974817538
3545911 37 18409732902117708929
4073 2 18114468945592858027
4214541 1 18335703789568536463
495365 180 18059565910470176834
5104073 3 18334861606579698347
5281201 14 18335704914512559557
57724786 102 18343028753102295609
59755656 215 18410577292951918276
633830 44 18335410232806910175
7364860 26 18342177774178423326
77779 3 18408887339242419299
7808743 9 17330271083881785720
8272917 22 18413392055387259046
90127 26 18187652375624653033
9709674 26 18335144228102199451
9841814 1 18262795160440612890
9995097 60 18410291414968655528

> <PUBCHEM_SHAPE_MULTIPOLES>
456
13.06
3.91
0.89
10.49
0.75
0.03
3.42
0.24
-4.54
0.17
0.04
0.05
2.4

> <PUBCHEM_SHAPE_SELFOVERLAP>
984.769

> <PUBCHEM_SHAPE_VOLUME>
253.4

> <PUBCHEM_COORDINATE_TYPE>
2
5
10

$$$$
