135654401
  -OEChem-10052120433D

 36 40  0     0  0  0  0  0  0999 V2000
    3.9327    1.3945   -0.0043 S   0  0  0  0  0  0  0  0  0  0  0  0
   -0.3874    3.9400   -0.0068 O   0  0  0  0  0  0  0  0  0  0  0  0
   -0.3714    1.6721   -0.0045 N   0  0  0  0  0  0  0  0  0  0  0  0
    1.6661    2.7870   -0.0078 N   0  0  0  0  0  0  0  0  0  0  0  0
   -0.6971   -0.5102    0.0010 N   0  0  0  0  0  0  0  0  0  0  0  0
   -1.7127    1.5525   -0.0010 N   0  0  0  0  0  0  0  0  0  0  0  0
   -5.5488   -0.2042    0.0125 N   0  0  0  0  0  0  0  0  0  0  0  0
    2.4894   -0.7667   -0.0105 C   0  0  0  0  0  0  0  0  0  0  0  0
    2.1516   -2.2259    0.0061 C   0  0  0  0  0  0  0  0  0  0  0  0
    3.3622   -3.0986   -0.3615 C   0  0  0  0  0  0  0  0  0  0  0  0
    4.6359   -2.6381    0.3616 C   0  0  0  0  0  0  0  0  0  0  0  0
    3.8044   -0.3163    0.0011 C   0  0  0  0  0  0  0  0  0  0  0  0
    5.0143   -1.1975   -0.0151 C   0  0  0  0  0  0  0  0  0  0  0  0
    1.5994    0.3358   -0.0090 C   0  0  0  0  0  0  0  0  0  0  0  0
    2.2568    1.5385   -0.0081 C   0  0  0  0  0  0  0  0  0  0  0  0
    0.2180    0.4269   -0.0047 C   0  0  0  0  0  0  0  0  0  0  0  0
    0.2762    2.9144   -0.0067 C   0  0  0  0  0  0  0  0  0  0  0  0
   -1.8538    0.2225    0.0028 C   0  0  0  0  0  0  0  0  0  0  0  0
   -3.1403   -0.4146    0.0073 C   0  0  0  0  0  0  0  0  0  0  0  0
   -3.2541   -1.8004    0.0100 C   0  0  0  0  0  0  0  0  0  0  0  0
   -4.3077    0.3318    0.0086 C   0  0  0  0  0  0  0  0  0  0  0  0
   -4.5139   -2.3890    0.0140 C   0  0  0  0  0  0  0  0  0  0  0  0
   -5.6197   -1.5542    0.0152 C   0  0  0  0  0  0  0  0  0  0  0  0
    1.8058   -2.4916    1.0127 H   0  0  0  0  0  0  0  0  0  0  0  0
    1.3314   -2.4378   -0.6890 H   0  0  0  0  0  0  0  0  0  0  0  0
    3.5303   -3.0550   -1.4454 H   0  0  0  0  0  0  0  0  0  0  0  0
    3.1472   -4.1439   -0.1129 H   0  0  0  0  0  0  0  0  0  0  0  0
    5.4677   -3.3091    0.1191 H   0  0  0  0  0  0  0  0  0  0  0  0
    4.4761   -2.7049    1.4456 H   0  0  0  0  0  0  0  0  0  0  0  0
    5.4463   -1.1879   -1.0234 H   0  0  0  0  0  0  0  0  0  0  0  0
    5.7797   -0.8296    0.6774 H   0  0  0  0  0  0  0  0  0  0  0  0
    2.2637    3.6071   -0.0077 H   0  0  0  0  0  0  0  0  0  0  0  0
   -2.3797   -2.4460    0.0091 H   0  0  0  0  0  0  0  0  0  0  0  0
   -4.3059    1.4178    0.0065 H   0  0  0  0  0  0  0  0  0  0  0  0
   -4.6269   -3.4671    0.0162 H   0  0  0  0  0  0  0  0  0  0  0  0
   -6.6245   -1.9636    0.0183 H   0  0  0  0  0  0  0  0  0  0  0  0
  1 12  1  0  0  0  0
  1 15  1  0  0  0  0
  2 17  2  0  0  0  0
  3  6  1  0  0  0  0
  3 16  1  0  0  0  0
  3 17  1  0  0  0  0
  4 15  1  0  0  0  0
  4 17  1  0  0  0  0
  4 32  1  0  0  0  0
  5 16  2  0  0  0  0
  5 18  1  0  0  0  0
  6 18  2  0  0  0  0
  7 21  1  0  0  0  0
  7 23  2  0  0  0  0
  8  9  1  0  0  0  0
  8 12  2  0  0  0  0
  8 14  1  0  0  0  0
  9 10  1  0  0  0  0
  9 24  1  0  0  0  0
  9 25  1  0  0  0  0
 10 11  1  0  0  0  0
 10 26  1  0  0  0  0
 10 27  1  0  0  0  0
 11 13  1  0  0  0  0
 11 28  1  0  0  0  0
 11 29  1  0  0  0  0
 12 13  1  0  0  0  0
 13 30  1  0  0  0  0
 13 31  1  0  0  0  0
 14 15  2  0  0  0  0
 14 16  1  0  0  0  0
 18 19  1  0  0  0  0
 19 20  1  0  0  0  0
 19 21  2  0  0  0  0
 20 22  2  0  0  0  0
 20 33  1  0  0  0  0
 21 34  1  0  0  0  0
 22 23  1  0  0  0  0
 22 35  1  0  0  0  0
 23 36  1  0  0  0  0
M  END
> <PUBCHEM_COMPOUND_CID>
135654401

> <PUBCHEM_CONFORMER_RMSD>
0.6

> <PUBCHEM_CONFORMER_DIVERSEORDER>
1
2

> <PUBCHEM_MMFF94_PARTIAL_CHARGES>
25
1 -0.08
12 -0.14
13 0.18
15 0.1
16 0.19
17 0.64
18 0.46
19 0.05
2 -0.57
20 -0.15
21 0.16
22 -0.15
23 0.16
3 0.56
32 0.37
33 0.15
34 0.15
35 0.15
36 0.15
4 -0.49
5 -0.57
6 -0.71
7 -0.62
8 -0.18
9 0.18

> <PUBCHEM_EFFECTIVE_ROTOR_COUNT>
1.8

> <PUBCHEM_PHARMACOPHORE_FEATURES>
9
1 2 acceptor
1 4 donor
1 7 acceptor
3 5 6 18 cation
5 1 8 12 14 15 rings
5 3 5 6 16 18 rings
6 3 4 14 15 16 17 rings
6 7 19 20 21 22 23 rings
6 8 9 10 11 12 13 rings

> <PUBCHEM_HEAVY_ATOM_COUNT>
23

> <PUBCHEM_ATOM_DEF_STEREO_COUNT>
0

> <PUBCHEM_ATOM_UDEF_STEREO_COUNT>
0

> <PUBCHEM_BOND_DEF_STEREO_COUNT>
0

> <PUBCHEM_BOND_UDEF_STEREO_COUNT>
0

> <PUBCHEM_ISOTOPIC_ATOM_COUNT>
0

> <PUBCHEM_COMPONENT_COUNT>
1

> <PUBCHEM_CACTVS_TAUTO_COUNT>
-1

> <PUBCHEM_CONFORMER_ID>
0815EC0100000001

> <PUBCHEM_MMFF94_ENERGY>
45.4245

> <PUBCHEM_FEATURE_SELFOVERLAP>
45.955

> <PUBCHEM_SHAPE_FINGERPRINT>
10411042 1 18410575042093610338
10622 236 17700672216042275215
10906281 52 18188787165829325416
10967382 1 18338799034901678028
1100329 8 17907857654550242388
11045515 52 18114463370588515069
11963148 33 18335975484826762394
12107183 9 18269848523617403057
12553582 1 18340474621607877366
12788726 201 18189614930174745018
13004483 165 18340197501527323739
13140716 1 18270118989838722024
13533116 47 18268711783181469259
13544653 18 18334301958775794203
138480 1 18410856607059009828
13955234 65 18053667163989900321
14117953 113 18200313213068928535
14767858 380 18262253196155933310
14790565 3 17760934343557455500
14863182 85 18337113483702774870
14866123 147 17907861704487936689
15042514 8 18195528078029082984
15196674 1 18410574006885107755
15250474 111 18056752355116163135
15352361 1 18410573959429522891
15475509 84 17845943935298848249
15927050 60 17765434640765665604
16087824 20 18193840332788447077
17492 89 18194681467583433822
19141452 34 18196378004854597361
20028762 73 18272646853008086494
20645477 70 18262233421150588155
21033650 10 16588581985769336877
21065198 57 18338517577363305931
21250096 35 18411418410313925543
21267235 1 18411707564813597734
21279426 13 18262794069734833653
21478907 32 18337953381073154081
221490 88 18263368151763652427
22950370 63 18410296904132168523
23559900 14 18338791338436432313
239999 70 18202009858605596502
2871803 45 18261109656074873066
3004659 81 18113899347267542782
314173 41 18411144657530157775
314194 84 18340488984115619507
335352 9 18410573947404256597
33824 294 18338796827225139002
3421961 26 18412260670443293040
3882209 13 17180771114755011523
4073 2 18115029743984182251
4214541 1 18410575076780006561
46194498 28 17531525507276266437
463206 1 18336548316871885258
465052 167 18343588451232847406
5104073 3 18343582923525041705
5283173 99 18042677313268185605
5309563 4 18411981347303583670
59755656 215 18408889568525676950
6443956 14 18408324405851721332
7164475 11 18335143038364733532
7970288 3 18337668612031302370
8863177 126 17896898736273061539
9709674 26 18190745426250969091
9981440 41 17257647249802680193

> <PUBCHEM_SHAPE_MULTIPOLES>
446.4
11.28
3.81
0.61
9.17
1.44
0
-8.86
-0.21
-2.18
0.05
-0.09
-0.07
-0.02

> <PUBCHEM_SHAPE_SELFOVERLAP>
1002.953

> <PUBCHEM_SHAPE_VOLUME>
239.3

> <PUBCHEM_COORDINATE_TYPE>
2
5
10

$$$$
