9826083
  -OEChem-10052115143D

 64 69  0     0  0  0  0  0  0999 V2000
    4.8654    4.0040   -0.2759 F   0  0  0  0  0  0  0  0  0  0  0  0
    4.3882   -1.2461    0.7218 N   0  0  0  0  0  0  0  0  0  0  0  0
   -5.4989   -0.2394    0.1011 N   0  0  0  0  0  0  0  0  0  0  0  0
   -8.3412    0.0450    0.1102 N   0  0  0  0  0  0  0  0  0  0  0  0
   -0.0728   -0.1108   -0.1770 N   0  0  0  0  0  0  0  0  0  0  0  0
    2.1592   -0.6606    0.2814 N   0  0  0  0  0  0  0  0  0  0  0  0
   -3.4022    0.9083    0.0374 N   0  0  0  0  0  0  0  0  0  0  0  0
    3.0486   -2.7794   -0.4443 N   0  0  0  0  0  0  0  0  0  0  0  0
   -1.1578    1.8297   -0.0434 N   0  0  0  0  0  0  0  0  0  0  0  0
    5.5322   -2.1314    0.6706 C   0  0  0  0  0  0  0  0  0  0  0  0
    6.5874   -1.7080    1.6851 C   0  0  0  0  0  0  0  0  0  0  0  0
    6.2664   -1.9875   -0.6567 C   0  0  0  0  0  0  0  0  0  0  0  0
    7.3441   -0.5650    1.0117 C   0  0  0  0  0  0  0  0  0  0  0  0
    7.1327   -0.7408   -0.4919 C   0  0  0  0  0  0  0  0  0  0  0  0
   -6.1252    0.8727    0.8272 C   0  0  0  0  0  0  0  0  0  0  0  0
   -6.2985   -0.8202   -0.9819 C   0  0  0  0  0  0  0  0  0  0  0  0
   -7.5460    0.5005    1.2573 C   0  0  0  0  0  0  0  0  0  0  0  0
   -7.7144   -1.1369   -0.4940 C   0  0  0  0  0  0  0  0  0  0  0  0
    3.1370   -1.5784    0.1584 C   0  0  0  0  0  0  0  0  0  0  0  0
   -4.1020   -0.2724    0.0271 C   0  0  0  0  0  0  0  0  0  0  0  0
   -9.7115   -0.2555    0.5233 C   0  0  0  0  0  0  0  0  0  0  0  0
   -1.4009   -0.4350   -0.1204 C   0  0  0  0  0  0  0  0  0  0  0  0
    0.9856   -1.0174   -0.2684 C   0  0  0  0  0  0  0  0  0  0  0  0
   -3.4815   -1.5343   -0.0552 C   0  0  0  0  0  0  0  0  0  0  0  0
   -2.0531    0.7899   -0.0378 C   0  0  0  0  0  0  0  0  0  0  0  0
   -2.0953   -1.6397   -0.1319 C   0  0  0  0  0  0  0  0  0  0  0  0
    0.0219    1.2541   -0.1281 C   0  0  0  0  0  0  0  0  0  0  0  0
    0.7574   -2.2104   -0.9128 C   0  0  0  0  0  0  0  0  0  0  0  0
    1.8396   -3.0644   -0.9712 C   0  0  0  0  0  0  0  0  0  0  0  0
    1.2807    1.9686   -0.1667 C   0  0  0  0  0  0  0  0  0  0  0  0
    1.9458    2.2629    1.0203 C   0  0  0  0  0  0  0  0  0  0  0  0
    1.8186    2.3575   -1.3905 C   0  0  0  0  0  0  0  0  0  0  0  0
    3.1583    2.9515    0.9833 C   0  0  0  0  0  0  0  0  0  0  0  0
    3.0312    3.0460   -1.4274 C   0  0  0  0  0  0  0  0  0  0  0  0
    3.7010    3.3430   -0.2406 C   0  0  0  0  0  0  0  0  0  0  0  0
    5.2290   -3.1667    0.8632 H   0  0  0  0  0  0  0  0  0  0  0  0
    6.1675   -1.4056    2.6498 H   0  0  0  0  0  0  0  0  0  0  0  0
    7.2800   -2.5394    1.8663 H   0  0  0  0  0  0  0  0  0  0  0  0
    6.9166   -2.8575   -0.8115 H   0  0  0  0  0  0  0  0  0  0  0  0
    5.6064   -1.9084   -1.5262 H   0  0  0  0  0  0  0  0  0  0  0  0
    8.4060   -0.5817    1.2774 H   0  0  0  0  0  0  0  0  0  0  0  0
    6.9422    0.4029    1.3331 H   0  0  0  0  0  0  0  0  0  0  0  0
    6.6186    0.1377   -0.8993 H   0  0  0  0  0  0  0  0  0  0  0  0
    8.0819   -0.8419   -1.0278 H   0  0  0  0  0  0  0  0  0  0  0  0
    4.4701   -0.3246    1.1360 H   0  0  0  0  0  0  0  0  0  0  0  0
   -5.5478    1.1187    1.7272 H   0  0  0  0  0  0  0  0  0  0  0  0
   -6.1445    1.7649    0.1883 H   0  0  0  0  0  0  0  0  0  0  0  0
   -6.3375   -0.1122   -1.8198 H   0  0  0  0  0  0  0  0  0  0  0  0
   -5.8530   -1.7457   -1.3638 H   0  0  0  0  0  0  0  0  0  0  0  0
   -7.5030   -0.2768    2.0322 H   0  0  0  0  0  0  0  0  0  0  0  0
   -8.0104    1.3857    1.7085 H   0  0  0  0  0  0  0  0  0  0  0  0
   -8.3050   -1.4758   -1.3538 H   0  0  0  0  0  0  0  0  0  0  0  0
   -7.6775   -1.9668    0.2247 H   0  0  0  0  0  0  0  0  0  0  0  0
  -10.1911    0.6366    0.9411 H   0  0  0  0  0  0  0  0  0  0  0  0
  -10.3145   -0.5608   -0.3391 H   0  0  0  0  0  0  0  0  0  0  0  0
   -9.7541   -1.0533    1.2736 H   0  0  0  0  0  0  0  0  0  0  0  0
   -4.0723   -2.4470   -0.0280 H   0  0  0  0  0  0  0  0  0  0  0  0
   -1.6422   -2.6209   -0.1179 H   0  0  0  0  0  0  0  0  0  0  0  0
   -0.1299   -2.4769   -1.4665 H   0  0  0  0  0  0  0  0  0  0  0  0
    1.7718   -4.0182   -1.4838 H   0  0  0  0  0  0  0  0  0  0  0  0
    1.5349    1.9650    1.9820 H   0  0  0  0  0  0  0  0  0  0  0  0
    1.3082    2.1326   -2.3237 H   0  0  0  0  0  0  0  0  0  0  0  0
    3.6806    3.1822    1.9071 H   0  0  0  0  0  0  0  0  0  0  0  0
    3.4543    3.3505   -2.3801 H   0  0  0  0  0  0  0  0  0  0  0  0
  1 35  1  0  0  0  0
  2 10  1  0  0  0  0
  2 19  1  0  0  0  0
  2 45  1  0  0  0  0
  3 15  1  0  0  0  0
  3 16  1  0  0  0  0
  3 20  1  0  0  0  0
  4 17  1  0  0  0  0
  4 18  1  0  0  0  0
  4 21  1  0  0  0  0
  5 22  1  0  0  0  0
  5 23  1  0  0  0  0
  5 27  1  0  0  0  0
  6 19  1  0  0  0  0
  6 23  2  0  0  0  0
  7 20  2  0  0  0  0
  7 25  1  0  0  0  0
  8 19  2  0  0  0  0
  8 29  1  0  0  0  0
  9 25  1  0  0  0  0
  9 27  2  0  0  0  0
 10 11  1  0  0  0  0
 10 12  1  0  0  0  0
 10 36  1  0  0  0  0
 11 13  1  0  0  0  0
 11 37  1  0  0  0  0
 11 38  1  0  0  0  0
 12 14  1  0  0  0  0
 12 39  1  0  0  0  0
 12 40  1  0  0  0  0
 13 14  1  0  0  0  0
 13 41  1  0  0  0  0
 13 42  1  0  0  0  0
 14 43  1  0  0  0  0
 14 44  1  0  0  0  0
 15 17  1  0  0  0  0
 15 46  1  0  0  0  0
 15 47  1  0  0  0  0
 16 18  1  0  0  0  0
 16 48  1  0  0  0  0
 16 49  1  0  0  0  0
 17 50  1  0  0  0  0
 17 51  1  0  0  0  0
 18 52  1  0  0  0  0
 18 53  1  0  0  0  0
 20 24  1  0  0  0  0
 21 54  1  0  0  0  0
 21 55  1  0  0  0  0
 21 56  1  0  0  0  0
 22 25  2  0  0  0  0
 22 26  1  0  0  0  0
 23 28  1  0  0  0  0
 24 26  2  0  0  0  0
 24 57  1  0  0  0  0
 26 58  1  0  0  0  0
 27 30  1  0  0  0  0
 28 29  2  0  0  0  0
 28 59  1  0  0  0  0
 29 60  1  0  0  0  0
 30 31  2  0  0  0  0
 30 32  1  0  0  0  0
 31 33  1  0  0  0  0
 31 61  1  0  0  0  0
 32 34  2  0  0  0  0
 32 62  1  0  0  0  0
 33 35  2  0  0  0  0
 33 63  1  0  0  0  0
 34 35  1  0  0  0  0
 34 64  1  0  0  0  0
M  END
> <PUBCHEM_COMPOUND_CID>
9826083

> <PUBCHEM_CONFORMER_RMSD>
1

> <PUBCHEM_CONFORMER_DIVERSEORDER>
1
36
37
32
40
2
21
19
25
9
34
8
29
31
44
10
15
45
22
46
14
3
39
13
33
17
6
12
41
11
4
42
24
30
5
7
28
16
35
27
18
20
38
43
23
26

> <PUBCHEM_MMFF94_PARTIAL_CHARGES>
40
1 -0.19
10 0.37
15 0.37
16 0.37
17 0.27
18 0.27
19 0.72
2 -0.87
20 0.41
21 0.27
22 -0.15
23 0.29
24 -0.15
25 0.48
26 -0.15
27 0.13
28 -0.15
29 0.16
3 -0.84
30 0.05
31 -0.15
32 -0.15
33 -0.15
34 -0.15
35 0.19
4 -0.81
45 0.4
5 0.33
57 0.15
58 0.15
59 0.15
6 -0.62
60 0.15
61 0.15
62 0.15
63 0.15
64 0.15
7 -0.57
8 -0.62
9 -0.57

> <PUBCHEM_EFFECTIVE_ROTOR_COUNT>
7.2

> <PUBCHEM_PHARMACOPHORE_FEATURES>
11
1 2 donor
1 4 cation
3 3 7 20 cation
3 5 9 27 cation
4 2 6 8 19 cation
5 10 11 12 13 14 rings
5 5 9 22 25 27 rings
6 3 4 15 16 17 18 rings
6 30 31 32 33 34 35 rings
6 6 8 19 23 28 29 rings
6 7 20 22 24 25 26 rings

> <PUBCHEM_HEAVY_ATOM_COUNT>
35

> <PUBCHEM_ATOM_DEF_STEREO_COUNT>
0

> <PUBCHEM_ATOM_UDEF_STEREO_COUNT>
0

> <PUBCHEM_BOND_DEF_STEREO_COUNT>
0

> <PUBCHEM_BOND_UDEF_STEREO_COUNT>
0

> <PUBCHEM_ISOTOPIC_ATOM_COUNT>
0

> <PUBCHEM_COMPONENT_COUNT>
1

> <PUBCHEM_CACTVS_TAUTO_COUNT>
3

> <PUBCHEM_CONFORMER_ID>
0095EF2300000001

> <PUBCHEM_MMFF94_ENERGY>
116.0348

> <PUBCHEM_FEATURE_SELFOVERLAP>
55.952

> <PUBCHEM_SHAPE_FINGERPRINT>
10050765 1 18193557989753186123
10162869 55 18272080605373525095
10411042 1 18123473778584921470
10816530 90 18339935874222132158
1100329 8 18339920515393161918
11963148 33 17687180211399207306
12107698 1 18334854991844914665
12133447 93 18057898951873727893
12522641 24 17917424363336763560
12522641 33 18189618418828457612
12857493 111 18335136466917421949
12977781 61 17242470523009989992
13140716 1 18339360867594254011
13383668 362 18196921387089837130
13540713 5 18126837420455223855
13560911 43 18334009458776472769
14170010 4 18411135840294478456
14400156 266 17987814998857291572
14790565 3 17834120027867020653
14849402 71 18341613754198455616
14910700 183 18408598141799486226
14955137 171 18272371954237130878
15439362 3 18116154548911877460
15461852 350 15913031094815413613
1577012 14 18059862788507768665
15840311 113 17561078116525577282
15849732 13 17846776291096233406
15927050 60 17980761855661973118
16090146 7 17560534966055755815
18365409 1 17203032084515107911
20771845 171 17823141287924722188
21033648 29 17631430376909617874
21049683 271 18261117361647324068
21267235 1 18411702049832860119
21781055 127 16988021430936945611
21792934 111 18411412900577981217
22311459 1 18409166580251392091
23559900 14 18334573585381880818
24771293 8 18201718422924577219
24771750 20 18189063143421880276
249057 25 17917439696823223121
249057 3 18410573994042579295
3178227 256 18409730646964622522
335352 9 18411421717317541519
3411729 13 18336265759568099609
350125 39 18411419509809878580
4112364 45 16415185819862383344
4149490 64 18335145345342206091
5104073 3 18338245963647565723
57527306 92 14836108954279797858
59521660 218 18114462344038271724
6086070 43 17417253276865743433
9962374 69 18409724089230023791

> <PUBCHEM_SHAPE_MULTIPOLES>
673.16
22.85
3.81
1.13
38.11
2.68
-0.07
-7.34
-5.66
-7.81
0.76
-0.81
0.12
-1.37

> <PUBCHEM_SHAPE_SELFOVERLAP>
1484.525

> <PUBCHEM_SHAPE_VOLUME>
364.8

> <PUBCHEM_COORDINATE_TYPE>
2
5
10

$$$$
