5480817
  -OEChem-10052115143D

 36 41  0     0  0  0  0  0  0999 V2000
    3.8550    3.8878    0.0004 Cl  0  0  0  0  0  0  0  0  0  0  0  0
   -3.8548    3.8877   -0.0012 Cl  0  0  0  0  0  0  0  0  0  0  0  0
    2.3075   -3.5366   -0.0016 O   0  0  0  0  0  0  0  0  0  0  0  0
   -2.3075   -3.5364   -0.0003 O   0  0  0  0  0  0  0  0  0  0  0  0
    1.3919    1.8896    0.0009 N   0  0  0  0  0  0  0  0  0  0  0  0
   -1.3918    1.8897    0.0003 N   0  0  0  0  0  0  0  0  0  0  0  0
   -0.0001   -3.9267   -0.0004 N   0  0  0  0  0  0  0  0  0  0  0  0
    1.3408   -0.5562    0.0005 C   0  0  0  0  0  0  0  0  0  0  0  0
   -1.3409   -0.5562    0.0009 C   0  0  0  0  0  0  0  0  0  0  0  0
    0.6999    0.7280    0.0008 C   0  0  0  0  0  0  0  0  0  0  0  0
   -0.6999    0.7280    0.0008 C   0  0  0  0  0  0  0  0  0  0  0  0
    0.6944   -1.7890    0.0006 C   0  0  0  0  0  0  0  0  0  0  0  0
   -0.6946   -1.7890    0.0010 C   0  0  0  0  0  0  0  0  0  0  0  0
    2.7088   -0.0185    0.0001 C   0  0  0  0  0  0  0  0  0  0  0  0
   -2.7088   -0.0185    0.0006 C   0  0  0  0  0  0  0  0  0  0  0  0
    2.6956    1.4170    0.0004 C   0  0  0  0  0  0  0  0  0  0  0  0
   -2.6957    1.4171    0.0000 C   0  0  0  0  0  0  0  0  0  0  0  0
    1.1497   -3.1684   -0.0004 C   0  0  0  0  0  0  0  0  0  0  0  0
   -1.1498   -3.1682    0.0003 C   0  0  0  0  0  0  0  0  0  0  0  0
    3.9745   -0.6529   -0.0003 C   0  0  0  0  0  0  0  0  0  0  0  0
   -3.9746   -0.6528    0.0006 C   0  0  0  0  0  0  0  0  0  0  0  0
    3.8821    2.1665    0.0000 C   0  0  0  0  0  0  0  0  0  0  0  0
   -3.8820    2.1665   -0.0010 C   0  0  0  0  0  0  0  0  0  0  0  0
    5.1513    0.1039   -0.0008 C   0  0  0  0  0  0  0  0  0  0  0  0
   -5.1512    0.1040   -0.0002 C   0  0  0  0  0  0  0  0  0  0  0  0
    5.1036    1.4918   -0.0009 C   0  0  0  0  0  0  0  0  0  0  0  0
   -5.1034    1.4918   -0.0011 C   0  0  0  0  0  0  0  0  0  0  0  0
    1.0506    2.8421    0.0011 H   0  0  0  0  0  0  0  0  0  0  0  0
   -1.0506    2.8421   -0.0001 H   0  0  0  0  0  0  0  0  0  0  0  0
   -0.0002   -4.9407   -0.0012 H   0  0  0  0  0  0  0  0  0  0  0  0
    4.0520   -1.7353   -0.0004 H   0  0  0  0  0  0  0  0  0  0  0  0
   -4.0521   -1.7354    0.0012 H   0  0  0  0  0  0  0  0  0  0  0  0
    6.1128   -0.4027   -0.0012 H   0  0  0  0  0  0  0  0  0  0  0  0
   -6.1129   -0.4024   -0.0002 H   0  0  0  0  0  0  0  0  0  0  0  0
    6.0383    2.0484   -0.0014 H   0  0  0  0  0  0  0  0  0  0  0  0
   -6.0381    2.0485   -0.0017 H   0  0  0  0  0  0  0  0  0  0  0  0
  1 22  1  0  0  0  0
  2 23  1  0  0  0  0
  3 18  2  0  0  0  0
  4 19  2  0  0  0  0
  5 10  1  0  0  0  0
  5 16  1  0  0  0  0
  5 28  1  0  0  0  0
  6 11  1  0  0  0  0
  6 17  1  0  0  0  0
  6 29  1  0  0  0  0
  7 18  1  0  0  0  0
  7 19  1  0  0  0  0
  7 30  1  0  0  0  0
  8 10  1  0  0  0  0
  8 12  2  0  0  0  0
  8 14  1  0  0  0  0
  9 11  1  0  0  0  0
  9 13  2  0  0  0  0
  9 15  1  0  0  0  0
 10 11  2  0  0  0  0
 12 13  1  0  0  0  0
 12 18  1  0  0  0  0
 13 19  1  0  0  0  0
 14 16  2  0  0  0  0
 14 20  1  0  0  0  0
 15 17  2  0  0  0  0
 15 21  1  0  0  0  0
 16 22  1  0  0  0  0
 17 23  1  0  0  0  0
 20 24  2  0  0  0  0
 20 31  1  0  0  0  0
 21 25  2  0  0  0  0
 21 32  1  0  0  0  0
 22 26  2  0  0  0  0
 23 27  2  0  0  0  0
 24 26  1  0  0  0  0
 24 33  1  0  0  0  0
 25 27  1  0  0  0  0
 25 34  1  0  0  0  0
 26 35  1  0  0  0  0
 27 36  1  0  0  0  0
M  END
> <PUBCHEM_COMPOUND_CID>
5480817

> <PUBCHEM_CONFORMER_RMSD>
0.6

> <PUBCHEM_CONFORMER_DIVERSEORDER>
1

> <PUBCHEM_MMFF94_PARTIAL_CHARGES>
34
1 -0.18
10 -0.05
11 -0.05
12 0.09
13 0.09
16 -0.15
17 -0.15
18 0.54
19 0.54
2 -0.18
20 -0.15
21 -0.15
22 0.18
23 0.18
24 -0.15
25 -0.15
26 -0.15
27 -0.15
28 0.27
29 0.27
3 -0.57
30 0.37
31 0.15
32 0.15
33 0.15
34 0.15
35 0.15
36 0.15
4 -0.57
5 -0.05
6 -0.05
7 -0.49
8 -0.01
9 -0.01

> <PUBCHEM_EFFECTIVE_ROTOR_COUNT>
0.2

> <PUBCHEM_PHARMACOPHORE_FEATURES>
13
1 3 acceptor
1 4 acceptor
1 5 cation
1 5 donor
1 6 cation
1 6 donor
1 7 donor
5 5 8 10 14 16 rings
5 6 9 11 15 17 rings
5 7 12 13 18 19 rings
6 14 16 20 22 24 26 rings
6 15 17 21 23 25 27 rings
6 8 9 10 11 12 13 rings

> <PUBCHEM_HEAVY_ATOM_COUNT>
27

> <PUBCHEM_ATOM_DEF_STEREO_COUNT>
0

> <PUBCHEM_ATOM_UDEF_STEREO_COUNT>
0

> <PUBCHEM_BOND_DEF_STEREO_COUNT>
0

> <PUBCHEM_BOND_UDEF_STEREO_COUNT>
0

> <PUBCHEM_ISOTOPIC_ATOM_COUNT>
0

> <PUBCHEM_COMPONENT_COUNT>
1

> <PUBCHEM_CACTVS_TAUTO_COUNT>
27

> <PUBCHEM_CONFORMER_ID>
0053A17100000001

> <PUBCHEM_MMFF94_ENERGY>
97.7964

> <PUBCHEM_FEATURE_SELFOVERLAP>
66.444

> <PUBCHEM_SHAPE_FINGERPRINT>
10319926 262 17982713463174683264
10967382 1 18410575050308972578
1100329 8 18265329513262927786
11370993 70 18410854360616586001
11513181 2 18202280273578115431
12107183 9 17476644179019117145
12173636 292 18266738163455693468
12788726 201 17757823807908118882
12925494 130 18050847720003549593
13140716 1 18265334095486091274
13583140 156 16878484817701154680
138480 1 17762055436947098018
14466204 15 18338509717215043192
14787075 74 18130504236342126693
14790565 3 18410860957687002245
15042514 8 18192153922099647171
15196674 1 18410855464423408421
15320467 1 15384438018191373349
15664445 248 17480871818175728479
15927050 60 18412545396663573102
16087824 20 18339641270285485671
16728300 4 17245521415007357778
18681886 176 18411694375301380496
19591789 44 18410855464423129095
20510252 161 18053950824957004938
20775438 99 15610703140511855287
21033648 29 18341320154439683632
21236236 1 18268993274747413191
21859007 373 17897136093113865140
22182313 1 18267048152641732211
22393880 68 18197505025868749621
23227448 37 18340487871402202340
23366157 5 18042973055893949619
23558518 356 17972318688186269450
23559900 14 18051124788026361291
283562 15 18049716614137031259
3298306 158 18341333305771046148
335352 9 18410856556241699446
350125 39 18410013234279853321
5104073 3 18408323297824493440
5265222 85 18265347273474241396
6138700 20 18267308621624202470
6371009 1 18338498803223050213
6443956 14 17761496893745725462
7364860 26 18194964037127477783
7808743 9 18194117654056801632
9709674 26 18271250516611424622
9981440 41 18408603660731221729

> <PUBCHEM_SHAPE_MULTIPOLES>
532.71
10.16
5.03
0.6
0
1.81
0
-8.35
0
0
0
0
-0.04
0

> <PUBCHEM_SHAPE_SELFOVERLAP>
1234.256

> <PUBCHEM_SHAPE_VOLUME>
275.2

> <PUBCHEM_COORDINATE_TYPE>
2
5
10

$$$$
