24905312
  -OEChem-10052115143D

 38 41  0     1  0  0  0  0  0999 V2000
   -5.8647    1.4684    0.4852 Cl  0  0  0  0  0  0  0  0  0  0  0  0
   -4.2870    1.0914   -2.0442 O   0  0  0  0  0  0  0  0  0  0  0  0
    1.9580    0.1290    0.0166 N   0  0  0  0  0  0  0  0  0  0  0  0
    4.2730    2.8757   -0.7175 N   0  0  0  0  0  0  0  0  0  0  0  0
    0.8153    0.8354    0.0996 N   0  0  0  0  0  0  0  0  0  0  0  0
    2.7083   -2.1697   -0.1067 N   0  0  0  0  0  0  0  0  0  0  0  0
    0.8358   -3.7328   -0.0727 N   0  0  0  0  0  0  0  0  0  0  0  0
   -1.4377   -3.0192    0.0653 N   0  0  0  0  0  0  0  0  0  0  0  0
    3.2822    0.8559   -0.0217 C   0  0  2  0  0  0  0  0  0  0  0  0
    3.5717    1.7338    1.2064 C   0  0  0  0  0  0  0  0  0  0  0  0
    3.4078    1.8077   -1.2154 C   0  0  0  0  0  0  0  0  0  0  0  0
    3.8119    3.1266    0.6453 C   0  0  0  0  0  0  0  0  0  0  0  0
    1.7634   -1.2197   -0.0243 C   0  0  0  0  0  0  0  0  0  0  0  0
    0.3940   -1.4100    0.0363 C   0  0  0  0  0  0  0  0  0  0  0  0
   -0.1335   -0.1074    0.1112 C   0  0  0  0  0  0  0  0  0  0  0  0
   -1.5209    0.2736    0.1943 C   0  0  0  0  0  0  0  0  0  0  0  0
   -0.0637   -2.7231    0.0097 C   0  0  0  0  0  0  0  0  0  0  0  0
    2.1472   -3.3982   -0.1250 C   0  0  0  0  0  0  0  0  0  0  0  0
   -2.2525    0.5036   -0.9708 C   0  0  0  0  0  0  0  0  0  0  0  0
   -2.1320    0.4128    1.4405 C   0  0  0  0  0  0  0  0  0  0  0  0
   -3.5954    0.8725   -0.8899 C   0  0  0  0  0  0  0  0  0  0  0  0
   -3.4747    0.7820    1.5214 C   0  0  0  0  0  0  0  0  0  0  0  0
   -4.2064    1.0118    0.3562 C   0  0  0  0  0  0  0  0  0  0  0  0
    4.0459    0.0704   -0.0855 H   0  0  0  0  0  0  0  0  0  0  0  0
    4.4792    1.3691    1.7034 H   0  0  0  0  0  0  0  0  0  0  0  0
    2.7646    1.7311    1.9459 H   0  0  0  0  0  0  0  0  0  0  0  0
    3.8544    1.3087   -2.0812 H   0  0  0  0  0  0  0  0  0  0  0  0
    2.4408    2.2201   -1.5261 H   0  0  0  0  0  0  0  0  0  0  0  0
    2.8785    3.7018    0.6320 H   0  0  0  0  0  0  0  0  0  0  0  0
    4.5523    3.6817    1.2280 H   0  0  0  0  0  0  0  0  0  0  0  0
    4.1794    3.7124   -1.2906 H   0  0  0  0  0  0  0  0  0  0  0  0
   -1.7768    0.3950   -1.9434 H   0  0  0  0  0  0  0  0  0  0  0  0
    2.8399   -4.2303   -0.1904 H   0  0  0  0  0  0  0  0  0  0  0  0
   -1.5757    0.2368    2.3581 H   0  0  0  0  0  0  0  0  0  0  0  0
   -2.1311   -2.2884    0.1273 H   0  0  0  0  0  0  0  0  0  0  0  0
   -1.7275   -3.9877    0.0435 H   0  0  0  0  0  0  0  0  0  0  0  0
   -3.9366    0.8864    2.4999 H   0  0  0  0  0  0  0  0  0  0  0  0
   -3.6965    0.9461   -2.8031 H   0  0  0  0  0  0  0  0  0  0  0  0
  1 23  1  0  0  0  0
  2 21  1  0  0  0  0
  2 38  1  0  0  0  0
  3  5  1  0  0  0  0
  3  9  1  0  0  0  0
  3 13  1  0  0  0  0
  4 11  1  0  0  0  0
  4 12  1  0  0  0  0
  4 31  1  0  0  0  0
  5 15  2  0  0  0  0
  6 13  2  0  0  0  0
  6 18  1  0  0  0  0
  7 17  1  0  0  0  0
  7 18  2  0  0  0  0
  8 17  1  0  0  0  0
  8 35  1  0  0  0  0
  8 36  1  0  0  0  0
  9 10  1  0  0  0  0
  9 11  1  0  0  0  0
  9 24  1  0  0  0  0
 10 12  1  0  0  0  0
 10 25  1  0  0  0  0
 10 26  1  0  0  0  0
 11 27  1  0  0  0  0
 11 28  1  0  0  0  0
 12 29  1  0  0  0  0
 12 30  1  0  0  0  0
 13 14  1  0  0  0  0
 14 15  1  0  0  0  0
 14 17  2  0  0  0  0
 15 16  1  0  0  0  0
 16 19  2  0  0  0  0
 16 20  1  0  0  0  0
 18 33  1  0  0  0  0
 19 21  1  0  0  0  0
 19 32  1  0  0  0  0
 20 22  2  0  0  0  0
 20 34  1  0  0  0  0
 21 23  2  0  0  0  0
 22 23  1  0  0  0  0
 22 37  1  0  0  0  0
M  END
> <PUBCHEM_COMPOUND_CID>
24905312

> <PUBCHEM_CONFORMER_RMSD>
0.6

> <PUBCHEM_CONFORMER_DIVERSEORDER>
2
4
6
7
3
8
5
10
11
9
12
1

> <PUBCHEM_MMFF94_PARTIAL_CHARGES>
29
1 -0.18
11 0.27
12 0.27
13 0.11
15 0.23
16 0.05
17 0.41
18 0.47
19 -0.15
2 -0.53
20 -0.15
21 0.08
22 -0.15
23 0.18
3 0.31
31 0.36
32 0.15
33 0.15
34 0.15
35 0.4
36 0.4
37 0.15
38 0.45
4 -0.9
5 -0.71
6 -0.57
7 -0.62
8 -0.9
9 0.26

> <PUBCHEM_EFFECTIVE_ROTOR_COUNT>
3

> <PUBCHEM_PHARMACOPHORE_FEATURES>
12
1 2 donor
1 4 cation
1 4 donor
1 5 acceptor
1 8 cation
1 8 donor
3 3 6 13 cation
3 6 7 18 cation
5 3 5 13 14 15 rings
5 4 9 10 11 12 rings
6 16 19 20 21 22 23 rings
6 6 7 13 14 17 18 rings

> <PUBCHEM_HEAVY_ATOM_COUNT>
23

> <PUBCHEM_ATOM_DEF_STEREO_COUNT>
1

> <PUBCHEM_ATOM_UDEF_STEREO_COUNT>
0

> <PUBCHEM_BOND_DEF_STEREO_COUNT>
0

> <PUBCHEM_BOND_UDEF_STEREO_COUNT>
0

> <PUBCHEM_ISOTOPIC_ATOM_COUNT>
0

> <PUBCHEM_COMPONENT_COUNT>
1

> <PUBCHEM_CACTVS_TAUTO_COUNT>
15

> <PUBCHEM_CONFORMER_ID>
017C066000000002

> <PUBCHEM_MMFF94_ENERGY>
53.8272

> <PUBCHEM_FEATURE_SELFOVERLAP>
61.177

> <PUBCHEM_SHAPE_FINGERPRINT>
10165383 225 18336842960571532692
10411042 1 17618507584108144186
1100329 8 18411703158530911386
11582403 64 17243539153975887485
11725454 13 17315041486004485421
12173636 292 18123469638146049820
12236239 1 17559668435350145595
12390115 104 18124330538597466496
12730499 353 18410023130316611081
12788726 201 17692799798438258738
13134695 92 17975413508106905542
13140716 1 18409729577908110634
13583140 156 16588563401435316508
13911987 19 18336548338600001253
13955234 65 18337957770756474019
13965767 371 18188475982790856912
14955137 171 18265902346125929930
15342168 16 18409453604626243829
15842332 3 17702664337710649057
16752209 62 17979624960169685354
17134986 127 18408890667873715972
17980427 23 18056730227544698378
1813 80 17555183445426185710
18785283 64 18334859372764472730
19784866 34 18342455979962757673
204376 136 18410013277292505105
20510252 161 17838903981578797298
20645477 70 18263083215201452739
2255824 54 18270683039282749870
22907989 373 17618502524815303604
23559900 14 18337953368320043427
2748010 2 18337688497892886838
283562 15 17907291405450365394
3091708 16 9116692471358523450
350125 39 18338527451219319618
4340502 62 18412549825375280483
458136 41 18410867550614126402
469060 322 17973733768383817139
474 4 18341894077986274168
495365 180 18409728430660900737
5104073 3 18335148553444997041
6034566 193 18117567446574805861
621550 34 18187650163690297061
633830 44 18059308607411444613
7399639 24 18186518779157670821
7471813 234 17842545263009776880
77492 1 17559668443876698675
7808743 9 17975701902835443532
81228 2 17617103946277953754
8272917 22 18268716021807573813
84936 182 18273211967608460208
9981440 41 18268137837579079394

> <PUBCHEM_SHAPE_MULTIPOLES>
439.44
9.38
4.02
1.21
7.65
3.29
-0.15
-9.32
-0.28
-5.07
0
0.87
-0.68
0.09

> <PUBCHEM_SHAPE_SELFOVERLAP>
963.772

> <PUBCHEM_SHAPE_VOLUME>
240

> <PUBCHEM_COORDINATE_TYPE>
2
5
10

$$$$
