10325906
  -OEChem-10062122043D

 40 43  0     0  0  0  0  0  0999 V2000
    7.3865   -2.6969   -0.3787 I   0  0  0  0  0  0  0  0  0  0  0  0
   -7.3852   -2.6986    0.3803 I   0  0  0  0  0  0  0  0  0  0  0  0
    2.2267    4.2687    0.6067 O   0  0  0  0  0  0  0  0  0  0  0  0
   -2.2298    4.2666   -0.6060 O   0  0  0  0  0  0  0  0  0  0  0  0
    1.3708   -1.0681    0.3736 N   0  0  0  0  0  0  0  0  0  0  0  0
   -1.3700   -1.0689   -0.3746 N   0  0  0  0  0  0  0  0  0  0  0  0
   -0.0017    4.6729    0.0005 N   0  0  0  0  0  0  0  0  0  0  0  0
    0.6691    2.5222    0.1824 C   0  0  0  0  0  0  0  0  0  0  0  0
   -0.6703    2.5217   -0.1832 C   0  0  0  0  0  0  0  0  0  0  0  0
    0.6805    0.1534    0.1851 C   0  0  0  0  0  0  0  0  0  0  0  0
   -0.6799    0.1529   -0.1863 C   0  0  0  0  0  0  0  0  0  0  0  0
    1.3740    1.3523    0.3746 C   0  0  0  0  0  0  0  0  0  0  0  0
   -1.3743    1.3512   -0.3756 C   0  0  0  0  0  0  0  0  0  0  0  0
    1.1042    3.9134    0.3019 C   0  0  0  0  0  0  0  0  0  0  0  0
   -1.1069    3.9126   -0.3015 C   0  0  0  0  0  0  0  0  0  0  0  0
    2.7170   -1.4329    0.2051 C   0  0  0  0  0  0  0  0  0  0  0  0
   -2.7160   -1.4337   -0.2056 C   0  0  0  0  0  0  0  0  0  0  0  0
    3.2776   -2.4374    0.9986 C   0  0  0  0  0  0  0  0  0  0  0  0
   -3.2769   -2.4383   -0.9988 C   0  0  0  0  0  0  0  0  0  0  0  0
    3.5034   -0.7928   -0.7568 C   0  0  0  0  0  0  0  0  0  0  0  0
   -3.5022   -0.7939    0.7568 C   0  0  0  0  0  0  0  0  0  0  0  0
    4.6145   -2.7990    0.8315 C   0  0  0  0  0  0  0  0  0  0  0  0
   -4.6136   -2.8002   -0.8313 C   0  0  0  0  0  0  0  0  0  0  0  0
    4.8401   -1.1546   -0.9239 C   0  0  0  0  0  0  0  0  0  0  0  0
   -4.8388   -1.1560    0.9245 C   0  0  0  0  0  0  0  0  0  0  0  0
    5.3956   -2.1577   -0.1297 C   0  0  0  0  0  0  0  0  0  0  0  0
   -5.3945   -2.1590    0.1305 C   0  0  0  0  0  0  0  0  0  0  0  0
    2.4129    1.3848    0.6823 H   0  0  0  0  0  0  0  0  0  0  0  0
   -2.4134    1.3831   -0.6831 H   0  0  0  0  0  0  0  0  0  0  0  0
    0.7801   -1.8174    0.7226 H   0  0  0  0  0  0  0  0  0  0  0  0
   -0.7792   -1.8180   -0.7238 H   0  0  0  0  0  0  0  0  0  0  0  0
   -0.0023    5.6868    0.0009 H   0  0  0  0  0  0  0  0  0  0  0  0
    2.6799   -2.9444    1.7520 H   0  0  0  0  0  0  0  0  0  0  0  0
   -2.6795   -2.9452   -1.7526 H   0  0  0  0  0  0  0  0  0  0  0  0
    3.0923   -0.0244   -1.4061 H   0  0  0  0  0  0  0  0  0  0  0  0
   -3.0909   -0.0256    1.4060 H   0  0  0  0  0  0  0  0  0  0  0  0
    5.0275   -3.5831    1.4610 H   0  0  0  0  0  0  0  0  0  0  0  0
   -5.0268   -3.5844   -1.4607 H   0  0  0  0  0  0  0  0  0  0  0  0
    5.4298   -0.6457   -1.6822 H   0  0  0  0  0  0  0  0  0  0  0  0
   -5.4282   -0.6473    1.6831 H   0  0  0  0  0  0  0  0  0  0  0  0
  1 26  1  0  0  0  0
  2 27  1  0  0  0  0
  3 14  2  0  0  0  0
  4 15  2  0  0  0  0
  5 10  1  0  0  0  0
  5 16  1  0  0  0  0
  5 30  1  0  0  0  0
  6 11  1  0  0  0  0
  6 17  1  0  0  0  0
  6 31  1  0  0  0  0
  7 14  1  0  0  0  0
  7 15  1  0  0  0  0
  7 32  1  0  0  0  0
  8  9  1  0  0  0  0
  8 12  2  0  0  0  0
  8 14  1  0  0  0  0
  9 13  2  0  0  0  0
  9 15  1  0  0  0  0
 10 11  2  0  0  0  0
 10 12  1  0  0  0  0
 11 13  1  0  0  0  0
 12 28  1  0  0  0  0
 13 29  1  0  0  0  0
 16 18  2  0  0  0  0
 16 20  1  0  0  0  0
 17 19  2  0  0  0  0
 17 21  1  0  0  0  0
 18 22  1  0  0  0  0
 18 33  1  0  0  0  0
 19 23  1  0  0  0  0
 19 34  1  0  0  0  0
 20 24  2  0  0  0  0
 20 35  1  0  0  0  0
 21 25  2  0  0  0  0
 21 36  1  0  0  0  0
 22 26  2  0  0  0  0
 22 37  1  0  0  0  0
 23 27  2  0  0  0  0
 23 38  1  0  0  0  0
 24 26  1  0  0  0  0
 24 39  1  0  0  0  0
 25 27  1  0  0  0  0
 25 40  1  0  0  0  0
M  END
> <PUBCHEM_COMPOUND_CID>
10325906

> <PUBCHEM_CONFORMER_RMSD>
0.8

> <PUBCHEM_CONFORMER_DIVERSEORDER>
1
16
13
5
2
15
12
6
3
11
10
4
9
7
8
14

> <PUBCHEM_MMFF94_PARTIAL_CHARGES>
40
1 -0.08
10 0.1
11 0.1
12 -0.15
13 -0.15
14 0.54
15 0.54
16 0.1
17 0.1
18 -0.15
19 -0.15
2 -0.08
20 -0.15
21 -0.15
22 -0.15
23 -0.15
24 -0.15
25 -0.15
26 0.08
27 0.08
28 0.15
29 0.15
3 -0.57
30 0.4
31 0.4
32 0.37
33 0.15
34 0.15
35 0.15
36 0.15
37 0.15
38 0.15
39 0.15
4 -0.57
40 0.15
5 -0.6
6 -0.6
7 -0.49
8 0.09
9 0.09

> <PUBCHEM_EFFECTIVE_ROTOR_COUNT>
4.2

> <PUBCHEM_PHARMACOPHORE_FEATURES>
13
1 1 hydrophobe
1 2 hydrophobe
1 3 acceptor
1 4 acceptor
1 5 cation
1 5 donor
1 6 cation
1 6 donor
1 7 donor
5 7 8 9 14 15 rings
6 16 18 20 22 24 26 rings
6 17 19 21 23 25 27 rings
6 8 9 10 11 12 13 rings

> <PUBCHEM_HEAVY_ATOM_COUNT>
27

> <PUBCHEM_ATOM_DEF_STEREO_COUNT>
0

> <PUBCHEM_ATOM_UDEF_STEREO_COUNT>
0

> <PUBCHEM_BOND_DEF_STEREO_COUNT>
0

> <PUBCHEM_BOND_UDEF_STEREO_COUNT>
0

> <PUBCHEM_ISOTOPIC_ATOM_COUNT>
0

> <PUBCHEM_COMPONENT_COUNT>
1

> <PUBCHEM_CACTVS_TAUTO_COUNT>
17

> <PUBCHEM_CONFORMER_ID>
009D8F9200000001

> <PUBCHEM_MMFF94_ENERGY>
107.6163

> <PUBCHEM_FEATURE_SELFOVERLAP>
66.069

> <PUBCHEM_SHAPE_FINGERPRINT>
10411042 1 18410856559645460579
10622 236 17555998527594101735
11056379 131 18195251018806448846
11991303 11 17681552533257233749
12107183 9 18342469119290583251
12516196 113 18409448102430577619
12553582 1 18410846664041258830
12788726 201 18189333481284972802
13009979 54 18060150868268656907
13248334 5 18050850210456482688
13533116 47 18193278709937202579
13590594 115 18409738361184426001
13631057 29 18262520291382156810
13673619 4 17968096443387776063
13785724 45 18412830209203873223
138480 1 14880594773220077092
13955234 65 18051414268969707683
14068700 675 18333736793389615774
14347332 77 18266745675929260454
14674994 50 17416379040557132197
14739800 52 17058650905235679585
14844126 61 18192426364364424410
15042514 8 18194967339856841784
15064981 194 18124891062506561788
15439362 3 18049724315224051725
15927050 60 17692534828757311278
16087824 20 18121781635107350421
16992752 21 18338527361320334494
17492 89 18123470746728504299
1813 80 18342749523823833535
19427546 20 18191026703674436812
20028762 73 17333644380716438014
20101258 96 18411699846662278520
20832881 197 18333448755608171491
21049683 271 18189062047698440404
2132832 1 18186810149844215102
21478907 32 18409729543215692205
21781055 127 16341488854378240363
21796203 349 18049197528563279011
22033318 11 18054543346667537155
22950370 63 18410578383198696295
23559900 14 18265612281335836139
255183 451 18341613775926415335
283562 15 18188492350510328170
3103668 31 18262515867634433845
3421961 26 18338796844178252363
4144715 1 18042969973236488299
4409770 3 18119527635747670213
463206 1 18334297612449219882
469060 322 18269569255752969642
474 4 17689714586322612129
5309563 4 18410290306989153059
5385378 56 18051976115185456353
5912855 24 18046625608068610042
5969126 39 18410854326821648910
6058803 2 17754463357472849746
6697151 62 18266716126706725143
6700243 42 17771373927669383038
70251023 43 18335702766759912355
77188 2 18410575114807497573
79837 15 17475232401360944898
9981440 41 17184188340737188104

> <PUBCHEM_SHAPE_MULTIPOLES>
552.84
15.47
6.5
0.93
0.02
10.4
0
-26.95
0
-0.01
0
0
-0.39
0.21

> <PUBCHEM_SHAPE_SELFOVERLAP>
1182.489

> <PUBCHEM_SHAPE_VOLUME>
312.9

> <PUBCHEM_COORDINATE_TYPE>
2
5
10

$$$$
