2797247
  -OEChem-10062121533D

 49 51  0     0  0  0  0  0  0999 V2000
   -7.7705    0.5975    1.7928 Cl  0  0  0  0  0  0  0  0  0  0  0  0
   -2.9232   -2.8000   -2.3358 S   0  0  0  0  0  0  0  0  0  0  0  0
    1.3887   -0.3447    1.4976 O   0  0  0  0  0  0  0  0  0  0  0  0
    1.9408   -1.6473   -1.6173 O   0  0  0  0  0  0  0  0  0  0  0  0
    0.0614   -1.2065   -0.3512 N   0  0  0  0  0  0  0  0  0  0  0  0
   -0.7290   -2.0118   -1.1379 N   0  0  0  0  0  0  0  0  0  0  0  0
   -2.5399   -0.6218   -0.6679 N   0  0  0  0  0  0  0  0  0  0  0  0
    2.1810   -0.1652    0.3067 C   0  0  0  0  0  0  0  0  0  0  0  0
    3.6071   -0.6629    0.5741 C   0  0  0  0  0  0  0  0  0  0  0  0
    2.1943    1.3088   -0.1131 C   0  0  0  0  0  0  0  0  0  0  0  0
    1.4069   -1.0773   -0.6654 C   0  0  0  0  0  0  0  0  0  0  0  0
    3.9113   -1.1362    1.8277 C   0  0  0  0  0  0  0  0  0  0  0  0
    1.6859    1.6446   -1.3453 C   0  0  0  0  0  0  0  0  0  0  0  0
    4.5207   -0.6147   -0.4512 C   0  0  0  0  0  0  0  0  0  0  0  0
    2.7138    2.2351    0.7598 C   0  0  0  0  0  0  0  0  0  0  0  0
    5.2080   -1.5890    2.0708 C   0  0  0  0  0  0  0  0  0  0  0  0
    1.6977    2.9861   -1.7273 C   0  0  0  0  0  0  0  0  0  0  0  0
    5.8174   -1.0675   -0.2081 C   0  0  0  0  0  0  0  0  0  0  0  0
    2.7256    3.5766    0.3777 C   0  0  0  0  0  0  0  0  0  0  0  0
    6.1611   -1.5545    1.0530 C   0  0  0  0  0  0  0  0  0  0  0  0
    2.2176    3.9521   -0.8659 C   0  0  0  0  0  0  0  0  0  0  0  0
   -3.7914   -0.3135   -0.0800 C   0  0  0  0  0  0  0  0  0  0  0  0
   -4.1873    1.0060    0.0619 C   0  0  0  0  0  0  0  0  0  0  0  0
   -2.0737   -1.7393   -1.3513 C   0  0  0  0  0  0  0  0  0  0  0  0
   -4.5963   -1.3582    0.3445 C   0  0  0  0  0  0  0  0  0  0  0  0
   -5.4226    1.2894    0.6443 C   0  0  0  0  0  0  0  0  0  0  0  0
   -3.3290    2.1400   -0.3971 C   0  0  0  0  0  0  0  0  0  0  0  0
   -5.8317   -1.0748    0.9269 C   0  0  0  0  0  0  0  0  0  0  0  0
   -6.2448    0.2490    1.0768 C   0  0  0  0  0  0  0  0  0  0  0  0
    3.2012   -1.1779    2.6460 H   0  0  0  0  0  0  0  0  0  0  0  0
    1.2784    0.9294   -2.0497 H   0  0  0  0  0  0  0  0  0  0  0  0
    4.2703   -0.2377   -1.4375 H   0  0  0  0  0  0  0  0  0  0  0  0
    3.1047    1.9576    1.7335 H   0  0  0  0  0  0  0  0  0  0  0  0
    0.7548    0.3895    1.5672 H   0  0  0  0  0  0  0  0  0  0  0  0
   -0.3744   -0.7909    0.4640 H   0  0  0  0  0  0  0  0  0  0  0  0
    5.4765   -1.9678    3.0528 H   0  0  0  0  0  0  0  0  0  0  0  0
    1.3034    3.2789   -2.6961 H   0  0  0  0  0  0  0  0  0  0  0  0
    6.5597   -1.0404   -1.0005 H   0  0  0  0  0  0  0  0  0  0  0  0
    3.1287    4.3291    1.0493 H   0  0  0  0  0  0  0  0  0  0  0  0
    7.1709   -1.9067    1.2423 H   0  0  0  0  0  0  0  0  0  0  0  0
    2.2267    4.9966   -1.1634 H   0  0  0  0  0  0  0  0  0  0  0  0
   -0.2781   -2.8166   -1.5610 H   0  0  0  0  0  0  0  0  0  0  0  0
   -1.8607    0.1337   -0.6228 H   0  0  0  0  0  0  0  0  0  0  0  0
   -4.2889   -2.3965    0.2804 H   0  0  0  0  0  0  0  0  0  0  0  0
   -5.7477    2.3207    0.7623 H   0  0  0  0  0  0  0  0  0  0  0  0
   -2.4141    2.1943    0.2023 H   0  0  0  0  0  0  0  0  0  0  0  0
   -3.8418    3.1033   -0.3000 H   0  0  0  0  0  0  0  0  0  0  0  0
   -3.0660    2.0237   -1.4538 H   0  0  0  0  0  0  0  0  0  0  0  0
   -6.4585   -1.8952    1.2671 H   0  0  0  0  0  0  0  0  0  0  0  0
  1 29  1  0  0  0  0
  2 24  2  0  0  0  0
  3  8  1  0  0  0  0
  3 34  1  0  0  0  0
  4 11  2  0  0  0  0
  5  6  1  0  0  0  0
  5 11  1  0  0  0  0
  5 35  1  0  0  0  0
  6 24  1  0  0  0  0
  6 42  1  0  0  0  0
  7 22  1  0  0  0  0
  7 24  1  0  0  0  0
  7 43  1  0  0  0  0
  8  9  1  0  0  0  0
  8 10  1  0  0  0  0
  8 11  1  0  0  0  0
  9 12  2  0  0  0  0
  9 14  1  0  0  0  0
 10 13  2  0  0  0  0
 10 15  1  0  0  0  0
 12 16  1  0  0  0  0
 12 30  1  0  0  0  0
 13 17  1  0  0  0  0
 13 31  1  0  0  0  0
 14 18  2  0  0  0  0
 14 32  1  0  0  0  0
 15 19  2  0  0  0  0
 15 33  1  0  0  0  0
 16 20  2  0  0  0  0
 16 36  1  0  0  0  0
 17 21  2  0  0  0  0
 17 37  1  0  0  0  0
 18 20  1  0  0  0  0
 18 38  1  0  0  0  0
 19 21  1  0  0  0  0
 19 39  1  0  0  0  0
 20 40  1  0  0  0  0
 21 41  1  0  0  0  0
 22 23  2  0  0  0  0
 22 25  1  0  0  0  0
 23 26  1  0  0  0  0
 23 27  1  0  0  0  0
 25 28  2  0  0  0  0
 25 44  1  0  0  0  0
 26 29  2  0  0  0  0
 26 45  1  0  0  0  0
 27 46  1  0  0  0  0
 27 47  1  0  0  0  0
 27 48  1  0  0  0  0
 28 29  1  0  0  0  0
 28 49  1  0  0  0  0
M  END
> <PUBCHEM_COMPOUND_CID>
2797247

> <PUBCHEM_CONFORMER_RMSD>
1

> <PUBCHEM_CONFORMER_DIVERSEORDER>
1
93
9
69
98
79
37
32
104
84
62
94
35
71
107
65
96
58
27
18
61
40
118
88
76
92
30
42
31
47
49
33
14
77
22
36
70
28
19
95
38
12
72
23
55
105
26
8
116
90
81
66
20
60
74
24
101
108
56
117
52
97
39
115
80
29
59
3
11
111
85
46
50
45
10
13
54
64
43
63
110
4
112
67
106
2
87
102
41
5
51
78
75
73
109
91
99
21
103
86
16
44
89
25
82
83
17
114
113
48
7
57
53
15
100
68
6
34

> <PUBCHEM_MMFF94_PARTIAL_CHARGES>
46
1 -0.18
10 -0.14
11 0.57
12 -0.15
13 -0.15
14 -0.15
15 -0.15
16 -0.15
17 -0.15
18 -0.15
19 -0.15
2 -0.38
20 -0.15
21 -0.15
22 0.12
23 -0.14
24 0.5
25 -0.15
26 -0.15
27 0.14
28 -0.15
29 0.18
3 -0.68
30 0.15
31 0.15
32 0.15
33 0.15
34 0.4
35 0.37
36 0.15
37 0.15
38 0.15
39 0.15
4 -0.57
40 0.15
41 0.15
42 0.37
43 0.37
44 0.15
45 0.15
49 0.15
5 -0.43
6 -0.43
7 -0.55
8 0.63
9 -0.14

> <PUBCHEM_EFFECTIVE_ROTOR_COUNT>
8

> <PUBCHEM_PHARMACOPHORE_FEATURES>
10
1 2 acceptor
1 3 acceptor
1 3 donor
1 4 acceptor
1 5 donor
1 6 donor
1 7 donor
6 10 13 15 17 19 21 rings
6 22 23 25 26 28 29 rings
6 9 12 14 16 18 20 rings

> <PUBCHEM_HEAVY_ATOM_COUNT>
29

> <PUBCHEM_ATOM_DEF_STEREO_COUNT>
0

> <PUBCHEM_ATOM_UDEF_STEREO_COUNT>
0

> <PUBCHEM_BOND_DEF_STEREO_COUNT>
0

> <PUBCHEM_BOND_UDEF_STEREO_COUNT>
0

> <PUBCHEM_ISOTOPIC_ATOM_COUNT>
0

> <PUBCHEM_COMPONENT_COUNT>
1

> <PUBCHEM_CACTVS_TAUTO_COUNT>
6

> <PUBCHEM_CONFORMER_ID>
002AAEBF00000001

> <PUBCHEM_MMFF94_ENERGY>
103.7023

> <PUBCHEM_FEATURE_SELFOVERLAP>
52.355

> <PUBCHEM_SHAPE_FINGERPRINT>
10162869 55 18272364270957266111
11421498 54 17386562437032536560
11545043 162 16660635237874727903
12035758 1 18270948069488612576
12107183 9 18343017778933372306
12107698 1 18261112959237033393
12166972 35 18413109463271022832
12403259 118 18341896282137855591
12422481 6 18201146668662648358
12616971 3 18342458171044431231
12633257 1 18272083915970052813
12978246 48 18271811198796083961
13540713 5 18126560347956803903
13583140 156 17896023391883466367
13590594 115 18261946376055514596
13668630 136 14129071313752839091
13673619 4 16877942711203110302
13782708 43 16081079359949030594
14117953 113 18270964532072501789
14341114 176 18187086165353223409
14466204 15 18336261224156442738
14739800 52 17484788656577297312
14849402 71 18187652465524034684
14950920 106 18186804725184969091
14955137 171 18336831901093568238
15021287 119 18409158931151495191
15475509 8 18271819995163205302
1601671 61 18342735192214032694
17809404 112 15195570142931881071
17818456 19 18131348626643352168
17980427 23 17988345070803874580
20721686 146 16845286181652085088
21033648 29 17773862117586587953
21521239 73 10809617079276969312
21774942 28 14692020094073599347
21987483 16 17973454484405164371
22849341 161 18409448077198083896
24771293 8 18198605818320309664
249057 25 18130216181718320255
3411729 13 18339080527391177888
3552219 110 18114185195259426388
3737641 26 17024296423591690610
38570 142 17826535527902040772
404807 78 10735000968594095925
4516262 110 17899975229304157213
5104073 3 18337681927035607507
5385378 56 17774727433307122103
57359948 33 11959464327649610163
57634706 306 9798534773292100178
58083652 198 17970321850806028104
58260988 587 16372156466790102700
5912855 24 17977386367228058623
6058803 2 17982439696661682422
6086070 43 18042941269236657463
6176135 31 18272942618031313855
6371009 1 18272926099518339909

> <PUBCHEM_SHAPE_MULTIPOLES>
575.84
16.36
3.67
1.88
17.86
3.48
0.14
-3.47
-10.1
-2.73
1.64
0.1
-0.82
-2.79

> <PUBCHEM_SHAPE_SELFOVERLAP>
1225.567

> <PUBCHEM_SHAPE_VOLUME>
323.5

> <PUBCHEM_COORDINATE_TYPE>
2
5
10

$$$$
