24905171
  -OEChem-10052115153D

 32 34  0     0  0  0  0  0  0999 V2000
   -1.7108    0.9419    0.0001 N   0  0  0  0  0  0  0  0  0  0  0  0
   -0.4502    1.4138    0.0004 N   0  0  0  0  0  0  0  0  0  0  0  0
   -2.8971   -1.1688   -0.0004 N   0  0  0  0  0  0  0  0  0  0  0  0
   -1.3633   -3.0657   -0.0005 N   0  0  0  0  0  0  0  0  0  0  0  0
    1.0094   -2.8058    0.0008 N   0  0  0  0  0  0  0  0  0  0  0  0
    3.8128    0.5615   -1.2050 N   0  0  0  0  0  0  0  0  0  0  0  0
    3.8132    0.5595    1.2047 N   0  0  0  0  0  0  0  0  0  0  0  0
   -2.8178    1.8686    0.0003 C   0  0  0  0  0  0  0  0  0  0  0  0
   -1.7832   -0.4195   -0.0002 C   0  0  0  0  0  0  0  0  0  0  0  0
   -0.4753   -0.8716   -0.0001 C   0  0  0  0  0  0  0  0  0  0  0  0
    0.2974    0.3047    0.0001 C   0  0  0  0  0  0  0  0  0  0  0  0
   -2.8251    2.7372   -1.2601 C   0  0  0  0  0  0  0  0  0  0  0  0
   -2.8249    2.7369    1.2608 C   0  0  0  0  0  0  0  0  0  0  0  0
   -0.2824   -2.2490   -0.0003 C   0  0  0  0  0  0  0  0  0  0  0  0
    1.7348    0.4098    0.0000 C   0  0  0  0  0  0  0  0  0  0  0  0
   -2.5861   -2.4831   -0.0006 C   0  0  0  0  0  0  0  0  0  0  0  0
    2.4676    0.4638   -1.1680 C   0  0  0  0  0  0  0  0  0  0  0  0
    2.4680    0.4620    1.1679 C   0  0  0  0  0  0  0  0  0  0  0  0
    4.4128    0.6039   -0.0002 C   0  0  0  0  0  0  0  0  0  0  0  0
   -3.7404    1.2757    0.0003 H   0  0  0  0  0  0  0  0  0  0  0  0
   -1.9453    3.3885   -1.3086 H   0  0  0  0  0  0  0  0  0  0  0  0
   -3.7161    3.3734   -1.2858 H   0  0  0  0  0  0  0  0  0  0  0  0
   -2.8284    2.1151   -2.1620 H   0  0  0  0  0  0  0  0  0  0  0  0
   -1.9452    3.3883    1.3093 H   0  0  0  0  0  0  0  0  0  0  0  0
   -2.8281    2.1147    2.1626 H   0  0  0  0  0  0  0  0  0  0  0  0
   -3.7160    3.3730    1.2868 H   0  0  0  0  0  0  0  0  0  0  0  0
   -3.4292   -3.1655   -0.0007 H   0  0  0  0  0  0  0  0  0  0  0  0
    1.9900    0.4291   -2.1427 H   0  0  0  0  0  0  0  0  0  0  0  0
    1.9906    0.4256    2.1427 H   0  0  0  0  0  0  0  0  0  0  0  0
    1.8335   -2.2231    0.0006 H   0  0  0  0  0  0  0  0  0  0  0  0
    1.1047   -3.8126    0.0004 H   0  0  0  0  0  0  0  0  0  0  0  0
    5.4931    0.6822   -0.0003 H   0  0  0  0  0  0  0  0  0  0  0  0
  1  2  1  0  0  0  0
  1  8  1  0  0  0  0
  1  9  1  0  0  0  0
  2 11  2  0  0  0  0
  3  9  2  0  0  0  0
  3 16  1  0  0  0  0
  4 14  1  0  0  0  0
  4 16  2  0  0  0  0
  5 14  1  0  0  0  0
  5 30  1  0  0  0  0
  5 31  1  0  0  0  0
  6 17  2  0  0  0  0
  6 19  1  0  0  0  0
  7 18  1  0  0  0  0
  7 19  2  0  0  0  0
  8 12  1  0  0  0  0
  8 13  1  0  0  0  0
  8 20  1  0  0  0  0
  9 10  1  0  0  0  0
 10 11  1  0  0  0  0
 10 14  2  0  0  0  0
 11 15  1  0  0  0  0
 12 21  1  0  0  0  0
 12 22  1  0  0  0  0
 12 23  1  0  0  0  0
 13 24  1  0  0  0  0
 13 25  1  0  0  0  0
 13 26  1  0  0  0  0
 15 17  1  0  0  0  0
 15 18  2  0  0  0  0
 16 27  1  0  0  0  0
 17 28  1  0  0  0  0
 18 29  1  0  0  0  0
 19 32  1  0  0  0  0
M  END
> <PUBCHEM_COMPOUND_CID>
24905171

> <PUBCHEM_CONFORMER_RMSD>
0.6

> <PUBCHEM_CONFORMER_DIVERSEORDER>
1
2

> <PUBCHEM_MMFF94_PARTIAL_CHARGES>
22
1 0.31
11 0.23
14 0.41
15 0.05
16 0.47
17 0.16
18 0.16
19 0.47
2 -0.71
27 0.15
28 0.15
29 0.15
3 -0.57
30 0.4
31 0.4
32 0.15
4 -0.62
5 -0.9
6 -0.62
7 -0.62
8 0.26
9 0.11

> <PUBCHEM_EFFECTIVE_ROTOR_COUNT>
2

> <PUBCHEM_PHARMACOPHORE_FEATURES>
11
1 2 acceptor
1 5 cation
1 5 donor
1 6 acceptor
3 1 3 9 cation
3 3 4 16 cation
3 6 7 19 cation
3 8 12 13 hydrophobe
5 1 2 9 10 11 rings
6 3 4 9 10 14 16 rings
6 6 7 15 17 18 19 rings

> <PUBCHEM_HEAVY_ATOM_COUNT>
19

> <PUBCHEM_ATOM_DEF_STEREO_COUNT>
0

> <PUBCHEM_ATOM_UDEF_STEREO_COUNT>
0

> <PUBCHEM_BOND_DEF_STEREO_COUNT>
0

> <PUBCHEM_BOND_UDEF_STEREO_COUNT>
0

> <PUBCHEM_ISOTOPIC_ATOM_COUNT>
0

> <PUBCHEM_COMPONENT_COUNT>
1

> <PUBCHEM_CACTVS_TAUTO_COUNT>
5

> <PUBCHEM_CONFORMER_ID>
017C05D300000001

> <PUBCHEM_MMFF94_ENERGY>
45.0105

> <PUBCHEM_FEATURE_SELFOVERLAP>
56.1

> <PUBCHEM_SHAPE_FINGERPRINT>
10319926 262 18198319902289308760
11582403 64 16911103947974907312
11725454 13 16913363474445184512
12173636 292 18409726274724773724
12236239 1 17676763279802557416
12500047 106 18411695466101539564
12553582 1 18048884292329683370
12788726 201 18193004930655136747
13140716 1 18050572034483634483
13380535 21 18267593420250933187
13878862 14 17112413313083746313
14178342 30 18409157818997344458
14614273 12 18334570222870933117
15042514 8 18265057023141431547
16752209 62 18336534010414352411
16945 1 18338516451464877767
1741750 31 18341613668135143977
18186145 218 18198912409353260852
19049666 15 17988651774429063458
20510252 161 18271245035631885168
21501502 16 18338514123503114491
21524375 3 18260829241944496081
22182313 1 18265064552508680151
22907989 373 18261668285270018453
2334 1 18338517430891455607
23402539 116 18270110348791790567
23419403 2 16248505586086998638
23526113 38 17632571639486495400
23557571 272 18200039572487065924
23558518 356 18261391113777185011
23559900 14 18201162058237098268
23598291 2 17676490575175575844
2748010 2 18265626372732689247
283562 15 18339640156780660379
3071541 12 17691971462281083053
3091708 16 9199438422113986547
350125 39 18266187132173778683
43471831 8 18335697252138539786
458136 41 18051710845025368817
559249 180 18335417916783217762
6049 1 17916589872560355288
633830 44 17844249523218571092
6992083 37 18040433295808575116
7364860 26 17837205974405055306
7615 1 17895472639431541276
77492 1 17676201416381013892
81228 2 18266182910109832289
84936 182 17695617464193000953
90525 40 18260551138474661446
9862522 239 17896309234166917885

> <PUBCHEM_SHAPE_MULTIPOLES>
356.14
6.47
3.38
1.05
5.48
1.66
0
-3.58
0
-3.94
0
0.34
-0.65
0

> <PUBCHEM_SHAPE_SELFOVERLAP>
781.718

> <PUBCHEM_SHAPE_VOLUME>
187.5

> <PUBCHEM_COORDINATE_TYPE>
2
5
10

$$$$
