24905180
  -OEChem-10052115163D

 35 37  0     0  0  0  0  0  0999 V2000
    1.7279    0.3854    1.9501 F   0  0  0  0  0  0  0  0  0  0  0  0
    4.4486    0.4531    1.6332 O   0  0  0  0  0  0  0  0  0  0  0  0
   -1.9854    0.9771   -0.0402 N   0  0  0  0  0  0  0  0  0  0  0  0
   -0.7143    1.3880   -0.2049 N   0  0  0  0  0  0  0  0  0  0  0  0
   -3.2523   -1.0727    0.1960 N   0  0  0  0  0  0  0  0  0  0  0  0
   -1.8103   -3.0386    0.1162 N   0  0  0  0  0  0  0  0  0  0  0  0
    0.5558   -2.8922   -0.1620 N   0  0  0  0  0  0  0  0  0  0  0  0
   -3.0449    1.9546    0.0391 C   0  0  0  0  0  0  0  0  0  0  0  0
   -2.1150   -0.3780    0.0342 C   0  0  0  0  0  0  0  0  0  0  0  0
   -0.8360   -0.8914   -0.0907 C   0  0  0  0  0  0  0  0  0  0  0  0
   -0.0193    0.2456   -0.2349 C   0  0  0  0  0  0  0  0  0  0  0  0
   -3.1597    2.7665   -1.2535 C   0  0  0  0  0  0  0  0  0  0  0  0
   -2.8708    2.8767    1.2484 C   0  0  0  0  0  0  0  0  0  0  0  0
    1.4118    0.2820   -0.4018 C   0  0  0  0  0  0  0  0  0  0  0  0
   -0.7028   -2.2751   -0.0451 C   0  0  0  0  0  0  0  0  0  0  0  0
    2.2470    0.3520    0.7133 C   0  0  0  0  0  0  0  0  0  0  0  0
    1.9612    0.2469   -1.6837 C   0  0  0  0  0  0  0  0  0  0  0  0
   -2.9993   -2.3990    0.2251 C   0  0  0  0  0  0  0  0  0  0  0  0
    3.6314    0.3863    0.5467 C   0  0  0  0  0  0  0  0  0  0  0  0
    3.3457    0.2815   -1.8504 C   0  0  0  0  0  0  0  0  0  0  0  0
    4.1808    0.3510   -0.7352 C   0  0  0  0  0  0  0  0  0  0  0  0
   -3.9857    1.4069    0.1718 H   0  0  0  0  0  0  0  0  0  0  0  0
   -2.2645    3.3725   -1.4325 H   0  0  0  0  0  0  0  0  0  0  0  0
   -4.0201    3.4427   -1.2100 H   0  0  0  0  0  0  0  0  0  0  0  0
   -3.2927    2.1064   -2.1178 H   0  0  0  0  0  0  0  0  0  0  0  0
   -1.9646    3.4869    1.1657 H   0  0  0  0  0  0  0  0  0  0  0  0
   -2.7970    2.2954    2.1742 H   0  0  0  0  0  0  0  0  0  0  0  0
   -3.7252    3.5551    1.3432 H   0  0  0  0  0  0  0  0  0  0  0  0
    1.3242    0.1919   -2.5633 H   0  0  0  0  0  0  0  0  0  0  0  0
   -3.8650   -3.0399    0.3532 H   0  0  0  0  0  0  0  0  0  0  0  0
    3.7734    0.2538   -2.8483 H   0  0  0  0  0  0  0  0  0  0  0  0
    1.3983   -2.3498   -0.2837 H   0  0  0  0  0  0  0  0  0  0  0  0
    0.6079   -3.9014   -0.1237 H   0  0  0  0  0  0  0  0  0  0  0  0
    5.2577    0.3768   -0.8787 H   0  0  0  0  0  0  0  0  0  0  0  0
    5.3733    0.4682    1.3319 H   0  0  0  0  0  0  0  0  0  0  0  0
  1 16  1  0  0  0  0
  2 19  1  0  0  0  0
  2 35  1  0  0  0  0
  3  4  1  0  0  0  0
  3  8  1  0  0  0  0
  3  9  1  0  0  0  0
  4 11  2  0  0  0  0
  5  9  2  0  0  0  0
  5 18  1  0  0  0  0
  6 15  1  0  0  0  0
  6 18  2  0  0  0  0
  7 15  1  0  0  0  0
  7 32  1  0  0  0  0
  7 33  1  0  0  0  0
  8 12  1  0  0  0  0
  8 13  1  0  0  0  0
  8 22  1  0  0  0  0
  9 10  1  0  0  0  0
 10 11  1  0  0  0  0
 10 15  2  0  0  0  0
 11 14  1  0  0  0  0
 12 23  1  0  0  0  0
 12 24  1  0  0  0  0
 12 25  1  0  0  0  0
 13 26  1  0  0  0  0
 13 27  1  0  0  0  0
 13 28  1  0  0  0  0
 14 16  2  0  0  0  0
 14 17  1  0  0  0  0
 16 19  1  0  0  0  0
 17 20  2  0  0  0  0
 17 29  1  0  0  0  0
 18 30  1  0  0  0  0
 19 21  2  0  0  0  0
 20 21  1  0  0  0  0
 20 31  1  0  0  0  0
 21 34  1  0  0  0  0
M  END
> <PUBCHEM_COMPOUND_CID>
24905180

> <PUBCHEM_CONFORMER_RMSD>
0.6

> <PUBCHEM_CONFORMER_DIVERSEORDER>
1
3
6
4
5
2

> <PUBCHEM_MMFF94_PARTIAL_CHARGES>
25
1 -0.19
11 0.23
14 0.05
15 0.41
16 0.19
17 -0.15
18 0.47
19 0.08
2 -0.53
20 -0.15
21 -0.15
29 0.15
3 0.31
30 0.15
31 0.15
32 0.4
33 0.4
34 0.15
35 0.45
4 -0.71
5 -0.57
6 -0.62
7 -0.9
8 0.26
9 0.11

> <PUBCHEM_EFFECTIVE_ROTOR_COUNT>
2

> <PUBCHEM_PHARMACOPHORE_FEATURES>
10
1 2 donor
1 4 acceptor
1 7 cation
1 7 donor
3 3 5 9 cation
3 5 6 18 cation
3 8 12 13 hydrophobe
5 3 4 9 10 11 rings
6 14 16 17 19 20 21 rings
6 5 6 9 10 15 18 rings

> <PUBCHEM_HEAVY_ATOM_COUNT>
21

> <PUBCHEM_ATOM_DEF_STEREO_COUNT>
0

> <PUBCHEM_ATOM_UDEF_STEREO_COUNT>
0

> <PUBCHEM_BOND_DEF_STEREO_COUNT>
0

> <PUBCHEM_BOND_UDEF_STEREO_COUNT>
0

> <PUBCHEM_ISOTOPIC_ATOM_COUNT>
0

> <PUBCHEM_COMPONENT_COUNT>
1

> <PUBCHEM_CACTVS_TAUTO_COUNT>
15

> <PUBCHEM_CONFORMER_ID>
017C05DC00000001

> <PUBCHEM_MMFF94_ENERGY>
47.1564

> <PUBCHEM_FEATURE_SELFOVERLAP>
51.025

> <PUBCHEM_SHAPE_FINGERPRINT>
10165383 225 18052003353625648973
10319926 262 18269817831955062496
1100329 8 12432041597452213939
11582403 64 17054095426445327080
11646440 116 18199762495899550371
11725454 13 17200474534816882888
12236239 1 17603865654433138678
12500047 106 18411418380459949932
12553582 1 18120384412634662007
12716301 132 18341886403032534730
12788726 201 18190473846356305019
13140716 1 18122351439342519707
13464514 151 17700423476704146704
13538477 17 18041840747917000454
13583140 156 18059556019756430802
13878862 14 16967456990064905065
13965767 371 17898566475862649604
14178342 30 18409166593336026474
15042514 8 18264777738782677603
15842332 3 17748832951183104948
16752209 62 18335129930076650879
16945 1 18338240465619908303
1741750 31 18340489958825113521
18186145 218 17988093196646984348
19049666 15 17988936530634246238
19422 9 17749388187301435418
20510252 161 18342744060767630425
20600515 1 18050841423190200299
20645477 70 14851872686867227704
22112679 90 17894629275199932948
22149856 69 17902808358513488033
22182313 1 18264786367608813071
22907989 373 18260827146221905093
2334 1 18337678495103607855
23402539 116 18341602776757497063
23419403 2 17128997659359960137
23526113 38 17560797689309896464
23557571 272 18272378615557671572
23559900 14 18200322018336797950
23598291 2 17530967990577695948
2748010 2 18192727643873121463
3091708 16 8983827473420389051
350125 39 18193852448484292555
57527295 17 17273425967183073956
6049 1 17916876823483127136
633830 44 17845091753473162277
6992083 37 17967249793157708540
7615 1 17822293534779732644
77492 1 17603587465043073484
81228 2 18338807835168244363
84936 182 17695059999044620369
88987 49 18409169917793850636
90525 40 18186526513686798190
9862522 239 17895748479142173517

> <PUBCHEM_SHAPE_MULTIPOLES>
394.12
7.12
3.14
1.39
4.55
1.24
-0.05
-2.97
-0.38
-4.69
-0.07
1.29
-0.69
0.21

> <PUBCHEM_SHAPE_SELFOVERLAP>
868.965

> <PUBCHEM_SHAPE_VOLUME>
213.1

> <PUBCHEM_COORDINATE_TYPE>
2
5
10

$$$$
