22402079
  -OEChem-10052115183D

 22 23  0     0  0  0  0  0  0999 V2000
    3.1081    1.4511   -0.0003 O   0  0  0  0  0  0  0  0  0  0  0  0
   -1.0388    0.5221    0.0002 N   0  0  0  0  0  0  0  0  0  0  0  0
    0.3063    0.7276    0.0001 N   0  0  0  0  0  0  0  0  0  0  0  0
    2.1962   -0.7237   -0.0006 N   0  0  0  0  0  0  0  0  0  0  0  0
   -1.3320   -0.8460    0.0001 C   0  0  0  0  0  0  0  0  0  0  0  0
    0.8336   -0.4974   -0.0002 C   0  0  0  0  0  0  0  0  0  0  0  0
   -0.1327   -1.5145   -0.0003 C   0  0  0  0  0  0  0  0  0  0  0  0
   -2.6996   -1.2399    0.0001 C   0  0  0  0  0  0  0  0  0  0  0  0
   -2.0478    1.4919    0.0001 C   0  0  0  0  0  0  0  0  0  0  0  0
   -3.6619   -0.2988    0.0001 C   0  0  0  0  0  0  0  0  0  0  0  0
   -3.3364    1.1162    0.0000 C   0  0  0  0  0  0  0  0  0  0  0  0
    3.2214    0.2297   -0.0005 C   0  0  0  0  0  0  0  0  0  0  0  0
    4.5835   -0.4182    0.0011 C   0  0  0  0  0  0  0  0  0  0  0  0
    0.0137   -2.5856   -0.0005 H   0  0  0  0  0  0  0  0  0  0  0  0
   -2.9555   -2.2940    0.0000 H   0  0  0  0  0  0  0  0  0  0  0  0
   -1.7395    2.5303    0.0001 H   0  0  0  0  0  0  0  0  0  0  0  0
    2.4663   -1.7048   -0.0005 H   0  0  0  0  0  0  0  0  0  0  0  0
   -4.7103   -0.5764    0.0000 H   0  0  0  0  0  0  0  0  0  0  0  0
   -4.1423    1.8399    0.0000 H   0  0  0  0  0  0  0  0  0  0  0  0
    4.6956   -1.0477   -0.8862 H   0  0  0  0  0  0  0  0  0  0  0  0
    4.7014   -1.0292    0.9005 H   0  0  0  0  0  0  0  0  0  0  0  0
    5.3602    0.3514   -0.0097 H   0  0  0  0  0  0  0  0  0  0  0  0
  1 12  2  0  0  0  0
  2  3  1  0  0  0  0
  2  5  1  0  0  0  0
  2  9  1  0  0  0  0
  3  6  2  0  0  0  0
  4  6  1  0  0  0  0
  4 12  1  0  0  0  0
  4 17  1  0  0  0  0
  5  7  2  0  0  0  0
  5  8  1  0  0  0  0
  6  7  1  0  0  0  0
  7 14  1  0  0  0  0
  8 10  2  0  0  0  0
  8 15  1  0  0  0  0
  9 11  2  0  0  0  0
  9 16  1  0  0  0  0
 10 11  1  0  0  0  0
 10 18  1  0  0  0  0
 11 19  1  0  0  0  0
 12 13  1  0  0  0  0
 13 20  1  0  0  0  0
 13 21  1  0  0  0  0
 13 22  1  0  0  0  0
M  END
> <PUBCHEM_COMPOUND_CID>
22402079

> <PUBCHEM_CONFORMER_RMSD>
0.6

> <PUBCHEM_CONFORMER_DIVERSEORDER>
1
3
4
2

> <PUBCHEM_MMFF94_PARTIAL_CHARGES>
19
1 -0.57
10 -0.15
11 -0.15
12 0.57
13 0.06
14 0.15
15 0.15
16 0.15
17 0.37
18 0.15
19 0.15
2 0.6
3 -0.71
4 -0.49
5 -0.2
6 0.35
7 -0.15
8 -0.11
9 -0.18

> <PUBCHEM_EFFECTIVE_ROTOR_COUNT>
2

> <PUBCHEM_PHARMACOPHORE_FEATURES>
4
1 1 acceptor
1 4 donor
5 2 3 5 6 7 rings
6 2 5 8 9 10 11 rings

> <PUBCHEM_HEAVY_ATOM_COUNT>
13

> <PUBCHEM_ATOM_DEF_STEREO_COUNT>
0

> <PUBCHEM_ATOM_UDEF_STEREO_COUNT>
0

> <PUBCHEM_BOND_DEF_STEREO_COUNT>
0

> <PUBCHEM_BOND_UDEF_STEREO_COUNT>
0

> <PUBCHEM_ISOTOPIC_ATOM_COUNT>
0

> <PUBCHEM_COMPONENT_COUNT>
1

> <PUBCHEM_CACTVS_TAUTO_COUNT>
3

> <PUBCHEM_CONFORMER_ID>
0155D41F00000001

> <PUBCHEM_MMFF94_ENERGY>
25.9941

> <PUBCHEM_FEATURE_SELFOVERLAP>
20.407

> <PUBCHEM_SHAPE_FINGERPRINT>
10608611 8 18412542119718998912
11132069 177 18411975866851123128
12032990 46 18411143562255455330
12932764 1 17240752978568094310
13024252 1 11602537628920021167
13380535 76 18411138013194885535
14144814 61 18335419058431700074
14325111 11 18410856551086817216
15219456 202 18130795499106265110
15536298 74 18341332288217523300
16945 1 18410294692551045719
17802600 8 18411131446437660344
18186145 218 18271531900987587836
200 152 17561078103165875767
20871998 184 18200880698549940511
21267235 1 18409739468742883347
23402539 116 18343292665350714263
23402655 69 18198046007803352397
23463225 33 18335136462642708762
23559900 14 18271805684279329478
2748010 2 18266467494833042175
5104073 3 18410292536218968768
6333449 129 18412824681464496495
69090 78 18201715171608045062
7364860 26 18195526982928798318
9709674 26 18412550915975941350

> <PUBCHEM_SHAPE_MULTIPOLES>
246.72
7.36
1.51
0.59
5.48
0.12
0
0.79
0
-0.58
0
-0.04
-0.02
0

> <PUBCHEM_SHAPE_SELFOVERLAP>
528.068

> <PUBCHEM_SHAPE_VOLUME>
136.6

> <PUBCHEM_COORDINATE_TYPE>
2
5
10

$$$$
