49830352
  -OEChem-10052115193D

 56 60  0     0  0  0  0  0  0999 V2000
    5.2553    0.6097   -1.7960 S   0  0  0  0  0  0  0  0  0  0  0  0
  -11.3431   -2.2448    0.5672 F   0  0  0  0  0  0  0  0  0  0  0  0
  -10.0928   -2.6774   -1.1586 F   0  0  0  0  0  0  0  0  0  0  0  0
   -3.4661   -0.3891   -0.5042 O   0  0  0  0  0  0  0  0  0  0  0  0
   -9.9445   -0.6492   -0.1624 O   0  0  0  0  0  0  0  0  0  0  0  0
    4.8037   -0.6837    2.4685 N   0  0  0  0  0  0  0  0  0  0  0  0
    9.5303   -1.3528   -0.6131 N   0  0  0  0  0  0  0  0  0  0  0  0
    2.5043   -0.1504    2.3410 N   0  0  0  0  0  0  0  0  0  0  0  0
    9.6590   -0.0451   -0.8950 N   0  0  0  0  0  0  0  0  0  0  0  0
   -2.4896    1.6462    0.1229 N   0  0  0  0  0  0  0  0  0  0  0  0
   -4.7862    1.4101    0.1952 N   0  0  0  0  0  0  0  0  0  0  0  0
    3.9507    0.1759    0.3935 C   0  0  0  0  0  0  0  0  0  0  0  0
    5.2324    0.0800   -0.1559 C   0  0  0  0  0  0  0  0  0  0  0  0
    3.0131    0.6894   -0.5637 C   0  0  0  0  0  0  0  0  0  0  0  0
    6.3122   -0.3971    0.5966 C   0  0  0  0  0  0  0  0  0  0  0  0
    1.6025    0.9348   -0.3885 C   0  0  0  0  0  0  0  0  0  0  0  0
    3.7715   -0.2210    1.7282 C   0  0  0  0  0  0  0  0  0  0  0  0
    7.6309   -0.5031    0.0509 C   0  0  0  0  0  0  0  0  0  0  0  0
    3.5878    0.9633   -1.7821 C   0  0  0  0  0  0  0  0  0  0  0  0
    6.0229   -0.7599    1.9003 C   0  0  0  0  0  0  0  0  0  0  0  0
    0.6790   -0.0720   -0.6705 C   0  0  0  0  0  0  0  0  0  0  0  0
    1.1619    2.1785    0.0638 C   0  0  0  0  0  0  0  0  0  0  0  0
    8.3339   -1.6792   -0.0453 C   0  0  0  0  0  0  0  0  0  0  0  0
   -1.1254    1.4091   -0.0484 C   0  0  0  0  0  0  0  0  0  0  0  0
    8.4956    0.4688   -0.4872 C   0  0  0  0  0  0  0  0  0  0  0  0
   -0.6849    0.1652   -0.5006 C   0  0  0  0  0  0  0  0  0  0  0  0
   -0.2021    2.4158    0.2338 C   0  0  0  0  0  0  0  0  0  0  0  0
   10.6104   -2.2610   -0.9163 C   0  0  0  0  0  0  0  0  0  0  0  0
   -3.5753    0.7656   -0.1044 C   0  0  0  0  0  0  0  0  0  0  0  0
   -6.0974    0.8863    0.1042 C   0  0  0  0  0  0  0  0  0  0  0  0
   -7.1911    1.6814    0.4466 C   0  0  0  0  0  0  0  0  0  0  0  0
   -6.2966   -0.4250   -0.3280 C   0  0  0  0  0  0  0  0  0  0  0  0
   -8.6830   -0.1459   -0.0748 C   0  0  0  0  0  0  0  0  0  0  0  0
   -8.4839    1.1655    0.3572 C   0  0  0  0  0  0  0  0  0  0  0  0
   -7.5893   -0.9410   -0.4174 C   0  0  0  0  0  0  0  0  0  0  0  0
  -10.1063   -2.0479    0.0420 C   0  0  0  0  0  0  0  0  0  0  0  0
    3.1155    1.3553   -2.6732 H   0  0  0  0  0  0  0  0  0  0  0  0
    6.7961   -1.1386    2.5639 H   0  0  0  0  0  0  0  0  0  0  0  0
    1.0074   -1.0473   -1.0226 H   0  0  0  0  0  0  0  0  0  0  0  0
    1.8687    2.9735    0.2896 H   0  0  0  0  0  0  0  0  0  0  0  0
    8.0916   -2.6963    0.2335 H   0  0  0  0  0  0  0  0  0  0  0  0
    8.3336    1.5319   -0.5977 H   0  0  0  0  0  0  0  0  0  0  0  0
   -1.3349   -0.6642   -0.7398 H   0  0  0  0  0  0  0  0  0  0  0  0
   -0.5312    3.3896    0.5875 H   0  0  0  0  0  0  0  0  0  0  0  0
    2.4295   -0.4492    3.3049 H   0  0  0  0  0  0  0  0  0  0  0  0
    1.6796    0.1794    1.8698 H   0  0  0  0  0  0  0  0  0  0  0  0
   -2.7330    2.5760    0.4554 H   0  0  0  0  0  0  0  0  0  0  0  0
   10.7979   -2.2249   -1.9924 H   0  0  0  0  0  0  0  0  0  0  0  0
   11.4951   -1.9409   -0.3603 H   0  0  0  0  0  0  0  0  0  0  0  0
   10.3296   -3.2746   -0.6200 H   0  0  0  0  0  0  0  0  0  0  0  0
   -4.7235    2.3723    0.5180 H   0  0  0  0  0  0  0  0  0  0  0  0
   -7.0497    2.7048    0.7848 H   0  0  0  0  0  0  0  0  0  0  0  0
   -5.5039   -1.1001   -0.6167 H   0  0  0  0  0  0  0  0  0  0  0  0
   -9.3320    1.7896    0.6254 H   0  0  0  0  0  0  0  0  0  0  0  0
   -7.7049   -1.9571   -0.7833 H   0  0  0  0  0  0  0  0  0  0  0  0
   -9.3773   -2.4969    0.7257 H   0  0  0  0  0  0  0  0  0  0  0  0
  1 13  1  0  0  0  0
  1 19  1  0  0  0  0
  2 36  1  0  0  0  0
  3 36  1  0  0  0  0
  4 29  2  0  0  0  0
  5 33  1  0  0  0  0
  5 36  1  0  0  0  0
  6 17  2  0  0  0  0
  6 20  1  0  0  0  0
  7  9  1  0  0  0  0
  7 23  1  0  0  0  0
  7 28  1  0  0  0  0
  8 17  1  0  0  0  0
  8 45  1  0  0  0  0
  8 46  1  0  0  0  0
  9 25  2  0  0  0  0
 10 24  1  0  0  0  0
 10 29  1  0  0  0  0
 10 47  1  0  0  0  0
 11 29  1  0  0  0  0
 11 30  1  0  0  0  0
 11 51  1  0  0  0  0
 12 13  2  0  0  0  0
 12 14  1  0  0  0  0
 12 17  1  0  0  0  0
 13 15  1  0  0  0  0
 14 16  1  0  0  0  0
 14 19  2  0  0  0  0
 15 18  1  0  0  0  0
 15 20  2  0  0  0  0
 16 21  2  0  0  0  0
 16 22  1  0  0  0  0
 18 23  2  0  0  0  0
 18 25  1  0  0  0  0
 19 37  1  0  0  0  0
 20 38  1  0  0  0  0
 21 26  1  0  0  0  0
 21 39  1  0  0  0  0
 22 27  2  0  0  0  0
 22 40  1  0  0  0  0
 23 41  1  0  0  0  0
 24 26  2  0  0  0  0
 24 27  1  0  0  0  0
 25 42  1  0  0  0  0
 26 43  1  0  0  0  0
 27 44  1  0  0  0  0
 28 48  1  0  0  0  0
 28 49  1  0  0  0  0
 28 50  1  0  0  0  0
 30 31  2  0  0  0  0
 30 32  1  0  0  0  0
 31 34  1  0  0  0  0
 31 52  1  0  0  0  0
 32 35  2  0  0  0  0
 32 53  1  0  0  0  0
 33 34  2  0  0  0  0
 33 35  1  0  0  0  0
 34 54  1  0  0  0  0
 35 55  1  0  0  0  0
 36 56  1  0  0  0  0
M  END
> <PUBCHEM_COMPOUND_CID>
49830352

> <PUBCHEM_CONFORMER_RMSD>
1

> <PUBCHEM_CONFORMER_DIVERSEORDER>
1
7
9
3
6
14
11
4
13
17
19
8
5
10
2
18
12
16
15
20

> <PUBCHEM_MMFF94_PARTIAL_CHARGES>
51
1 -0.08
10 -0.55
11 -0.55
13 0.04
14 -0.05
15 0.05
16 0.05
17 0.41
18 -0.05
19 -0.11
2 -0.34
20 0.16
21 -0.15
22 -0.15
23 -0.3
24 0.12
25 0.14
26 -0.15
27 -0.15
28 0.26
29 0.69
3 -0.34
30 0.12
31 -0.15
32 -0.15
33 0.08
34 -0.15
35 -0.15
36 0.96
37 0.15
38 0.15
39 0.15
4 -0.57
40 0.15
41 0.15
42 0.15
43 0.15
44 0.15
45 0.4
46 0.4
47 0.37
5 -0.36
51 0.37
52 0.15
53 0.15
54 0.15
55 0.15
6 -0.62
7 0.31
8 -0.9
9 -0.71

> <PUBCHEM_EFFECTIVE_ROTOR_COUNT>
8

> <PUBCHEM_PHARMACOPHORE_FEATURES>
12
1 10 donor
1 11 donor
1 4 acceptor
1 5 acceptor
1 8 donor
1 9 acceptor
3 6 8 17 cation
5 1 12 13 14 19 rings
5 7 9 18 23 25 rings
6 16 21 22 24 26 27 rings
6 30 31 32 33 34 35 rings
6 6 12 13 15 17 20 rings

> <PUBCHEM_HEAVY_ATOM_COUNT>
36

> <PUBCHEM_ATOM_DEF_STEREO_COUNT>
0

> <PUBCHEM_ATOM_UDEF_STEREO_COUNT>
0

> <PUBCHEM_BOND_DEF_STEREO_COUNT>
0

> <PUBCHEM_BOND_UDEF_STEREO_COUNT>
0

> <PUBCHEM_ISOTOPIC_ATOM_COUNT>
0

> <PUBCHEM_COMPONENT_COUNT>
1

> <PUBCHEM_CACTVS_TAUTO_COUNT>
6

> <PUBCHEM_CONFORMER_ID>
02F859D000000001

> <PUBCHEM_MMFF94_ENERGY>
114.3687

> <PUBCHEM_FEATURE_SELFOVERLAP>
61.011

> <PUBCHEM_SHAPE_FINGERPRINT>
10076449 9 17022621961671063805
10162869 55 17167863079797426628
10299344 5 17967813838792033049
10533779 47 15985112890186959502
11386260 185 15574718032125864653
11456790 92 15339117944358692227
11534866 41 17489873722258078782
11607047 74 18266180707641974996
12013929 94 18410858762984483786
12089408 11 18408045099923666245
12498461 61 17846775226719986263
12539745 222 18060422374742941801
12592606 108 18334574646750453833
12741549 16 16988840541678339696
13553643 46 12751235891937461739
14117953 113 16153716414511667742
14118638 360 15864343606338520500
14202775 3 18343308045845788726
150020 25 14345796050550940905
15065858 18 18343015584231535749
15183329 4 17095239220793153065
15198563 99 14851874817340215407
15247644 1 18335423478629274659
15510794 2 17988928851005913591
15840311 113 18334860537676887868
16728433 110 18261110811331866413
16728433 281 14057821791894657695
1818759 1 18410855455981089007
19315958 150 15770061631097185492
20105231 36 18341331111607552278
20721686 124 13045941292656022664
21362267 20 18273212019486600695
21792938 703 18335431157196986891
232437 2 18412827979698758094
23522609 53 17970374575878620693
24893992 56 16343695547605885550
249057 3 16370733642608627828
3178227 256 15554440787758753692
335352 9 17313107449430369544
3383291 50 18060700628947548855
54039377 194 18408886239699318733
57303763 39 17987796444724907502
6081469 158 16988562386346987448
9962374 69 18409444821228005285

> <PUBCHEM_SHAPE_MULTIPOLES>
688.54
41.41
2.05
1.43
51.58
0.44
0.57
30.22
-5.86
3.05
-0.2
-2.86
0.23
-1.33

> <PUBCHEM_SHAPE_SELFOVERLAP>
1517.806

> <PUBCHEM_SHAPE_VOLUME>
376.6

> <PUBCHEM_COORDINATE_TYPE>
2
5
10

$$$$
