44352771
  -OEChem-10062122013D

 70 77  0     1  0  0  0  0  0999 V2000
    1.1276   -1.5652   -2.3356 O   0  0  0  0  0  0  0  0  0  0  0  0
    3.8848   -1.3499    0.1378 O   0  0  0  0  0  0  0  0  0  0  0  0
   -4.5856    2.4327    0.0507 O   0  0  0  0  0  0  0  0  0  0  0  0
   -0.6419   -0.2800    2.5600 O   0  0  0  0  0  0  0  0  0  0  0  0
   -0.5581   -1.8662    4.2316 O   0  0  0  0  0  0  0  0  0  0  0  0
    1.6244    0.2974   -0.9742 N   0  0  0  0  0  0  0  0  0  0  0  0
   -0.8490   -1.3923   -1.1388 N   0  0  0  0  0  0  0  0  0  0  0  0
    1.3320   -1.8240    1.4018 N   0  0  1  0  0  0  0  0  0  0  0  0
   -2.9341    4.0610    0.3598 N   0  0  0  0  0  0  0  0  0  0  0  0
    2.1614   -0.9171   -1.5913 C   0  0  1  0  0  0  0  0  0  0  0  0
    2.8259   -1.9254   -0.6137 C   0  0  2  0  0  0  0  0  0  0  0  0
    1.8509   -2.6540    0.3169 C   0  0  2  0  0  0  0  0  0  0  0  0
    0.1759   -2.2935   -1.5944 C   0  0  2  0  0  0  0  0  0  0  0  0
    0.7340   -3.2472   -0.5334 C   0  0  0  0  0  0  0  0  0  0  0  0
    0.3323    0.7389   -0.7663 C   0  0  0  0  0  0  0  0  0  0  0  0
   -0.8452   -0.0597   -0.8546 C   0  0  0  0  0  0  0  0  0  0  0  0
    0.0818    2.1052   -0.3618 C   0  0  0  0  0  0  0  0  0  0  0  0
   -2.0941    0.6242   -0.5625 C   0  0  0  0  0  0  0  0  0  0  0  0
    3.1582   -0.5711   -2.7251 C   0  0  0  0  0  0  0  0  0  0  0  0
    2.3575    1.4391   -0.5806 C   0  0  0  0  0  0  0  0  0  0  0  0
   -2.2038   -1.7124   -1.0284 C   0  0  0  0  0  0  0  0  0  0  0  0
    1.4731    2.5157   -0.2656 C   0  0  0  0  0  0  0  0  0  0  0  0
   -1.1265    2.7556   -0.1266 C   0  0  0  0  0  0  0  0  0  0  0  0
   -2.2596    1.9680   -0.2432 C   0  0  0  0  0  0  0  0  0  0  0  0
   -2.9637   -0.5493   -0.7057 C   0  0  0  0  0  0  0  0  0  0  0  0
   -1.4912    4.1455    0.2768 C   0  0  0  0  0  0  0  0  0  0  0  0
    0.1093   -2.4076    1.9533 C   0  0  0  0  0  0  0  0  0  0  0  0
    3.7513    1.6512   -0.4784 C   0  0  0  0  0  0  0  0  0  0  0  0
   -3.4253    2.7938    0.0625 C   0  0  0  0  0  0  0  0  0  0  0  0
    2.3390   -1.6636    2.4507 C   0  0  0  0  0  0  0  0  0  0  0  0
   -2.8304   -2.9648   -1.2008 C   0  0  0  0  0  0  0  0  0  0  0  0
    2.0293    3.7665    0.1106 C   0  0  0  0  0  0  0  0  0  0  0  0
   -4.3660   -0.7109   -0.5660 C   0  0  0  0  0  0  0  0  0  0  0  0
    4.8730   -2.3153    0.4739 C   0  0  0  0  0  0  0  0  0  0  0  0
    4.2580    2.8972   -0.0988 C   0  0  0  0  0  0  0  0  0  0  0  0
    3.4080    3.9482    0.1875 C   0  0  0  0  0  0  0  0  0  0  0  0
   -4.2127   -3.0707   -1.0540 C   0  0  0  0  0  0  0  0  0  0  0  0
   -4.9735   -1.9576   -0.7410 C   0  0  0  0  0  0  0  0  0  0  0  0
   -0.3954   -1.5254    3.0678 C   0  0  0  0  0  0  0  0  0  0  0  0
   -1.1315    0.6832    3.4989 C   0  0  0  0  0  0  0  0  0  0  0  0
    3.2544   -2.7072   -1.2620 H   0  0  0  0  0  0  0  0  0  0  0  0
    2.3603   -3.5178    0.7659 H   0  0  0  0  0  0  0  0  0  0  0  0
   -0.3142   -2.9224   -2.3479 H   0  0  0  0  0  0  0  0  0  0  0  0
    1.2245   -4.0494   -1.1097 H   0  0  0  0  0  0  0  0  0  0  0  0
   -0.0456   -3.7964    0.0011 H   0  0  0  0  0  0  0  0  0  0  0  0
    3.3149   -1.4401   -3.3776 H   0  0  0  0  0  0  0  0  0  0  0  0
    4.1443   -0.2689   -2.3713 H   0  0  0  0  0  0  0  0  0  0  0  0
    2.7627    0.2242   -3.3689 H   0  0  0  0  0  0  0  0  0  0  0  0
   -1.0953    4.4122    1.2597 H   0  0  0  0  0  0  0  0  0  0  0  0
   -1.2199    4.8847   -0.4806 H   0  0  0  0  0  0  0  0  0  0  0  0
   -0.7401   -2.4553    1.2718 H   0  0  0  0  0  0  0  0  0  0  0  0
    0.2826   -3.4101    2.3649 H   0  0  0  0  0  0  0  0  0  0  0  0
    4.4666    0.8644   -0.6823 H   0  0  0  0  0  0  0  0  0  0  0  0
    1.9414   -1.1814    3.3503 H   0  0  0  0  0  0  0  0  0  0  0  0
    3.1374   -0.9782    2.1653 H   0  0  0  0  0  0  0  0  0  0  0  0
    2.7707   -2.6175    2.7750 H   0  0  0  0  0  0  0  0  0  0  0  0
   -2.2519   -3.8515   -1.4435 H   0  0  0  0  0  0  0  0  0  0  0  0
    1.3779    4.6021    0.3546 H   0  0  0  0  0  0  0  0  0  0  0  0
   -5.0016    0.1310   -0.3162 H   0  0  0  0  0  0  0  0  0  0  0  0
   -3.5283    4.8449    0.6107 H   0  0  0  0  0  0  0  0  0  0  0  0
    5.6422   -1.8140    1.0683 H   0  0  0  0  0  0  0  0  0  0  0  0
    5.3490   -2.7054   -0.4315 H   0  0  0  0  0  0  0  0  0  0  0  0
    4.4706   -3.1381    1.0688 H   0  0  0  0  0  0  0  0  0  0  0  0
    5.3334    3.0380   -0.0290 H   0  0  0  0  0  0  0  0  0  0  0  0
    3.8116    4.9126    0.4810 H   0  0  0  0  0  0  0  0  0  0  0  0
   -4.6944   -4.0357   -1.1860 H   0  0  0  0  0  0  0  0  0  0  0  0
   -6.0500   -2.0512   -0.6275 H   0  0  0  0  0  0  0  0  0  0  0  0
   -1.2445    1.6383    2.9797 H   0  0  0  0  0  0  0  0  0  0  0  0
   -0.4178    0.8128    4.3179 H   0  0  0  0  0  0  0  0  0  0  0  0
   -2.1085    0.3728    3.8809 H   0  0  0  0  0  0  0  0  0  0  0  0
  1 10  1  0  0  0  0
  1 13  1  0  0  0  0
  2 11  1  0  0  0  0
  2 34  1  0  0  0  0
  3 29  2  0  0  0  0
  4 39  1  0  0  0  0
  4 40  1  0  0  0  0
  5 39  2  0  0  0  0
  6 10  1  0  0  0  0
  6 15  1  0  0  0  0
  6 20  1  0  0  0  0
  7 13  1  0  0  0  0
  7 16  1  0  0  0  0
  7 21  1  0  0  0  0
  8 12  1  0  0  0  0
  8 27  1  0  0  0  0
  8 30  1  0  0  0  0
  9 26  1  0  0  0  0
  9 29  1  0  0  0  0
  9 60  1  0  0  0  0
 10 11  1  0  0  0  0
 10 19  1  0  0  0  0
 11 12  1  0  0  0  0
 11 41  1  0  0  0  0
 12 14  1  0  0  0  0
 12 42  1  0  0  0  0
 13 14  1  0  0  0  0
 13 43  1  0  0  0  0
 14 44  1  0  0  0  0
 14 45  1  0  0  0  0
 15 16  2  0  0  0  0
 15 17  1  0  0  0  0
 16 18  1  0  0  0  0
 17 22  1  0  0  0  0
 17 23  2  0  0  0  0
 18 24  2  0  0  0  0
 18 25  1  0  0  0  0
 19 46  1  0  0  0  0
 19 47  1  0  0  0  0
 19 48  1  0  0  0  0
 20 22  1  0  0  0  0
 20 28  2  0  0  0  0
 21 25  1  0  0  0  0
 21 31  2  0  0  0  0
 22 32  2  0  0  0  0
 23 24  1  0  0  0  0
 23 26  1  0  0  0  0
 24 29  1  0  0  0  0
 25 33  2  0  0  0  0
 26 49  1  0  0  0  0
 26 50  1  0  0  0  0
 27 39  1  0  0  0  0
 27 51  1  0  0  0  0
 27 52  1  0  0  0  0
 28 35  1  0  0  0  0
 28 53  1  0  0  0  0
 30 54  1  0  0  0  0
 30 55  1  0  0  0  0
 30 56  1  0  0  0  0
 31 37  1  0  0  0  0
 31 57  1  0  0  0  0
 32 36  1  0  0  0  0
 32 58  1  0  0  0  0
 33 38  1  0  0  0  0
 33 59  1  0  0  0  0
 34 61  1  0  0  0  0
 34 62  1  0  0  0  0
 34 63  1  0  0  0  0
 35 36  2  0  0  0  0
 35 64  1  0  0  0  0
 36 65  1  0  0  0  0
 37 38  2  0  0  0  0
 37 66  1  0  0  0  0
 38 67  1  0  0  0  0
 40 68  1  0  0  0  0
 40 69  1  0  0  0  0
 40 70  1  0  0  0  0
M  END
> <PUBCHEM_COMPOUND_CID>
44352771

> <PUBCHEM_CONFORMER_RMSD>
1

> <PUBCHEM_CONFORMER_DIVERSEORDER>
1
5
2
8
7
4
3
6

> <PUBCHEM_MMFF94_PARTIAL_CHARGES>
45
1 -0.56
10 0.54
11 0.28
12 0.27
13 0.54
15 -0.05
16 -0.05
17 -0.01
18 -0.01
2 -0.56
20 -0.15
21 -0.15
23 -0.14
24 0.09
26 0.44
27 0.33
28 -0.15
29 0.54
3 -0.57
30 0.27
31 -0.15
32 -0.15
33 -0.15
34 0.28
35 -0.15
36 -0.15
37 -0.15
38 -0.15
39 0.66
4 -0.43
40 0.28
5 -0.57
53 0.15
57 0.15
58 0.15
59 0.15
6 -0.04
60 0.37
64 0.15
65 0.15
66 0.15
67 0.15
7 -0.04
8 -0.81
9 -0.73

> <PUBCHEM_EFFECTIVE_ROTOR_COUNT>
6.2

> <PUBCHEM_PHARMACOPHORE_FEATURES>
16
1 1 acceptor
1 2 acceptor
1 3 acceptor
1 5 acceptor
1 6 cation
1 7 cation
1 8 cation
1 9 donor
5 6 15 17 20 22 rings
5 7 16 18 21 25 rings
5 9 23 24 26 29 rings
6 1 10 11 12 13 14 rings
6 15 16 17 18 23 24 rings
6 20 22 28 32 35 36 rings
6 21 25 31 33 37 38 rings
7 1 6 7 10 13 15 16 rings

> <PUBCHEM_HEAVY_ATOM_COUNT>
40

> <PUBCHEM_ATOM_DEF_STEREO_COUNT>
4

> <PUBCHEM_ATOM_UDEF_STEREO_COUNT>
0

> <PUBCHEM_BOND_DEF_STEREO_COUNT>
0

> <PUBCHEM_BOND_UDEF_STEREO_COUNT>
0

> <PUBCHEM_ISOTOPIC_ATOM_COUNT>
0

> <PUBCHEM_COMPONENT_COUNT>
1

> <PUBCHEM_CACTVS_TAUTO_COUNT>
2

> <PUBCHEM_CONFORMER_ID>
02A4C50300000001

> <PUBCHEM_MMFF94_ENERGY>
175.1358

> <PUBCHEM_FEATURE_SELFOVERLAP>
82.324

> <PUBCHEM_SHAPE_FINGERPRINT>
10006869 2 18271236235686832287
10906281 52 17832439952461191605
1100329 8 18267864986669832324
11007060 377 18126018298227543196
11578080 2 17060039442408437617
11607047 403 13532306219121246631
12107698 1 18410004442740066510
12156800 1 17984674926407117905
12608794 3 17983331284954920850
12788726 201 18049152564782849592
13140716 1 18341330015710410277
13583140 156 17388263334408440997
14790565 3 17836368520587523877
15513586 35 16316032870191097064
19319366 153 17390242424745737065
20600515 1 17840294528601000342
20691752 17 17676487228847594924
21033648 29 17344600696360561042
21421861 104 18409165524094904625
23558518 356 18336273400521109117
35225 105 16445050848683921587
70251023 43 18270138884069390535

> <PUBCHEM_SHAPE_MULTIPOLES>
773.91
7.52
5.57
2.65
1.77
4.17
-3.33
0.07
2.33
-0.31
-0.31
-0.09
-2.19
-1.03

> <PUBCHEM_SHAPE_SELFOVERLAP>
1762.153

> <PUBCHEM_SHAPE_VOLUME>
400.8

> <PUBCHEM_COORDINATE_TYPE>
2
5
10

$$$$
