44376043
  -OEChem-10062121593D

 57 61  0     0  0  0  0  0  0999 V2000
    1.2297    1.7366   -1.7154 S   0  0  0  0  0  0  0  0  0  0  0  0
   -5.5376   -0.2448    1.3358 S   0  0  0  0  0  0  0  0  0  0  0  0
    3.8179   -2.0874   -1.7697 O   0  0  0  0  0  0  0  0  0  0  0  0
    5.3625    0.6114    1.5959 O   0  0  0  0  0  0  0  0  0  0  0  0
    1.3584   -0.0833    2.5059 O   0  0  0  0  0  0  0  0  0  0  0  0
   -0.8417   -1.2706   -0.7039 N   0  0  0  0  0  0  0  0  0  0  0  0
    4.9681   -0.7871   -0.2228 N   0  0  0  0  0  0  0  0  0  0  0  0
   -8.1358   -0.6833    1.2934 N   0  0  0  0  0  0  0  0  0  0  0  0
   -7.2763    0.5793   -0.5077 N   0  0  0  0  0  0  0  0  0  0  0  0
    0.2772   -0.5069   -0.5057 C   0  0  0  0  0  0  0  0  0  0  0  0
    1.3277   -1.3553   -0.2416 C   0  0  0  0  0  0  0  0  0  0  0  0
   -0.5344   -2.6061   -0.5724 C   0  0  0  0  0  0  0  0  0  0  0  0
    0.8289   -2.6875   -0.2806 C   0  0  0  0  0  0  0  0  0  0  0  0
   -2.1638   -0.7611   -1.0114 C   0  0  0  0  0  0  0  0  0  0  0  0
    2.7038   -0.9406    0.0276 C   0  0  0  0  0  0  0  0  0  0  0  0
    0.2615    0.9120   -0.5805 C   0  0  0  0  0  0  0  0  0  0  0  0
   -3.0818   -0.7901    0.2142 C   0  0  0  0  0  0  0  0  0  0  0  0
   -1.3507   -3.7369   -0.6883 C   0  0  0  0  0  0  0  0  0  0  0  0
    1.4081   -3.9585   -0.0952 C   0  0  0  0  0  0  0  0  0  0  0  0
    3.1694   -0.1573    1.0131 C   0  0  0  0  0  0  0  0  0  0  0  0
   -0.4788    1.7765    0.1905 C   0  0  0  0  0  0  0  0  0  0  0  0
    3.8694   -1.3669   -0.7873 C   0  0  0  0  0  0  0  0  0  0  0  0
   -4.4533   -0.2099   -0.1204 C   0  0  0  0  0  0  0  0  0  0  0  0
   -0.7542   -4.9869   -0.5001 C   0  0  0  0  0  0  0  0  0  0  0  0
    0.6037   -5.0984   -0.2081 C   0  0  0  0  0  0  0  0  0  0  0  0
   -0.2580    3.1542   -0.1462 C   0  0  0  0  0  0  0  0  0  0  0  0
    0.6672    3.2787   -1.1873 C   0  0  0  0  0  0  0  0  0  0  0  0
    4.6337   -0.0374    0.8657 C   0  0  0  0  0  0  0  0  0  0  0  0
    2.3843    0.4590    2.0764 C   0  0  0  0  0  0  0  0  0  0  0  0
   -0.8153    4.3363    0.3988 C   0  0  0  0  0  0  0  0  0  0  0  0
    1.0446    4.5392   -1.6906 C   0  0  0  0  0  0  0  0  0  0  0  0
   -0.4432    5.5881   -0.0980 C   0  0  0  0  0  0  0  0  0  0  0  0
    0.4772    5.6862   -1.1320 C   0  0  0  0  0  0  0  0  0  0  0  0
    2.8596    1.7750    2.6488 C   0  0  0  0  0  0  0  0  0  0  0  0
   -7.1280   -0.0760    0.5990 C   0  0  0  0  0  0  0  0  0  0  0  0
   -2.5752   -1.3882   -1.8119 H   0  0  0  0  0  0  0  0  0  0  0  0
   -2.0885    0.2454   -1.4325 H   0  0  0  0  0  0  0  0  0  0  0  0
   -2.6262   -0.2296    1.0382 H   0  0  0  0  0  0  0  0  0  0  0  0
   -3.1954   -1.8216    0.5698 H   0  0  0  0  0  0  0  0  0  0  0  0
   -2.4080   -3.6634   -0.9189 H   0  0  0  0  0  0  0  0  0  0  0  0
    2.4642   -4.0654    0.1356 H   0  0  0  0  0  0  0  0  0  0  0  0
   -1.1442    1.4607    0.9836 H   0  0  0  0  0  0  0  0  0  0  0  0
   -4.9088   -0.7992   -0.9237 H   0  0  0  0  0  0  0  0  0  0  0  0
   -4.3593    0.8250   -0.4654 H   0  0  0  0  0  0  0  0  0  0  0  0
   -1.3601   -5.8855   -0.5838 H   0  0  0  0  0  0  0  0  0  0  0  0
    1.0449   -6.0814   -0.0657 H   0  0  0  0  0  0  0  0  0  0  0  0
    5.9137   -0.8977   -0.5709 H   0  0  0  0  0  0  0  0  0  0  0  0
   -1.5377    4.2753    1.2092 H   0  0  0  0  0  0  0  0  0  0  0  0
    1.7644    4.6255   -2.4996 H   0  0  0  0  0  0  0  0  0  0  0  0
   -0.8778    6.4878    0.3287 H   0  0  0  0  0  0  0  0  0  0  0  0
    0.7605    6.6640   -1.5119 H   0  0  0  0  0  0  0  0  0  0  0  0
    3.3216    2.3908    1.8723 H   0  0  0  0  0  0  0  0  0  0  0  0
    3.5657    1.5909    3.4618 H   0  0  0  0  0  0  0  0  0  0  0  0
    1.9973    2.3272    3.0349 H   0  0  0  0  0  0  0  0  0  0  0  0
   -9.0956   -0.6539    0.9672 H   0  0  0  0  0  0  0  0  0  0  0  0
   -7.9530   -1.1826    2.1571 H   0  0  0  0  0  0  0  0  0  0  0  0
   -8.2677    0.5640   -0.7709 H   0  0  0  0  0  0  0  0  0  0  0  0
  1 16  1  0  0  0  0
  1 27  1  0  0  0  0
  2 23  1  0  0  0  0
  2 35  1  0  0  0  0
  3 22  2  0  0  0  0
  4 28  2  0  0  0  0
  5 29  2  0  0  0  0
  6 10  1  0  0  0  0
  6 12  1  0  0  0  0
  6 14  1  0  0  0  0
  7 22  1  0  0  0  0
  7 28  1  0  0  0  0
  7 47  1  0  0  0  0
  8 35  1  0  0  0  0
  8 55  1  0  0  0  0
  8 56  1  0  0  0  0
  9 35  2  0  0  0  0
  9 57  1  0  0  0  0
 10 11  2  0  0  0  0
 10 16  1  0  0  0  0
 11 13  1  0  0  0  0
 11 15  1  0  0  0  0
 12 13  1  0  0  0  0
 12 18  2  0  0  0  0
 13 19  2  0  0  0  0
 14 17  1  0  0  0  0
 14 36  1  0  0  0  0
 14 37  1  0  0  0  0
 15 20  2  0  0  0  0
 15 22  1  0  0  0  0
 16 21  2  0  0  0  0
 17 23  1  0  0  0  0
 17 38  1  0  0  0  0
 17 39  1  0  0  0  0
 18 24  1  0  0  0  0
 18 40  1  0  0  0  0
 19 25  1  0  0  0  0
 19 41  1  0  0  0  0
 20 28  1  0  0  0  0
 20 29  1  0  0  0  0
 21 26  1  0  0  0  0
 21 42  1  0  0  0  0
 23 43  1  0  0  0  0
 23 44  1  0  0  0  0
 24 25  2  0  0  0  0
 24 45  1  0  0  0  0
 25 46  1  0  0  0  0
 26 27  1  0  0  0  0
 26 30  2  0  0  0  0
 27 31  2  0  0  0  0
 29 34  1  0  0  0  0
 30 32  1  0  0  0  0
 30 48  1  0  0  0  0
 31 33  1  0  0  0  0
 31 49  1  0  0  0  0
 32 33  2  0  0  0  0
 32 50  1  0  0  0  0
 33 51  1  0  0  0  0
 34 52  1  0  0  0  0
 34 53  1  0  0  0  0
 34 54  1  0  0  0  0
M  END
> <PUBCHEM_COMPOUND_CID>
44376043

> <PUBCHEM_CONFORMER_RMSD>
1

> <PUBCHEM_CONFORMER_DIVERSEORDER>
15
19
62
50
45
68
82
65
56
18
40
61
80
28
78
85
54
63
51
46
32
37
66
47
43
33
49
24
22
39
38
30
23
74
79
81
11
6
84
21
57
5
16
17
58
42
26
2
8
4
71
73
53
60
36
41
52
20
10
75
55
14
35
69
34
77
67
12
72
25
31
27
44
64
1
59
9
7
76
70
3
29
86
13
83
48

> <PUBCHEM_MMFF94_PARTIAL_CHARGES>
45
1 -0.08
10 -0.15
11 -0.05
12 -0.15
14 0.26
15 0.06
16 0.04
18 -0.15
19 -0.15
2 -0.37
20 0.03
21 -0.15
22 0.62
23 0.23
24 -0.15
25 -0.15
27 0.04
28 0.62
29 0.49
3 -0.57
30 -0.15
31 -0.15
32 -0.15
33 -0.15
34 0.06
35 0.64
4 -0.57
40 0.15
41 0.15
42 0.15
45 0.15
46 0.15
47 0.37
48 0.15
49 0.15
5 -0.57
50 0.15
51 0.15
55 0.4
56 0.4
57 0.4
6 0.05
7 -0.49
8 -0.85
9 -0.85

> <PUBCHEM_EFFECTIVE_ROTOR_COUNT>
8.2

> <PUBCHEM_PHARMACOPHORE_FEATURES>
13
1 3 acceptor
1 4 acceptor
1 5 acceptor
1 6 cation
1 7 donor
1 8 donor
1 9 donor
3 8 9 35 cation
5 1 16 21 26 27 rings
5 6 10 11 12 13 rings
5 7 15 20 22 28 rings
6 12 13 18 19 24 25 rings
6 26 27 30 31 32 33 rings

> <PUBCHEM_HEAVY_ATOM_COUNT>
35

> <PUBCHEM_ATOM_DEF_STEREO_COUNT>
0

> <PUBCHEM_ATOM_UDEF_STEREO_COUNT>
0

> <PUBCHEM_BOND_DEF_STEREO_COUNT>
0

> <PUBCHEM_BOND_UDEF_STEREO_COUNT>
0

> <PUBCHEM_ISOTOPIC_ATOM_COUNT>
0

> <PUBCHEM_COMPONENT_COUNT>
1

> <PUBCHEM_CACTVS_TAUTO_COUNT>
6

> <PUBCHEM_CONFORMER_ID>
02A51FEB0000000F

> <PUBCHEM_MMFF94_ENERGY>
75.8066

> <PUBCHEM_FEATURE_SELFOVERLAP>
66.162

> <PUBCHEM_SHAPE_FINGERPRINT>
10165383 225 18412829084070316546
10190108 129 18124899879451460667
102385 1 17617095811209176295
1100329 8 18265898140656108118
13140716 1 18338506556235209418
133893 2 16884669751412622772
13617811 41 18336562538051181574
140371 6 18335997376358550217
14955137 171 18335709363903525099
15775530 1 17690277110541436771
15840311 113 17775288270657996425
15927050 60 17833562566638613277
20600515 1 18270113647273692340
20739085 24 18410857680821861657
21033648 29 18058719338025242739
23559900 14 17547275062415444990
24771293 8 18200865287832397948
3178227 256 18336840766354628939
350125 39 18051408475233463526
469060 322 18265630792038038665
57527295 17 17323812526994860588
57527306 92 17894351094616047340
9777508 108 17472416548093509813

> <PUBCHEM_SHAPE_MULTIPOLES>
690.45
10.83
7.78
1.76
26.01
5.03
-0.91
-2.26
-5.25
-1.83
3.45
-1.39
0.9
0.31

> <PUBCHEM_SHAPE_SELFOVERLAP>
1508.244

> <PUBCHEM_SHAPE_VOLUME>
380

> <PUBCHEM_COORDINATE_TYPE>
2
5
10

$$$$
