49830745
  -OEChem-10062121543D

 50 52  0     1  0  0  0  0  0999 V2000
   -3.1614   -1.4387    0.1119 O   0  0  0  0  0  0  0  0  0  0  0  0
   -2.8943    1.2348    1.0933 O   0  0  0  0  0  0  0  0  0  0  0  0
   -6.3806    0.1678    0.9532 N   0  0  0  0  0  0  0  0  0  0  0  0
   -1.4081    3.7005   -1.1631 N   0  0  0  0  0  0  0  0  0  0  0  0
    6.4098   -0.1953    0.4452 N   0  0  0  0  0  0  0  0  0  0  0  0
   -4.9335   -0.0519    0.9908 C   0  0  1  0  0  0  0  0  0  0  0  0
   -4.5666   -1.2174    0.0668 C   0  0  0  0  0  0  0  0  0  0  0  0
   -4.2223    1.2387    0.5840 C   0  0  0  0  0  0  0  0  0  0  0  0
   -2.7707   -2.4811   -0.7706 C   0  0  0  0  0  0  0  0  0  0  0  0
   -1.2847   -2.6683   -0.6802 C   0  0  0  0  0  0  0  0  0  0  0  0
   -1.9495    1.9008    0.3576 C   0  0  0  0  0  0  0  0  0  0  0  0
   -0.6198    1.4942    0.3615 C   0  0  0  0  0  0  0  0  0  0  0  0
   -0.4383   -1.9481   -1.5232 C   0  0  0  0  0  0  0  0  0  0  0  0
   -0.7497   -3.5627    0.2467 C   0  0  0  0  0  0  0  0  0  0  0  0
    0.3162    2.1895   -0.3961 C   0  0  0  0  0  0  0  0  0  0  0  0
   -2.2893    3.0001   -0.4145 C   0  0  0  0  0  0  0  0  0  0  0  0
    0.9431   -2.1224   -1.4393 C   0  0  0  0  0  0  0  0  0  0  0  0
    0.6316   -3.7371    0.3308 C   0  0  0  0  0  0  0  0  0  0  0  0
   -0.1249    3.2758   -1.1344 C   0  0  0  0  0  0  0  0  0  0  0  0
    1.7114    1.7900   -0.4140 C   0  0  0  0  0  0  0  0  0  0  0  0
    1.4780   -3.0169   -0.5123 C   0  0  0  0  0  0  0  0  0  0  0  0
    2.3189    1.0226    0.5242 C   0  0  0  0  0  0  0  0  0  0  0  0
    3.7311    0.6024    0.4970 C   0  0  0  0  0  0  0  0  0  0  0  0
    4.6515    1.2973   -0.2799 C   0  0  0  0  0  0  0  0  0  0  0  0
    4.1486   -0.4909    1.2480 C   0  0  0  0  0  0  0  0  0  0  0  0
    5.9669    0.8623   -0.2714 C   0  0  0  0  0  0  0  0  0  0  0  0
    5.4866   -0.8459    1.1883 C   0  0  0  0  0  0  0  0  0  0  0  0
   -4.6350   -0.3127    2.0140 H   0  0  0  0  0  0  0  0  0  0  0  0
   -4.8696   -0.9981   -0.9651 H   0  0  0  0  0  0  0  0  0  0  0  0
   -5.0825   -2.1297    0.3914 H   0  0  0  0  0  0  0  0  0  0  0  0
   -4.7295    2.1080    1.0217 H   0  0  0  0  0  0  0  0  0  0  0  0
   -4.2558    1.3323   -0.5101 H   0  0  0  0  0  0  0  0  0  0  0  0
   -3.0554   -2.2297   -1.8000 H   0  0  0  0  0  0  0  0  0  0  0  0
   -3.2850   -3.4128   -0.5037 H   0  0  0  0  0  0  0  0  0  0  0  0
   -6.8632   -0.6779    1.2543 H   0  0  0  0  0  0  0  0  0  0  0  0
   -6.6355    0.8952    1.6201 H   0  0  0  0  0  0  0  0  0  0  0  0
   -0.3564    0.6204    0.9507 H   0  0  0  0  0  0  0  0  0  0  0  0
   -0.8428   -1.2450   -2.2465 H   0  0  0  0  0  0  0  0  0  0  0  0
   -1.3987   -4.1278    0.9105 H   0  0  0  0  0  0  0  0  0  0  0  0
   -3.2964    3.4015   -0.4526 H   0  0  0  0  0  0  0  0  0  0  0  0
    1.6025   -1.5596   -2.0936 H   0  0  0  0  0  0  0  0  0  0  0  0
    1.0484   -4.4325    1.0533 H   0  0  0  0  0  0  0  0  0  0  0  0
    0.5538    3.8629   -1.7465 H   0  0  0  0  0  0  0  0  0  0  0  0
    2.2683    2.1458   -1.2766 H   0  0  0  0  0  0  0  0  0  0  0  0
    2.5537   -3.1514   -0.4459 H   0  0  0  0  0  0  0  0  0  0  0  0
    1.7660    0.6619    1.3875 H   0  0  0  0  0  0  0  0  0  0  0  0
    4.3970    2.1682   -0.8729 H   0  0  0  0  0  0  0  0  0  0  0  0
    3.4613   -1.0606    1.8651 H   0  0  0  0  0  0  0  0  0  0  0  0
    6.7249    1.3726   -0.8566 H   0  0  0  0  0  0  0  0  0  0  0  0
    5.8626   -1.6915    1.7547 H   0  0  0  0  0  0  0  0  0  0  0  0
  1  7  1  0  0  0  0
  1  9  1  0  0  0  0
  2  8  1  0  0  0  0
  2 11  1  0  0  0  0
  3  6  1  0  0  0  0
  3 35  1  0  0  0  0
  3 36  1  0  0  0  0
  4 16  1  0  0  0  0
  4 19  2  0  0  0  0
  5 26  2  0  0  0  0
  5 27  1  0  0  0  0
  6  7  1  0  0  0  0
  6  8  1  0  0  0  0
  6 28  1  0  0  0  0
  7 29  1  0  0  0  0
  7 30  1  0  0  0  0
  8 31  1  0  0  0  0
  8 32  1  0  0  0  0
  9 10  1  0  0  0  0
  9 33  1  0  0  0  0
  9 34  1  0  0  0  0
 10 13  2  0  0  0  0
 10 14  1  0  0  0  0
 11 12  1  0  0  0  0
 11 16  2  0  0  0  0
 12 15  2  0  0  0  0
 12 37  1  0  0  0  0
 13 17  1  0  0  0  0
 13 38  1  0  0  0  0
 14 18  2  0  0  0  0
 14 39  1  0  0  0  0
 15 19  1  0  0  0  0
 15 20  1  0  0  0  0
 16 40  1  0  0  0  0
 17 21  2  0  0  0  0
 17 41  1  0  0  0  0
 18 21  1  0  0  0  0
 18 42  1  0  0  0  0
 19 43  1  0  0  0  0
 20 22  2  3  0  0  0
 20 44  1  0  0  0  0
 21 45  1  0  0  0  0
 22 23  1  0  0  0  0
 22 46  1  0  0  0  0
 23 24  2  0  0  0  0
 23 25  1  0  0  0  0
 24 26  1  0  0  0  0
 24 47  1  0  0  0  0
 25 27  2  0  0  0  0
 25 48  1  0  0  0  0
 26 49  1  0  0  0  0
 27 50  1  0  0  0  0
M  END
> <PUBCHEM_COMPOUND_CID>
49830745

> <PUBCHEM_CONFORMER_RMSD>
1

> <PUBCHEM_CONFORMER_DIVERSEORDER>
1
44
106
32
111
62
86
51
28
43
63
29
72
7
2
105
94
10
45
115
109
9
40
26
83
104
93
50
64
123
99
58
46
59
114
74
85
4
56
87
48
23
90
88
81
57
132
71
24
68
125
34
37
113
14
70
120
128
22
84
3
21
108
121
80
60
89
77
112
97
16
53
6
38
61
102
31
103
39
78
76
126
11
122
118
5
35
73
65
49
42
36
13
131
69
127
95
25
54
41
116
27
15
130
8
75
119
67
129
18
98
19
91
117
55
124
96
82
30
100
66
79
107
52
33
92
110
101
17
20
47
12

> <PUBCHEM_MMFF94_PARTIAL_CHARGES>
43
1 -0.56
10 -0.14
11 0.08
12 -0.15
13 -0.15
14 -0.15
15 0.03
16 0.16
17 -0.15
18 -0.15
19 0.16
2 -0.36
20 -0.18
21 -0.15
22 -0.18
23 0.03
24 -0.15
25 -0.15
26 0.16
27 0.16
3 -0.99
35 0.36
36 0.36
37 0.15
38 0.15
39 0.15
4 -0.62
40 0.15
41 0.15
42 0.15
43 0.15
44 0.15
45 0.15
46 0.15
47 0.15
48 0.15
49 0.15
5 -0.62
50 0.15
6 0.27
7 0.28
8 0.28
9 0.42

> <PUBCHEM_EFFECTIVE_ROTOR_COUNT>
9

> <PUBCHEM_PHARMACOPHORE_FEATURES>
9
1 1 acceptor
1 2 acceptor
1 3 cation
1 3 donor
1 4 acceptor
1 5 acceptor
6 10 13 14 17 18 21 rings
6 4 11 12 15 16 19 rings
6 5 23 24 25 26 27 rings

> <PUBCHEM_HEAVY_ATOM_COUNT>
27

> <PUBCHEM_ATOM_DEF_STEREO_COUNT>
0

> <PUBCHEM_ATOM_UDEF_STEREO_COUNT>
1

> <PUBCHEM_BOND_DEF_STEREO_COUNT>
0

> <PUBCHEM_BOND_UDEF_STEREO_COUNT>
1

> <PUBCHEM_ISOTOPIC_ATOM_COUNT>
0

> <PUBCHEM_COMPONENT_COUNT>
1

> <PUBCHEM_CACTVS_TAUTO_COUNT>
1

> <PUBCHEM_CONFORMER_ID>
02F85B5900000001

> <PUBCHEM_MMFF94_ENERGY>
76.1623

> <PUBCHEM_FEATURE_SELFOVERLAP>
45.675

> <PUBCHEM_SHAPE_FINGERPRINT>
10939801 23 18264773332346477592
1100329 8 18267305520071699973
11014199 57 17690276436553727418
11513181 2 17775006743630755567
11524674 6 17632574937641616261
11578080 2 16952800663042046455
12422481 6 18342741775718519411
12522641 33 17974838481433962061
12597179 24 17901371313045717093
12788726 201 18338229470899100434
12838863 1 18269824458689322687
12839892 36 18338513049797967000
13140716 1 18197499730374741089
13402501 40 18343025471166798610
13561361 72 18411138000874154862
13642711 20 15912748549384778250
14117953 113 18410577271387352949
14251757 5 18263924513664360198
14394314 77 18338800129596820345
14840074 17 18408326596401229897
14866123 147 18412256242817853034
15274700 242 17970041475457023152
15420108 30 18131633353522547727
16110190 28 18339078319223866056
16112460 7 18200599223209330656
17138139 8 17553713565883314524
20721686 56 18410297982359487755
21796203 349 17902269815545108881
22113638 7 18267302230248252655
22956985 138 17903079936972451626
238918 7 18131072619350225678
3052486 1 18338250348402778566
338550 245 18408889512554062502
4093350 32 16486706753457253407
59755656 215 18059866038674535398

> <PUBCHEM_SHAPE_MULTIPOLES>
528.97
11.86
4.95
1.21
7.21
1.39
0.12
-1.4
-4.95
-2.28
1.63
-0.01
0.09
-0.6

> <PUBCHEM_SHAPE_SELFOVERLAP>
1123.034

> <PUBCHEM_SHAPE_VOLUME>
292.5

> <PUBCHEM_COORDINATE_TYPE>
2
5
10

$$$$
