49830859
  -OEChem-10052120443D

 28 29  0     0  0  0  0  0  0999 V2000
   -2.7011    3.1436    0.7269 S   0  0  0  0  0  0  0  0  0  0  0  0
    2.9886    2.0921   -0.0923 O   0  0  0  0  0  0  0  0  0  0  0  0
    0.7735    0.3435   -0.0256 N   0  0  0  0  0  0  0  0  0  0  0  0
    3.0590   -0.2626   -0.0289 N   0  0  0  0  0  0  0  0  0  0  0  0
   -0.2416   -3.7388    0.0946 N   0  0  0  0  0  0  0  0  0  0  0  0
   -3.4207   -2.0515    0.0761 N   0  0  0  0  0  0  0  0  0  0  0  0
   -0.5165   -0.0610   -0.0034 C   0  0  0  0  0  0  0  0  0  0  0  0
   -1.4685    1.0183   -0.0243 C   0  0  0  0  0  0  0  0  0  0  0  0
   -0.9127   -1.3881    0.0362 C   0  0  0  0  0  0  0  0  0  0  0  0
    0.0787   -2.3630    0.0541 C   0  0  0  0  0  0  0  0  0  0  0  0
    1.7090   -0.6323   -0.0071 C   0  0  0  0  0  0  0  0  0  0  0  0
    1.4170   -1.9862    0.0323 C   0  0  0  0  0  0  0  0  0  0  0  0
   -2.4721    1.2611   -1.0061 C   0  0  0  0  0  0  0  0  0  0  0  0
   -1.4819    1.9668    0.9746 C   0  0  0  0  0  0  0  0  0  0  0  0
   -3.2145    2.3855   -0.7201 C   0  0  0  0  0  0  0  0  0  0  0  0
    3.5974    1.0274   -0.0687 C   0  0  0  0  0  0  0  0  0  0  0  0
   -2.2989   -1.7547    0.0582 C   0  0  0  0  0  0  0  0  0  0  0  0
    5.1053    0.9998   -0.0761 C   0  0  0  0  0  0  0  0  0  0  0  0
    2.2048   -2.7339    0.0459 H   0  0  0  0  0  0  0  0  0  0  0  0
   -2.6450    0.6525   -1.8852 H   0  0  0  0  0  0  0  0  0  0  0  0
   -0.8412    2.0354    1.8437 H   0  0  0  0  0  0  0  0  0  0  0  0
    3.7239   -1.0333   -0.0131 H   0  0  0  0  0  0  0  0  0  0  0  0
   -4.0327    2.7990   -1.2926 H   0  0  0  0  0  0  0  0  0  0  0  0
    0.5008   -4.4259    0.1064 H   0  0  0  0  0  0  0  0  0  0  0  0
   -1.2037   -4.0479    0.1108 H   0  0  0  0  0  0  0  0  0  0  0  0
    5.4624    0.4378   -0.9437 H   0  0  0  0  0  0  0  0  0  0  0  0
    5.4710    0.5290    0.8408 H   0  0  0  0  0  0  0  0  0  0  0  0
    5.4943    2.0204   -0.1310 H   0  0  0  0  0  0  0  0  0  0  0  0
  1 14  1  0  0  0  0
  1 15  1  0  0  0  0
  2 16  2  0  0  0  0
  3  7  1  0  0  0  0
  3 11  2  0  0  0  0
  4 11  1  0  0  0  0
  4 16  1  0  0  0  0
  4 22  1  0  0  0  0
  5 10  1  0  0  0  0
  5 24  1  0  0  0  0
  5 25  1  0  0  0  0
  6 17  3  0  0  0  0
  7  8  1  0  0  0  0
  7  9  2  0  0  0  0
  8 13  1  0  0  0  0
  8 14  2  0  0  0  0
  9 10  1  0  0  0  0
  9 17  1  0  0  0  0
 10 12  2  0  0  0  0
 11 12  1  0  0  0  0
 12 19  1  0  0  0  0
 13 15  2  0  0  0  0
 13 20  1  0  0  0  0
 14 21  1  0  0  0  0
 15 23  1  0  0  0  0
 16 18  1  0  0  0  0
 18 26  1  0  0  0  0
 18 27  1  0  0  0  0
 18 28  1  0  0  0  0
M  END
> <PUBCHEM_COMPOUND_CID>
49830859

> <PUBCHEM_CONFORMER_RMSD>
0.6

> <PUBCHEM_CONFORMER_DIVERSEORDER>
1
6
7
8
5
3
10
9
2
4

> <PUBCHEM_MMFF94_PARTIAL_CHARGES>
25
1 -0.08
10 0.1
11 0.43
12 -0.15
13 -0.15
14 -0.11
15 -0.11
16 0.57
17 0.48
18 0.06
19 0.15
2 -0.57
20 0.15
21 0.15
22 0.37
23 0.15
24 0.4
25 0.4
3 -0.62
4 -0.55
5 -0.9
6 -0.56
7 0.36
8 -0.05
9 0.07

> <PUBCHEM_EFFECTIVE_ROTOR_COUNT>
3

> <PUBCHEM_PHARMACOPHORE_FEATURES>
7
1 2 acceptor
1 4 donor
1 5 cation
1 5 donor
1 6 acceptor
5 1 8 13 14 15 rings
6 3 7 9 10 11 12 rings

> <PUBCHEM_HEAVY_ATOM_COUNT>
18

> <PUBCHEM_ATOM_DEF_STEREO_COUNT>
0

> <PUBCHEM_ATOM_UDEF_STEREO_COUNT>
0

> <PUBCHEM_BOND_DEF_STEREO_COUNT>
0

> <PUBCHEM_BOND_UDEF_STEREO_COUNT>
0

> <PUBCHEM_ISOTOPIC_ATOM_COUNT>
0

> <PUBCHEM_COMPONENT_COUNT>
1

> <PUBCHEM_CACTVS_TAUTO_COUNT>
13

> <PUBCHEM_CONFORMER_ID>
02F85BCB00000001

> <PUBCHEM_MMFF94_ENERGY>
51.1086

> <PUBCHEM_FEATURE_SELFOVERLAP>
35.52

> <PUBCHEM_SHAPE_FINGERPRINT>
10411042 1 17545602713666817618
10967382 1 17834114139091538291
1100329 8 18049161064607401026
11578080 2 13388586597316568041
11725454 13 16662311907181678709
12173636 292 18411416211179933060
12390115 104 18341631307945812064
12788726 201 18190452942951299770
13027679 85 17907298007136216135
13140716 1 18191871128256811874
13583140 156 17168707423134028753
14142880 1 18187356653534760852
14614273 12 18333447638599656711
14787075 74 18342731898074538125
14790565 3 18266751358054467705
15042514 8 18120659299290049618
15342168 16 18192158096549883333
15490181 8 18053941749738639375
16752209 62 18337940303097964050
16945 1 17905891379244903251
1741750 31 18411980230833353448
18186145 218 17909265789147154597
19591789 44 18122906696866932921
204376 136 18336830779748687000
20510252 161 18341051916551210986
20671657 1 18050009883024968758
21029758 11 18052815038257207151
21499 59 18337948965815157901
21501502 16 18336820892681224170
21524375 3 18261109634668335496
21639500 275 17903911158961508533
22182937 141 18341620290985549816
2255824 54 17764587612478807471
2334 1 18410011031098553158
23402539 116 18198337553544799366
23419403 2 17273120526658181753
23557571 272 18199761387259800708
23558518 356 18333741212373126650
23559900 14 18128254485750432046
238 59 17250298753694811349
2748010 2 18337964393459017374
283562 15 18337952393489249435
3071541 12 17979638926991888270
3091708 16 9196345482941159410
350125 39 18410020905201967010
474 4 18123466081554776721
559249 180 18335697222938431698
58051976 378 18412542111017937541
6333272 397 18266458711429814361
7364860 26 17979072674276954278
81228 2 18192167085651962058
84936 182 17984129366918942832
9981440 41 18337943506916720706

> <PUBCHEM_SHAPE_MULTIPOLES>
348.49
6.68
3.98
0.78
6.04
1.9
0.01
-5.69
0.52
-1.85
-0.43
-0.48
-0.33
-0.18

> <PUBCHEM_SHAPE_SELFOVERLAP>
738.713

> <PUBCHEM_SHAPE_VOLUME>
196.6

> <PUBCHEM_COORDINATE_TYPE>
2
5
10

$$$$
