24905228
  -OEChem-10052115143D

 43 46  0     0  0  0  0  0  0999 V2000
    3.2431    1.0396   -0.0852 N   0  0  0  0  0  0  0  0  0  0  0  0
    1.9625    1.4009    0.1179 N   0  0  0  0  0  0  0  0  0  0  0  0
    4.5835   -0.9601   -0.3435 N   0  0  0  0  0  0  0  0  0  0  0  0
    3.2259   -2.9814   -0.1960 N   0  0  0  0  0  0  0  0  0  0  0  0
    0.8662   -2.9271    0.1597 N   0  0  0  0  0  0  0  0  0  0  0  0
   -4.2197    0.1568    1.0529 N   0  0  0  0  0  0  0  0  0  0  0  0
   -6.4521    0.1606    0.2214 N   0  0  0  0  0  0  0  0  0  0  0  0
   -7.3435   -0.0991   -0.7884 N   0  0  0  0  0  0  0  0  0  0  0  0
    4.2588    2.0580   -0.2096 C   0  0  0  0  0  0  0  0  0  0  0  0
    2.1727   -0.8729    0.0222 C   0  0  0  0  0  0  0  0  0  0  0  0
    1.3156    0.2319    0.1824 C   0  0  0  0  0  0  0  0  0  0  0  0
    3.4249   -0.3099   -0.1505 C   0  0  0  0  0  0  0  0  0  0  0  0
   -0.1040    0.2128    0.3958 C   0  0  0  0  0  0  0  0  0  0  0  0
    4.0077    2.9587   -1.4214 C   0  0  0  0  0  0  0  0  0  0  0  0
    4.3832    2.8884    1.0703 C   0  0  0  0  0  0  0  0  0  0  0  0
    2.0942   -2.2613   -0.0052 C   0  0  0  0  0  0  0  0  0  0  0  0
   -0.9755    0.2372   -0.6892 C   0  0  0  0  0  0  0  0  0  0  0  0
   -2.3656    0.2187   -0.4852 C   0  0  0  0  0  0  0  0  0  0  0  0
   -0.6168    0.1701    1.6865 C   0  0  0  0  0  0  0  0  0  0  0  0
   -2.8932    0.1754    0.8224 C   0  0  0  0  0  0  0  0  0  0  0  0
   -1.9989    0.1518    1.8890 C   0  0  0  0  0  0  0  0  0  0  0  0
   -3.2655    0.2425   -1.5593 C   0  0  0  0  0  0  0  0  0  0  0  0
    4.3836   -2.2958   -0.3510 C   0  0  0  0  0  0  0  0  0  0  0  0
   -4.6329    0.2234   -1.3248 C   0  0  0  0  0  0  0  0  0  0  0  0
   -5.0544    0.1809   -0.0113 C   0  0  0  0  0  0  0  0  0  0  0  0
    5.2161    1.5470   -0.3682 H   0  0  0  0  0  0  0  0  0  0  0  0
    3.0807    3.5329   -1.3146 H   0  0  0  0  0  0  0  0  0  0  0  0
    3.9270    2.3646   -2.3385 H   0  0  0  0  0  0  0  0  0  0  0  0
    4.8303    3.6698   -1.5515 H   0  0  0  0  0  0  0  0  0  0  0  0
    3.4706    3.4598    1.2731 H   0  0  0  0  0  0  0  0  0  0  0  0
    5.2135    3.5981    0.9913 H   0  0  0  0  0  0  0  0  0  0  0  0
    4.5713    2.2438    1.9362 H   0  0  0  0  0  0  0  0  0  0  0  0
   -0.5792    0.2702   -1.7033 H   0  0  0  0  0  0  0  0  0  0  0  0
    0.0431    0.1499    2.5507 H   0  0  0  0  0  0  0  0  0  0  0  0
   -2.3754    0.1180    2.9097 H   0  0  0  0  0  0  0  0  0  0  0  0
   -2.9049    0.2780   -2.5848 H   0  0  0  0  0  0  0  0  0  0  0  0
    5.2699   -2.9028   -0.5016 H   0  0  0  0  0  0  0  0  0  0  0  0
    0.0068   -2.4176    0.3034 H   0  0  0  0  0  0  0  0  0  0  0  0
    0.8538   -3.9379    0.1331 H   0  0  0  0  0  0  0  0  0  0  0  0
   -5.3038    0.2519   -2.1760 H   0  0  0  0  0  0  0  0  0  0  0  0
   -6.7597    0.0941    1.1841 H   0  0  0  0  0  0  0  0  0  0  0  0
   -8.2380    0.3271   -0.5507 H   0  0  0  0  0  0  0  0  0  0  0  0
   -7.5121   -1.1036   -0.8254 H   0  0  0  0  0  0  0  0  0  0  0  0
  1  2  1  0  0  0  0
  1  9  1  0  0  0  0
  1 12  1  0  0  0  0
  2 11  2  0  0  0  0
  3 12  2  0  0  0  0
  3 23  1  0  0  0  0
  4 16  1  0  0  0  0
  4 23  2  0  0  0  0
  5 16  1  0  0  0  0
  5 38  1  0  0  0  0
  5 39  1  0  0  0  0
  6 20  1  0  0  0  0
  6 25  2  0  0  0  0
  7  8  1  0  0  0  0
  7 25  1  0  0  0  0
  7 41  1  0  0  0  0
  8 42  1  0  0  0  0
  8 43  1  0  0  0  0
  9 14  1  0  0  0  0
  9 15  1  0  0  0  0
  9 26  1  0  0  0  0
 10 11  1  0  0  0  0
 10 12  1  0  0  0  0
 10 16  2  0  0  0  0
 11 13  1  0  0  0  0
 13 17  2  0  0  0  0
 13 19  1  0  0  0  0
 14 27  1  0  0  0  0
 14 28  1  0  0  0  0
 14 29  1  0  0  0  0
 15 30  1  0  0  0  0
 15 31  1  0  0  0  0
 15 32  1  0  0  0  0
 17 18  1  0  0  0  0
 17 33  1  0  0  0  0
 18 20  2  0  0  0  0
 18 22  1  0  0  0  0
 19 21  2  0  0  0  0
 19 34  1  0  0  0  0
 20 21  1  0  0  0  0
 21 35  1  0  0  0  0
 22 24  2  0  0  0  0
 22 36  1  0  0  0  0
 23 37  1  0  0  0  0
 24 25  1  0  0  0  0
 24 40  1  0  0  0  0
M  END
> <PUBCHEM_COMPOUND_CID>
24905228

> <PUBCHEM_CONFORMER_RMSD>
0.6

> <PUBCHEM_CONFORMER_DIVERSEORDER>
2
8
5
7
10
9
1
6
4
3

> <PUBCHEM_MMFF94_PARTIAL_CHARGES>
32
1 0.31
11 0.23
12 0.11
13 0.05
16 0.41
17 -0.15
19 -0.15
2 -0.71
20 0.31
21 -0.15
22 -0.15
23 0.47
24 -0.15
25 0.41
3 -0.57
33 0.15
34 0.15
35 0.15
36 0.15
37 0.15
38 0.4
39 0.4
4 -0.62
40 0.15
41 0.4
42 0.36
43 0.36
5 -0.9
6 -0.62
7 -0.51
8 -0.71
9 0.26

> <PUBCHEM_EFFECTIVE_ROTOR_COUNT>
3

> <PUBCHEM_PHARMACOPHORE_FEATURES>
13
1 2 acceptor
1 5 cation
1 5 donor
1 7 donor
1 8 donor
3 1 3 12 cation
3 3 4 23 cation
3 6 7 25 cation
3 9 14 15 hydrophobe
5 1 2 10 11 12 rings
6 13 17 18 19 20 21 rings
6 3 4 10 12 16 23 rings
6 6 18 20 22 24 25 rings

> <PUBCHEM_HEAVY_ATOM_COUNT>
25

> <PUBCHEM_ATOM_DEF_STEREO_COUNT>
0

> <PUBCHEM_ATOM_UDEF_STEREO_COUNT>
0

> <PUBCHEM_BOND_DEF_STEREO_COUNT>
0

> <PUBCHEM_BOND_UDEF_STEREO_COUNT>
0

> <PUBCHEM_ISOTOPIC_ATOM_COUNT>
0

> <PUBCHEM_COMPONENT_COUNT>
1

> <PUBCHEM_CACTVS_TAUTO_COUNT>
14

> <PUBCHEM_CONFORMER_ID>
017C060C00000002

> <PUBCHEM_MMFF94_ENERGY>
71.1643

> <PUBCHEM_FEATURE_SELFOVERLAP>
67.827

> <PUBCHEM_SHAPE_FINGERPRINT>
10411042 1 18050568435776475830
10595046 47 18343582954365479833
10693767 8 18059306349192493406
12107183 9 17623862219057191361
12236239 1 17703792479094638971
12403259 415 17749395857891518921
12616971 3 18060421287682789029
12730499 353 18335707173274869562
12788726 201 17060349504671484201
13009979 54 17272857498534722250
13140716 1 18338800134877685786
13533116 47 18343022181448612345
13631057 29 17841140371034468207
13836976 161 18343303656589145902
13911987 19 18120670264331039380
13955234 65 18411412904477062898
14170010 4 18411416207728789336
15961568 22 16805612524592453660
17844677 252 18336831892598904165
1813 80 17914068499461979486
18335252 98 18337113492562137499
19427546 62 18263363749458830782
1979834 28 18115026419579560836
200 152 18272650091480914331
20157964 124 18409449206394856473
20511986 3 17631998797859647617
20554085 129 17773584100897769296
20612939 158 18412266124972559580
20645477 70 18335702719678782530
21033648 29 17748820800541484517
21065201 7 16515693233817876938
21403212 168 18270669966552268976
221357 26 18188205408277275645
23081809 10 17917712397160713337
23522609 53 17631191795929353145
23557571 272 17095526154124287687
23559900 14 16660652830103099938
239999 70 18186801370440788930
25147074 1 17917444072403445657
3004659 81 17917713465642290590
312423 11 18130799905768999976
335352 9 18411706496268444718
3472631 163 14924525099010024382
4098825 35 18338514133005633173
42630746 31 18413106165342384586
4340502 62 18340763835999337922
46194498 28 18260266321865637037
474 4 18270400619877477496
495365 180 18408321112149947136
5281201 14 18260548874863587372
6025842 7 18412263943498451542
6034566 193 17828495995857558020
6327066 14 18046069530427093044
70251023 43 18268995284881518706
7471813 234 18059292050945359256
8272917 22 18411985754034507332

> <PUBCHEM_SHAPE_MULTIPOLES>
474.64
13.31
2.72
1.33
17.5
0.56
0.21
-2.83
-2.8
-6.81
-0.31
0.89
-0.48
0.14

> <PUBCHEM_SHAPE_SELFOVERLAP>
1057.922

> <PUBCHEM_SHAPE_VOLUME>
249

> <PUBCHEM_COORDINATE_TYPE>
2
5
10

$$$$
