24905322
  -OEChem-10052115153D

 37 39  0     1  0  0  0  0  0999 V2000
    5.8448    0.9640    0.5712 Cl  0  0  0  0  0  0  0  0  0  0  0  0
    4.3297    0.5802   -1.9969 O   0  0  0  0  0  0  0  0  0  0  0  0
   -2.0607    0.5656   -0.1742 N   0  0  0  0  0  0  0  0  0  0  0  0
   -0.8418    1.1304   -0.0896 N   0  0  0  0  0  0  0  0  0  0  0  0
   -3.0905   -1.6257   -0.1586 N   0  0  0  0  0  0  0  0  0  0  0  0
   -4.6345    3.0964    0.8312 N   0  0  0  0  0  0  0  0  0  0  0  0
   -1.4336   -3.3993    0.0859 N   0  0  0  0  0  0  0  0  0  0  0  0
    0.9047   -2.9619    0.2823 N   0  0  0  0  0  0  0  0  0  0  0  0
   -3.2254    1.4052   -0.3252 C   0  0  1  0  0  0  0  0  0  0  0  0
   -2.0368   -0.7956   -0.1028 C   0  0  0  0  0  0  0  0  0  0  0  0
   -0.7060   -1.1474    0.0389 C   0  0  0  0  0  0  0  0  0  0  0  0
   -0.0213    0.0821    0.0400 C   0  0  0  0  0  0  0  0  0  0  0  0
   -3.3914    2.3334    0.8943 C   0  0  0  0  0  0  0  0  0  0  0  0
   -3.1719    2.1810   -1.6478 C   0  0  0  0  0  0  0  0  0  0  0  0
    1.3990    0.2950    0.1611 C   0  0  0  0  0  0  0  0  0  0  0  0
   -0.4174   -2.5047    0.1349 C   0  0  0  0  0  0  0  0  0  0  0  0
    2.1982    0.3371   -0.9813 C   0  0  0  0  0  0  0  0  0  0  0  0
    1.9744    0.4590    1.4212 C   0  0  0  0  0  0  0  0  0  0  0  0
   -2.6891   -2.9111   -0.0558 C   0  0  0  0  0  0  0  0  0  0  0  0
    3.5726    0.5434   -0.8638 C   0  0  0  0  0  0  0  0  0  0  0  0
    3.3489    0.6653    1.5388 C   0  0  0  0  0  0  0  0  0  0  0  0
    4.1480    0.7075    0.3962 C   0  0  0  0  0  0  0  0  0  0  0  0
   -4.0971    0.7395   -0.3705 H   0  0  0  0  0  0  0  0  0  0  0  0
   -2.5491    3.0310    0.9722 H   0  0  0  0  0  0  0  0  0  0  0  0
   -3.3966    1.7352    1.8133 H   0  0  0  0  0  0  0  0  0  0  0  0
   -2.3852    2.9436   -1.6351 H   0  0  0  0  0  0  0  0  0  0  0  0
   -2.9644    1.5057   -2.4859 H   0  0  0  0  0  0  0  0  0  0  0  0
   -4.1237    2.6785   -1.8587 H   0  0  0  0  0  0  0  0  0  0  0  0
   -4.6008    3.7495    0.0500 H   0  0  0  0  0  0  0  0  0  0  0  0
   -4.7188    3.6694    1.6700 H   0  0  0  0  0  0  0  0  0  0  0  0
    1.7503    0.2088   -1.9647 H   0  0  0  0  0  0  0  0  0  0  0  0
    1.3653    0.4282    2.3215 H   0  0  0  0  0  0  0  0  0  0  0  0
   -3.4784   -3.6542   -0.0914 H   0  0  0  0  0  0  0  0  0  0  0  0
    3.7823    0.7911    2.5277 H   0  0  0  0  0  0  0  0  0  0  0  0
    1.6821   -2.3193    0.3216 H   0  0  0  0  0  0  0  0  0  0  0  0
    1.0703   -3.9572    0.3482 H   0  0  0  0  0  0  0  0  0  0  0  0
    3.7550    0.4473   -2.7701 H   0  0  0  0  0  0  0  0  0  0  0  0
  1 22  1  0  0  0  0
  2 20  1  0  0  0  0
  2 37  1  0  0  0  0
  3  4  1  0  0  0  0
  3  9  1  0  0  0  0
  3 10  1  0  0  0  0
  4 12  2  0  0  0  0
  5 10  2  0  0  0  0
  5 19  1  0  0  0  0
  6 13  1  0  0  0  0
  6 29  1  0  0  0  0
  6 30  1  0  0  0  0
  7 16  1  0  0  0  0
  7 19  2  0  0  0  0
  8 16  1  0  0  0  0
  8 35  1  0  0  0  0
  8 36  1  0  0  0  0
  9 13  1  0  0  0  0
  9 14  1  0  0  0  0
  9 23  1  0  0  0  0
 10 11  1  0  0  0  0
 11 12  1  0  0  0  0
 11 16  2  0  0  0  0
 12 15  1  0  0  0  0
 13 24  1  0  0  0  0
 13 25  1  0  0  0  0
 14 26  1  0  0  0  0
 14 27  1  0  0  0  0
 14 28  1  0  0  0  0
 15 17  2  0  0  0  0
 15 18  1  0  0  0  0
 17 20  1  0  0  0  0
 17 31  1  0  0  0  0
 18 21  2  0  0  0  0
 18 32  1  0  0  0  0
 19 33  1  0  0  0  0
 20 22  2  0  0  0  0
 21 22  1  0  0  0  0
 21 34  1  0  0  0  0
M  END
> <PUBCHEM_COMPOUND_CID>
24905322

> <PUBCHEM_CONFORMER_RMSD>
0.6

> <PUBCHEM_CONFORMER_DIVERSEORDER>
2
14
13
23
16
18
21
9
3
15
10
24
20
11
7
6
8
17
22
1
4
5
19
12

> <PUBCHEM_MMFF94_PARTIAL_CHARGES>
29
1 -0.18
10 0.11
12 0.23
13 0.27
15 0.05
16 0.41
17 -0.15
18 -0.15
19 0.47
2 -0.53
20 0.08
21 -0.15
22 0.18
29 0.36
3 0.31
30 0.36
31 0.15
32 0.15
33 0.15
34 0.15
35 0.4
36 0.4
37 0.45
4 -0.71
5 -0.57
6 -0.99
7 -0.62
8 -0.9
9 0.26

> <PUBCHEM_EFFECTIVE_ROTOR_COUNT>
3

> <PUBCHEM_PHARMACOPHORE_FEATURES>
11
1 2 donor
1 4 acceptor
1 6 cation
1 6 donor
1 8 cation
1 8 donor
3 3 5 10 cation
3 5 7 19 cation
5 3 4 10 11 12 rings
6 15 17 18 20 21 22 rings
6 5 7 10 11 16 19 rings

> <PUBCHEM_HEAVY_ATOM_COUNT>
22

> <PUBCHEM_ATOM_DEF_STEREO_COUNT>
1

> <PUBCHEM_ATOM_UDEF_STEREO_COUNT>
0

> <PUBCHEM_BOND_DEF_STEREO_COUNT>
0

> <PUBCHEM_BOND_UDEF_STEREO_COUNT>
0

> <PUBCHEM_ISOTOPIC_ATOM_COUNT>
0

> <PUBCHEM_COMPONENT_COUNT>
1

> <PUBCHEM_CACTVS_TAUTO_COUNT>
15

> <PUBCHEM_CONFORMER_ID>
017C066A00000002

> <PUBCHEM_MMFF94_ENERGY>
47.9235

> <PUBCHEM_FEATURE_SELFOVERLAP>
56.101

> <PUBCHEM_SHAPE_FINGERPRINT>
10165383 225 18266190443477818221
10319926 262 18198321010327509080
10411042 1 17762335125439544339
10493431 412 18339647750504548137
11582403 64 16552216806959060728
11725454 13 16913646078855674384
11796584 16 18342463608932353926
12107183 9 18192138318799628242
12173636 292 18409442579186323229
12236239 1 17531516702767408082
12390115 104 18271257040498163009
12500047 106 18411409627411513552
12553582 1 17974851975487514579
12788726 201 18119541082767839379
13140716 1 17977104888103645315
13878862 14 17328296945319846717
13965767 371 18042679503564602836
14178342 30 18409721880983415410
15042514 8 18119811567203490259
15842332 3 17749664190589940346
16752209 62 18263632017174093155
16945 1 18337667645826521843
16988056 13 16243189954221153964
1741750 31 18412261709904454409
18785283 64 17974295317903307339
19049666 15 18060144245207533250
19784866 34 18270116782494765057
20510252 161 18270397333841945569
20871999 31 18339654446247494220
21065201 7 18411698833545790794
22907989 373 18266457800891122733
23402539 116 18267574895946638350
23557571 272 18200594821358228424
23559900 14 18272374149228975092
23598291 2 17531241807738526534
23845131 108 18266748979011442177
25147074 1 18265315253939466667
2748010 2 18264775372339736255
283562 15 18338508772369626147
3091708 16 9485982143323795603
458136 41 18122633756090589577
469060 322 18335714875021812761
5104073 3 18335128805169636704
5265222 85 18198069282542112358
559249 180 18334566929090264770
57527295 17 17346311557827321156
59755656 520 18341049614485936169
6049 1 17916309514121998336
633830 44 17988074487548377693
7615 1 17750226066706852084
77492 1 17531236318643727874
7808743 9 18409732867721456616
81228 2 18192711361477951059
84936 182 17840581505484091041
9862522 239 17823122458988316157

> <PUBCHEM_SHAPE_MULTIPOLES>
418.86
9.23
3.42
1.26
8.34
2.12
0.26
-6.56
-0.16
-5.56
-0.35
0.83
-0.7
-0.18

> <PUBCHEM_SHAPE_SELFOVERLAP>
906.639

> <PUBCHEM_SHAPE_VOLUME>
231.4

> <PUBCHEM_COORDINATE_TYPE>
2
5
10

$$$$
