475264
  -OEChem-10062122003D

 55 57  0     1  0  0  0  0  0999 V2000
   -2.1512   -1.0459   -0.4676 O   0  0  0  0  0  0  0  0  0  0  0  0
    2.2737   -1.3941    0.8484 O   0  0  0  0  0  0  0  0  0  0  0  0
    0.4059   -2.4174    2.7542 O   0  0  0  0  0  0  0  0  0  0  0  0
    0.5751   -0.4500   -1.1323 O   0  0  0  0  0  0  0  0  0  0  0  0
   -2.8038   -4.4382   -0.1447 O   0  0  0  0  0  0  0  0  0  0  0  0
   -3.7110   -2.9211   -1.5840 O   0  0  0  0  0  0  0  0  0  0  0  0
   -3.7882   -1.4940    1.0877 O   0  0  0  0  0  0  0  0  0  0  0  0
    3.7260   -2.5433   -0.5187 O   0  0  0  0  0  0  0  0  0  0  0  0
   -5.1084    3.3763    2.0636 O   0  0  0  0  0  0  0  0  0  0  0  0
   -3.5536    3.2200   -2.4631 O   0  0  0  0  0  0  0  0  0  0  0  0
    4.8167    2.5780    2.2141 O   0  0  0  0  0  0  0  0  0  0  0  0
    6.3935    1.5226   -2.1828 O   0  0  0  0  0  0  0  0  0  0  0  0
   -4.6995    4.6286   -0.3718 O   0  0  0  0  0  0  0  0  0  0  0  0
    6.3370    3.2331   -0.0061 O   0  0  0  0  0  0  0  0  0  0  0  0
   -1.6811   -2.3856   -0.3808 C   0  0  0  0  0  0  0  0  0  0  0  0
   -1.2499   -2.7023    1.0527 C   0  0  0  0  0  0  0  0  0  0  0  0
   -0.5343   -2.5908   -1.3813 C   0  0  0  0  0  0  0  0  0  0  0  0
    1.1513   -2.1887    0.4690 C   0  0  0  0  0  0  0  0  0  0  0  0
    0.0148   -1.9457    1.4648 C   0  0  2  0  0  0  0  0  0  0  0  0
    0.7489   -1.8583   -0.9722 C   0  0  2  0  0  0  0  0  0  0  0  0
   -2.8432   -3.2451   -0.7869 C   0  0  0  0  0  0  0  0  0  0  0  0
   -3.2142   -0.7340    0.3233 C   0  0  0  0  0  0  0  0  0  0  0  0
    3.3864   -1.5347    0.0804 C   0  0  0  0  0  0  0  0  0  0  0  0
   -3.6069    0.6860    0.1393 C   0  0  0  0  0  0  0  0  0  0  0  0
    4.1671   -0.2720    0.0573 C   0  0  0  0  0  0  0  0  0  0  0  0
   -3.3909    1.2848   -1.0852 C   0  0  0  0  0  0  0  0  0  0  0  0
   -4.1760    1.3632    1.1983 C   0  0  0  0  0  0  0  0  0  0  0  0
    4.9161    0.0288   -1.0619 C   0  0  0  0  0  0  0  0  0  0  0  0
    4.1201    0.5617    1.1560 C   0  0  0  0  0  0  0  0  0  0  0  0
   -4.5454    2.6972    1.0254 C   0  0  0  0  0  0  0  0  0  0  0  0
   -3.7602    2.6187   -1.2581 C   0  0  0  0  0  0  0  0  0  0  0  0
    4.8539    1.7478    1.1346 C   0  0  0  0  0  0  0  0  0  0  0  0
    5.6500    1.2147   -1.0835 C   0  0  0  0  0  0  0  0  0  0  0  0
   -4.3374    3.3251   -0.2028 C   0  0  0  0  0  0  0  0  0  0  0  0
    5.6188    2.0744    0.0147 C   0  0  0  0  0  0  0  0  0  0  0  0
   -1.0053   -3.7711    1.1450 H   0  0  0  0  0  0  0  0  0  0  0  0
   -2.0119   -2.5491    1.8203 H   0  0  0  0  0  0  0  0  0  0  0  0
   -0.8472   -2.2273   -2.3691 H   0  0  0  0  0  0  0  0  0  0  0  0
   -0.3151   -3.6619   -1.4792 H   0  0  0  0  0  0  0  0  0  0  0  0
    1.4470   -3.2447    0.5412 H   0  0  0  0  0  0  0  0  0  0  0  0
   -0.1833   -0.8727    1.5675 H   0  0  0  0  0  0  0  0  0  0  0  0
    1.5371   -2.1405   -1.6767 H   0  0  0  0  0  0  0  0  0  0  0  0
   -0.3198   -2.2221    3.3713 H   0  0  0  0  0  0  0  0  0  0  0  0
   -0.1769   -0.1686   -0.5854 H   0  0  0  0  0  0  0  0  0  0  0  0
   -3.5567   -5.0145   -0.3957 H   0  0  0  0  0  0  0  0  0  0  0  0
   -2.9548    0.7406   -1.9183 H   0  0  0  0  0  0  0  0  0  0  0  0
   -4.3340    0.8739    2.1555 H   0  0  0  0  0  0  0  0  0  0  0  0
    4.9362   -0.6401   -1.9180 H   0  0  0  0  0  0  0  0  0  0  0  0
    3.5411    0.3185    2.0425 H   0  0  0  0  0  0  0  0  0  0  0  0
   -5.1746    2.7834    2.8318 H   0  0  0  0  0  0  0  0  0  0  0  0
   -3.1453    2.5805   -3.0716 H   0  0  0  0  0  0  0  0  0  0  0  0
    5.3810    3.3483    2.0271 H   0  0  0  0  0  0  0  0  0  0  0  0
    6.2945    0.8138   -2.8414 H   0  0  0  0  0  0  0  0  0  0  0  0
   -5.0809    4.9521    0.4629 H   0  0  0  0  0  0  0  0  0  0  0  0
    6.8029    3.2904   -0.8584 H   0  0  0  0  0  0  0  0  0  0  0  0
  1 15  1  0  0  0  0
  1 22  1  0  0  0  0
  2 18  1  0  0  0  0
  2 23  1  0  0  0  0
  3 19  1  0  0  0  0
  3 43  1  0  0  0  0
  4 20  1  0  0  0  0
  4 44  1  0  0  0  0
  5 21  1  0  0  0  0
  5 45  1  0  0  0  0
  6 21  2  0  0  0  0
  7 22  2  0  0  0  0
  8 23  2  0  0  0  0
  9 30  1  0  0  0  0
  9 50  1  0  0  0  0
 10 31  1  0  0  0  0
 10 51  1  0  0  0  0
 11 32  1  0  0  0  0
 11 52  1  0  0  0  0
 12 33  1  0  0  0  0
 12 53  1  0  0  0  0
 13 34  1  0  0  0  0
 13 54  1  0  0  0  0
 14 35  1  0  0  0  0
 14 55  1  0  0  0  0
 15 16  1  0  0  0  0
 15 17  1  0  0  0  0
 15 21  1  0  0  0  0
 16 19  1  0  0  0  0
 16 36  1  0  0  0  0
 16 37  1  0  0  0  0
 17 20  1  0  0  0  0
 17 38  1  0  0  0  0
 17 39  1  0  0  0  0
 18 19  1  0  0  0  0
 18 20  1  0  0  0  0
 18 40  1  0  0  0  0
 19 41  1  0  0  0  0
 20 42  1  0  0  0  0
 22 24  1  0  0  0  0
 23 25  1  0  0  0  0
 24 26  2  0  0  0  0
 24 27  1  0  0  0  0
 25 28  2  0  0  0  0
 25 29  1  0  0  0  0
 26 31  1  0  0  0  0
 26 46  1  0  0  0  0
 27 30  2  0  0  0  0
 27 47  1  0  0  0  0
 28 33  1  0  0  0  0
 28 48  1  0  0  0  0
 29 32  2  0  0  0  0
 29 49  1  0  0  0  0
 30 34  1  0  0  0  0
 31 34  2  0  0  0  0
 32 35  1  0  0  0  0
 33 35  2  0  0  0  0
M  END
> <PUBCHEM_COMPOUND_CID>
475264

> <PUBCHEM_CONFORMER_RMSD>
1

> <PUBCHEM_CONFORMER_DIVERSEORDER>
1
4
3
173
146
199
124
86
180
50
39
20
174
139
164
119
121
42
114
161
104
56
113
76
167
81
159
183
177
198
188
38
60
67
55
152
99
195
69
122
172
137
184
100
83
18
7
185
46
158
31
9
54
44
72
126
190
45
160
79
200
135
23
80
170
61
209
192
207
94
93
59
145
204
197
112
25
138
144
14
51
127
11
186
123
91
116
97
134
205
202
17
37
129
33
133
74
53
64
194
176
34
84
10
89
36
141
156
151
178
206
120
175
75
147
30
166
52
140
57
70
118
82
13
189
131
191
5
87
110
201
24
68
117
115
163
142
98
73
187
2
203
125
26
150
32
63
181
35
106
28
85
162
95
62
143
155
47
208
154
40
102
77
105
90
193
165
149
157
71
168
92
111
196
171
21
15
179
108
130
96
66
103
19
153
16
27
22
48
132
43
136
88
148
12
169
128
6
182
109
8
58
65
101
49
78
41
107
29

> <PUBCHEM_MMFF94_PARTIAL_CHARGES>
46
1 -0.43
10 -0.53
11 -0.53
12 -0.53
13 -0.53
14 -0.53
15 0.34
18 0.28
19 0.28
2 -0.43
20 0.28
21 0.66
22 0.63
23 0.63
24 0.09
25 0.09
26 -0.15
27 -0.15
28 -0.15
29 -0.15
3 -0.68
30 0.08
31 0.08
32 0.08
33 0.08
34 0.08
35 0.08
4 -0.68
43 0.4
44 0.4
45 0.5
46 0.15
47 0.15
48 0.15
49 0.15
5 -0.65
50 0.45
51 0.45
52 0.45
53 0.45
54 0.45
55 0.45
6 -0.57
7 -0.57
8 -0.57
9 -0.53

> <PUBCHEM_EFFECTIVE_ROTOR_COUNT>
8.2

> <PUBCHEM_PHARMACOPHORE_FEATURES>
18
1 10 donor
1 11 donor
1 12 donor
1 13 donor
1 14 donor
1 3 acceptor
1 3 donor
1 4 acceptor
1 4 donor
1 5 acceptor
1 6 acceptor
1 7 acceptor
1 8 acceptor
1 9 donor
3 5 6 21 anion
6 15 16 17 18 19 20 rings
6 24 26 27 30 31 34 rings
6 25 28 29 32 33 35 rings

> <PUBCHEM_HEAVY_ATOM_COUNT>
35

> <PUBCHEM_ATOM_DEF_STEREO_COUNT>
2

> <PUBCHEM_ATOM_UDEF_STEREO_COUNT>
0

> <PUBCHEM_BOND_DEF_STEREO_COUNT>
0

> <PUBCHEM_BOND_UDEF_STEREO_COUNT>
0

> <PUBCHEM_ISOTOPIC_ATOM_COUNT>
0

> <PUBCHEM_COMPONENT_COUNT>
1

> <PUBCHEM_CACTVS_TAUTO_COUNT>
196

> <PUBCHEM_CONFORMER_ID>
0007408000000001

> <PUBCHEM_MMFF94_ENERGY>
108.8372

> <PUBCHEM_FEATURE_SELFOVERLAP>
91.431

> <PUBCHEM_SHAPE_FINGERPRINT>
10670039 82 18264491861848850756
10842077 115 17556542703707090233
10937287 8 18337384929604262771
11059845 2 18121748756926296770
11399510 152 16663198079394797521
11477941 20 17841138162967246750
11578080 2 18058474056695750278
12107183 9 18192138309973115578
12422481 6 17531520980496923596
13383661 66 13036610935154683069
13944108 23 17402049994117733777
14251764 75 18267590113374698017
14347329 18 18261961864192620704
14790565 3 18196937665068863153
14950920 106 14996282487929866356
15163728 17 18272377416776479935
15274700 21 18340782536993626091
15513586 35 17607822895065476157
15968369 153 17976274734816841056
16067690 210 17751911669635683296
16991981 162 18202561778782152385
18393751 57 18335711486466663195
19304152 47 17749119871730441025
19309040 13 17775006726429578957
19315092 285 14058444209907118737
20691028 202 18270123409455547905
21033650 10 18263657315285652254
21120745 212 18267585891817465199
22907989 373 18058424622223572847
23516275 100 17549245382367433937
23559900 14 17987235539234668422
23569914 2 17414393382830199872
24180151 214 17751059513801679771
2838139 119 18342450422564785034
3418910 222 17684662304296331804
376196 1 18339079276685302310
497634 4 17059227018863572107
508706 21 18269549601760829360
5252454 2 18336259046576381689
550186 7 18272093854356142671
57724786 102 18054233128836042611
6034566 193 18268147566170621053
6058803 2 18264468655324107042
7288768 16 17822015319319222498
7808743 9 18411136926594286675

> <PUBCHEM_SHAPE_MULTIPOLES>
638.11
14.72
5.77
1.92
15.7
1.21
0.27
17.57
-1.04
-6.75
-0.27
0.01
0.53
-0.19

> <PUBCHEM_SHAPE_SELFOVERLAP>
1399.542

> <PUBCHEM_SHAPE_VOLUME>
340.6

> <PUBCHEM_COORDINATE_TYPE>
2
5
10

$$$$
