15289412
  -OEChem-10062121593D

 59 63  0     0  0  0  0  0  0999 V2000
   -1.8448   -4.9594    1.3756 S   0  0  0  0  0  0  0  0  0  0  0  0
    2.9801    2.8086   -1.8190 O   0  0  0  0  0  0  0  0  0  0  0  0
    3.1010    4.5497    2.4177 O   0  0  0  0  0  0  0  0  0  0  0  0
    1.4960   -1.4477   -0.5753 N   0  0  0  0  0  0  0  0  0  0  0  0
    3.1402    4.0414    0.1425 N   0  0  0  0  0  0  0  0  0  0  0  0
   -3.6955   -6.8281    1.5514 N   0  0  0  0  0  0  0  0  0  0  0  0
   -3.2236   -6.0488   -0.6275 N   0  0  0  0  0  0  0  0  0  0  0  0
    1.2931   -0.1290   -0.2684 C   0  0  0  0  0  0  0  0  0  0  0  0
    2.5185    0.4370   -0.0014 C   0  0  0  0  0  0  0  0  0  0  0  0
    2.8378   -1.7491   -0.5120 C   0  0  0  0  0  0  0  0  0  0  0  0
    3.5058   -0.5768   -0.1518 C   0  0  0  0  0  0  0  0  0  0  0  0
    0.4571   -2.3982   -0.9206 C   0  0  0  0  0  0  0  0  0  0  0  0
   -0.0264    0.4709   -0.2558 C   0  0  0  0  0  0  0  0  0  0  0  0
   -0.0968   -3.1178    0.3100 C   0  0  0  0  0  0  0  0  0  0  0  0
    2.7363    1.8032    0.3608 C   0  0  0  0  0  0  0  0  0  0  0  0
    3.5045   -2.9575   -0.7436 C   0  0  0  0  0  0  0  0  0  0  0  0
    4.9077   -0.6096   -0.0156 C   0  0  0  0  0  0  0  0  0  0  0  0
   -1.1941   -4.1009   -0.0860 C   0  0  0  0  0  0  0  0  0  0  0  0
   -0.5343    1.0459   -1.4165 C   0  0  0  0  0  0  0  0  0  0  0  0
   -0.7753    0.4673    0.9168 C   0  0  0  0  0  0  0  0  0  0  0  0
    4.8951   -2.9659   -0.6026 C   0  0  0  0  0  0  0  0  0  0  0  0
    5.5880   -1.8112   -0.2443 C   0  0  0  0  0  0  0  0  0  0  0  0
    2.9696    2.9099   -0.6039 C   0  0  0  0  0  0  0  0  0  0  0  0
    2.7575    2.3410    1.5882 C   0  0  0  0  0  0  0  0  0  0  0  0
   -1.8040    1.6232   -1.4044 C   0  0  0  0  0  0  0  0  0  0  0  0
   -2.0450    1.0445    0.9288 C   0  0  0  0  0  0  0  0  0  0  0  0
   -2.5594    1.6224   -0.2318 C   0  0  0  0  0  0  0  0  0  0  0  0
    3.0196    3.7827    1.4748 C   0  0  0  0  0  0  0  0  0  0  0  0
   -3.8765    2.2212   -0.2192 C   0  0  0  0  0  0  0  0  0  0  0  0
   -4.0255    3.5707    0.1007 C   0  0  0  0  0  0  0  0  0  0  0  0
   -4.9970    1.4494   -0.5265 C   0  0  0  0  0  0  0  0  0  0  0  0
   -3.0321   -6.0410    0.6529 C   0  0  0  0  0  0  0  0  0  0  0  0
   -5.2951    4.1484    0.1134 C   0  0  0  0  0  0  0  0  0  0  0  0
   -6.2666    2.0271   -0.5138 C   0  0  0  0  0  0  0  0  0  0  0  0
   -6.4156    3.3766   -0.1939 C   0  0  0  0  0  0  0  0  0  0  0  0
    0.8745   -3.1158   -1.6358 H   0  0  0  0  0  0  0  0  0  0  0  0
   -0.3390   -1.8715   -1.4569 H   0  0  0  0  0  0  0  0  0  0  0  0
    0.7190   -3.6497    0.8168 H   0  0  0  0  0  0  0  0  0  0  0  0
   -0.4896   -2.3892    1.0277 H   0  0  0  0  0  0  0  0  0  0  0  0
    2.9766   -3.8643   -1.0183 H   0  0  0  0  0  0  0  0  0  0  0  0
    5.4636    0.2813    0.2629 H   0  0  0  0  0  0  0  0  0  0  0  0
   -2.0126   -3.5660   -0.5796 H   0  0  0  0  0  0  0  0  0  0  0  0
   -0.7914   -4.8406   -0.7863 H   0  0  0  0  0  0  0  0  0  0  0  0
    0.0431    1.0542   -2.3376 H   0  0  0  0  0  0  0  0  0  0  0  0
   -0.3862    0.0251    1.8305 H   0  0  0  0  0  0  0  0  0  0  0  0
    5.4435   -3.8887   -0.7741 H   0  0  0  0  0  0  0  0  0  0  0  0
    6.6693   -1.8425   -0.1405 H   0  0  0  0  0  0  0  0  0  0  0  0
    2.6168    1.8300    2.5270 H   0  0  0  0  0  0  0  0  0  0  0  0
   -2.1899    2.0696   -2.3179 H   0  0  0  0  0  0  0  0  0  0  0  0
   -2.6201    1.0362    1.8517 H   0  0  0  0  0  0  0  0  0  0  0  0
    3.3175    4.9602   -0.2471 H   0  0  0  0  0  0  0  0  0  0  0  0
   -3.1626    4.1867    0.3428 H   0  0  0  0  0  0  0  0  0  0  0  0
   -4.8986    0.3959   -0.7779 H   0  0  0  0  0  0  0  0  0  0  0  0
   -5.4114    5.1991    0.3626 H   0  0  0  0  0  0  0  0  0  0  0  0
   -7.1391    1.4263   -0.7530 H   0  0  0  0  0  0  0  0  0  0  0  0
   -7.4041    3.8264   -0.1840 H   0  0  0  0  0  0  0  0  0  0  0  0
   -3.4995   -6.7725    2.5449 H   0  0  0  0  0  0  0  0  0  0  0  0
   -4.4039   -7.4899    1.2531 H   0  0  0  0  0  0  0  0  0  0  0  0
   -3.9490   -6.7395   -0.8492 H   0  0  0  0  0  0  0  0  0  0  0  0
  1 18  1  0  0  0  0
  1 32  1  0  0  0  0
  2 23  2  0  0  0  0
  3 28  2  0  0  0  0
  4  8  1  0  0  0  0
  4 10  1  0  0  0  0
  4 12  1  0  0  0  0
  5 23  1  0  0  0  0
  5 28  1  0  0  0  0
  5 51  1  0  0  0  0
  6 32  1  0  0  0  0
  6 57  1  0  0  0  0
  6 58  1  0  0  0  0
  7 32  2  0  0  0  0
  7 59  1  0  0  0  0
  8  9  2  0  0  0  0
  8 13  1  0  0  0  0
  9 11  1  0  0  0  0
  9 15  1  0  0  0  0
 10 11  1  0  0  0  0
 10 16  2  0  0  0  0
 11 17  2  0  0  0  0
 12 14  1  0  0  0  0
 12 36  1  0  0  0  0
 12 37  1  0  0  0  0
 13 19  2  0  0  0  0
 13 20  1  0  0  0  0
 14 18  1  0  0  0  0
 14 38  1  0  0  0  0
 14 39  1  0  0  0  0
 15 23  1  0  0  0  0
 15 24  2  0  0  0  0
 16 21  1  0  0  0  0
 16 40  1  0  0  0  0
 17 22  1  0  0  0  0
 17 41  1  0  0  0  0
 18 42  1  0  0  0  0
 18 43  1  0  0  0  0
 19 25  1  0  0  0  0
 19 44  1  0  0  0  0
 20 26  2  0  0  0  0
 20 45  1  0  0  0  0
 21 22  2  0  0  0  0
 21 46  1  0  0  0  0
 22 47  1  0  0  0  0
 24 28  1  0  0  0  0
 24 48  1  0  0  0  0
 25 27  2  0  0  0  0
 25 49  1  0  0  0  0
 26 27  1  0  0  0  0
 26 50  1  0  0  0  0
 27 29  1  0  0  0  0
 29 30  2  0  0  0  0
 29 31  1  0  0  0  0
 30 33  1  0  0  0  0
 30 52  1  0  0  0  0
 31 34  2  0  0  0  0
 31 53  1  0  0  0  0
 33 35  2  0  0  0  0
 33 54  1  0  0  0  0
 34 35  1  0  0  0  0
 34 55  1  0  0  0  0
 35 56  1  0  0  0  0
M  END
> <PUBCHEM_COMPOUND_CID>
15289412

> <PUBCHEM_CONFORMER_RMSD>
1

> <PUBCHEM_CONFORMER_DIVERSEORDER>
1
12
6
21
16
18
7
14
20
15
9
2
19
17
22
3
10
13
5
11
8
4

> <PUBCHEM_MMFF94_PARTIAL_CHARGES>
49
1 -0.37
10 -0.15
12 0.26
13 0.05
15 0.06
16 -0.15
17 -0.15
18 0.23
19 -0.15
2 -0.57
20 -0.15
21 -0.15
22 -0.15
23 0.62
24 -0.14
25 -0.15
26 -0.15
28 0.62
3 -0.57
30 -0.15
31 -0.15
32 0.64
33 -0.15
34 -0.15
35 -0.15
4 0.05
40 0.15
41 0.15
44 0.15
45 0.15
46 0.15
47 0.15
48 0.15
49 0.15
5 -0.49
50 0.15
51 0.37
52 0.15
53 0.15
54 0.15
55 0.15
56 0.15
57 0.4
58 0.4
59 0.4
6 -0.85
7 -0.85
8 -0.2
9 -0.05

> <PUBCHEM_EFFECTIVE_ROTOR_COUNT>
8.2

> <PUBCHEM_PHARMACOPHORE_FEATURES>
12
1 2 acceptor
1 3 acceptor
1 4 cation
1 5 donor
1 6 donor
1 7 donor
3 6 7 32 cation
5 4 8 9 10 11 rings
5 5 15 23 24 28 rings
6 10 11 16 17 21 22 rings
6 13 19 20 25 26 27 rings
6 29 30 31 33 34 35 rings

> <PUBCHEM_HEAVY_ATOM_COUNT>
35

> <PUBCHEM_ATOM_DEF_STEREO_COUNT>
0

> <PUBCHEM_ATOM_UDEF_STEREO_COUNT>
0

> <PUBCHEM_BOND_DEF_STEREO_COUNT>
0

> <PUBCHEM_BOND_UDEF_STEREO_COUNT>
0

> <PUBCHEM_ISOTOPIC_ATOM_COUNT>
0

> <PUBCHEM_COMPONENT_COUNT>
1

> <PUBCHEM_CACTVS_TAUTO_COUNT>
3

> <PUBCHEM_CONFORMER_ID>
00E94C4400000001

> <PUBCHEM_MMFF94_ENERGY>
89.6906

> <PUBCHEM_FEATURE_SELFOVERLAP>
61.027

> <PUBCHEM_SHAPE_FINGERPRINT>
10190108 129 17690024622510406370
102385 1 18338236089148512350
10930396 42 18049978045566852994
12166972 35 17774150185133272624
12788726 201 17253150242733960748
1361 2 18192994807802601779
13636023 20 17767394682744201065
13692114 37 18408878530502216563
13835254 42 17977386362880129423
13911987 19 17976002889811098534
14725015 67 17691683386441688298
14849402 71 18342457011124777832
14955137 171 18057602066997594364
15219462 58 18126278881965718916
15439362 3 18342167874269211832
15483637 11 18338519758495165927
15484559 13 18054791676374724479
15775530 1 18338236089217019282
15849732 13 17488170496883681892
16993438 75 18261123954744318715
18681886 176 17986940861031747065
23559900 14 18269265769243180025
23845131 108 18410282627972268925
24771293 8 17772720863963167176
249057 3 18128248983485947477
25223398 141 18041583376866661947
283562 15 17692818082535777642
3178227 256 18267032652367998681
3383291 50 17832141616129413130
350125 39 18052259793928652456
6004065 56 18198899223803434640
613672 6 16027583399859341639
6700243 42 15250175863793482711
9777508 108 18410290354349318259
9896288 288 17691381420344587160

> <PUBCHEM_SHAPE_MULTIPOLES>
692.47
12.25
9.76
1.36
14.25
20.44
0.39
-8.42
-2.18
3.31
5.06
-0.44
-0.61
2.33

> <PUBCHEM_SHAPE_SELFOVERLAP>
1524.322

> <PUBCHEM_SHAPE_VOLUME>
378.1

> <PUBCHEM_COORDINATE_TYPE>
2
5
10

$$$$
