475263
  -OEChem-10062122003D

 40 41  0     1  0  0  0  0  0999 V2000
    0.1335    0.7629    0.7863 O   0  0  0  0  0  0  0  0  0  0  0  0
   -3.5326   -0.0507   -1.9213 O   0  0  0  0  0  0  0  0  0  0  0  0
   -1.9321    2.7267    0.9985 O   0  0  0  0  0  0  0  0  0  0  0  0
   -0.9076   -0.9207   -1.1582 O   0  0  0  0  0  0  0  0  0  0  0  0
   -5.6462   -0.6451    0.8557 O   0  0  0  0  0  0  0  0  0  0  0  0
   -6.0002   -0.7158   -1.3950 O   0  0  0  0  0  0  0  0  0  0  0  0
    0.7498   -0.8613    2.2966 O   0  0  0  0  0  0  0  0  0  0  0  0
    4.3853    2.2838   -1.1354 O   0  0  0  0  0  0  0  0  0  0  0  0
    5.0629   -2.3377   -0.0758 O   0  0  0  0  0  0  0  0  0  0  0  0
    5.9564    0.0053   -1.2520 O   0  0  0  0  0  0  0  0  0  0  0  0
   -3.8103   -0.1579   -0.5303 C   0  0  0  0  0  0  0  0  0  0  0  0
   -1.2490    0.4157    0.8459 C   0  0  0  0  0  0  0  0  0  0  0  0
   -2.0689    1.5424    0.2130 C   0  0  1  0  0  0  0  0  0  0  0  0
   -1.4725   -0.9327    0.1533 C   0  0  1  0  0  0  0  0  0  0  0  0
   -3.5552    1.1815    0.1640 C   0  0  0  0  0  0  0  0  0  0  0  0
   -2.9623   -1.2861    0.0749 C   0  0  0  0  0  0  0  0  0  0  0  0
   -5.2609   -0.5344   -0.4392 C   0  0  0  0  0  0  0  0  0  0  0  0
    0.9926   -0.1250    1.3530 C   0  0  0  0  0  0  0  0  0  0  0  0
    2.3077   -0.0904    0.6645 C   0  0  0  0  0  0  0  0  0  0  0  0
    3.0686   -1.2405    0.6212 C   0  0  0  0  0  0  0  0  0  0  0  0
    2.7269    1.0909    0.0876 C   0  0  0  0  0  0  0  0  0  0  0  0
    3.9614    1.1233   -0.5612 C   0  0  0  0  0  0  0  0  0  0  0  0
    4.3031   -1.2080   -0.0274 C   0  0  0  0  0  0  0  0  0  0  0  0
    4.7495   -0.0261   -0.6187 C   0  0  0  0  0  0  0  0  0  0  0  0
   -1.5326    0.3429    1.9052 H   0  0  0  0  0  0  0  0  0  0  0  0
   -1.6872    1.7791   -0.7868 H   0  0  0  0  0  0  0  0  0  0  0  0
   -0.9621   -1.7401    0.6869 H   0  0  0  0  0  0  0  0  0  0  0  0
   -3.9498    1.1765    1.1891 H   0  0  0  0  0  0  0  0  0  0  0  0
   -4.0963    1.9879   -0.3494 H   0  0  0  0  0  0  0  0  0  0  0  0
   -3.0779   -2.1912   -0.5361 H   0  0  0  0  0  0  0  0  0  0  0  0
   -3.3092   -1.5277    1.0874 H   0  0  0  0  0  0  0  0  0  0  0  0
   -4.0107    0.7213   -2.2692 H   0  0  0  0  0  0  0  0  0  0  0  0
   -2.4481    3.4277    0.5648 H   0  0  0  0  0  0  0  0  0  0  0  0
   -1.3902   -0.2704   -1.6949 H   0  0  0  0  0  0  0  0  0  0  0  0
   -6.5927   -0.8898    0.9367 H   0  0  0  0  0  0  0  0  0  0  0  0
    2.7174   -2.1614    1.0787 H   0  0  0  0  0  0  0  0  0  0  0  0
    2.1335    1.9998    0.1326 H   0  0  0  0  0  0  0  0  0  0  0  0
    5.2567    2.1251   -1.5382 H   0  0  0  0  0  0  0  0  0  0  0  0
    4.5950   -3.0550    0.3852 H   0  0  0  0  0  0  0  0  0  0  0  0
    6.3586   -0.8786   -1.1905 H   0  0  0  0  0  0  0  0  0  0  0  0
  1 12  1  0  0  0  0
  1 18  1  0  0  0  0
  2 11  1  0  0  0  0
  2 32  1  0  0  0  0
  3 13  1  0  0  0  0
  3 33  1  0  0  0  0
  4 14  1  0  0  0  0
  4 34  1  0  0  0  0
  5 17  1  0  0  0  0
  5 35  1  0  0  0  0
  6 17  2  0  0  0  0
  7 18  2  0  0  0  0
  8 22  1  0  0  0  0
  8 38  1  0  0  0  0
  9 23  1  0  0  0  0
  9 39  1  0  0  0  0
 10 24  1  0  0  0  0
 10 40  1  0  0  0  0
 11 15  1  0  0  0  0
 11 16  1  0  0  0  0
 11 17  1  0  0  0  0
 12 13  1  0  0  0  0
 12 14  1  0  0  0  0
 12 25  1  0  0  0  0
 13 15  1  0  0  0  0
 13 26  1  0  0  0  0
 14 16  1  0  0  0  0
 14 27  1  0  0  0  0
 15 28  1  0  0  0  0
 15 29  1  0  0  0  0
 16 30  1  0  0  0  0
 16 31  1  0  0  0  0
 18 19  1  0  0  0  0
 19 20  2  0  0  0  0
 19 21  1  0  0  0  0
 20 23  1  0  0  0  0
 20 36  1  0  0  0  0
 21 22  2  0  0  0  0
 21 37  1  0  0  0  0
 22 24  1  0  0  0  0
 23 24  2  0  0  0  0
M  END
> <PUBCHEM_COMPOUND_CID>
475263

> <PUBCHEM_CONFORMER_RMSD>
0.8

> <PUBCHEM_CONFORMER_DIVERSEORDER>
1
18
20
15
32
39
36
33
7
6
25
4
41
5
29
17
38
31
16
14
28
27
8
30
24
19
40
35
23
34
10
2
9
11
3
12
42
21
22
13
37
26

> <PUBCHEM_MMFF94_PARTIAL_CHARGES>
31
1 -0.43
10 -0.53
11 0.34
12 0.28
13 0.28
14 0.28
17 0.66
18 0.63
19 0.09
2 -0.68
20 -0.15
21 -0.15
22 0.08
23 0.08
24 0.08
3 -0.68
32 0.4
33 0.4
34 0.4
35 0.5
36 0.15
37 0.15
38 0.45
39 0.45
4 -0.68
40 0.45
5 -0.65
6 -0.57
7 -0.57
8 -0.53
9 -0.53

> <PUBCHEM_EFFECTIVE_ROTOR_COUNT>
5.2

> <PUBCHEM_PHARMACOPHORE_FEATURES>
15
1 10 donor
1 2 acceptor
1 2 donor
1 3 acceptor
1 3 donor
1 4 acceptor
1 4 donor
1 5 acceptor
1 6 acceptor
1 7 acceptor
1 8 donor
1 9 donor
3 5 6 17 anion
6 11 12 13 14 15 16 rings
6 19 20 21 22 23 24 rings

> <PUBCHEM_HEAVY_ATOM_COUNT>
24

> <PUBCHEM_ATOM_DEF_STEREO_COUNT>
2

> <PUBCHEM_ATOM_UDEF_STEREO_COUNT>
0

> <PUBCHEM_BOND_DEF_STEREO_COUNT>
0

> <PUBCHEM_BOND_UDEF_STEREO_COUNT>
0

> <PUBCHEM_ISOTOPIC_ATOM_COUNT>
0

> <PUBCHEM_COMPONENT_COUNT>
1

> <PUBCHEM_CACTVS_TAUTO_COUNT>
14

> <PUBCHEM_CONFORMER_ID>
0007407F00000001

> <PUBCHEM_MMFF94_ENERGY>
65.0255

> <PUBCHEM_FEATURE_SELFOVERLAP>
76.208

> <PUBCHEM_SHAPE_FINGERPRINT>
10498660 4 17095518496102867412
10670039 82 14851883591847753966
11128504 68 18335419084127741637
12107183 9 17689718558718747656
12236239 1 18335422339628640465
12670546 177 18260829293446939958
12730499 353 17313107449319983602
12788726 201 18272935990342661425
12969540 114 16443336594292756203
13533116 47 18411699881138100310
13675066 3 12679460897967017563
13782708 43 16056306363086536431
14251757 5 18263364866251399275
14251764 30 18270683185955326763
14347332 77 18272084942372251575
14386348 63 15626225710679969108
14528608 73 17240477013987075111
15183329 4 18412263917369886583
15375358 24 13045944569050553307
15527383 91 11887957644718875154
16752209 62 18130775725245411907
17834072 33 18333731329447273454
1813 80 14979965782776131856
18186145 218 17530969068630317880
18335252 98 18115598187195389859
19784866 140 18410007724147542579
19862831 5 18187641409955889832
200 152 18343302552650318080
20645477 70 18334860489841202098
21033648 29 15864073195682692260
221357 26 18260263040648149412
22950370 63 18272369810890116819
23402539 116 18271803489250451805
23522609 53 17844274954152487113
23559900 14 18339076120110926944
29717793 49 18411979135263102822
3004659 81 18273217478599821470
312423 11 18411987922892999000
34797466 226 17749390390704119479
351380 3 17775846817478784879
3545911 37 18113622317481379942
46194498 28 18114184129606150182
463206 1 17418365896359920734
465052 167 17917711352951079623
474 4 17604154830339276860
5281201 14 18260267421788779524
53794403 172 16372149899310574540
59755656 520 16008744749310918378
633830 44 17968382251521829504
960060 61 18201717392316802278

> <PUBCHEM_SHAPE_MULTIPOLES>
435.22
13.35
1.87
1.38
0.43
0.67
-0.08
-2.54
5.37
-1.1
-0.11
0.28
-0.06
-1.06

> <PUBCHEM_SHAPE_SELFOVERLAP>
935.084

> <PUBCHEM_SHAPE_VOLUME>
236.8

> <PUBCHEM_COORDINATE_TYPE>
2
5
10

$$$$
