49830441
  -OEChem-10052120443D

 49 52  0     1  0  0  0  0  0999 V2000
   -1.4115    1.9898    2.6359 Cl  0  0  0  0  0  0  0  0  0  0  0  0
   -1.1411    4.3533    0.4421 Cl  0  0  0  0  0  0  0  0  0  0  0  0
   -2.2480   -1.3215   -0.6211 O   0  0  0  0  0  0  0  0  0  0  0  0
   -5.7383   -2.2537   -1.2272 N   0  0  0  0  0  0  0  0  0  0  0  0
    5.7135    1.7972   -0.5461 N   0  0  0  0  0  0  0  0  0  0  0  0
    6.2095    0.5463   -0.4779 N   0  0  0  0  0  0  0  0  0  0  0  0
   -0.0691   -3.6239    1.1775 N   0  0  0  0  0  0  0  0  0  0  0  0
   -4.6372   -1.2979   -1.0750 C   0  0  1  0  0  0  0  0  0  0  0  0
   -5.1639   -0.0741   -0.2964 C   0  0  0  0  0  0  0  0  0  0  0  0
   -3.4758   -2.0086   -0.3696 C   0  0  0  0  0  0  0  0  0  0  0  0
   -4.1518    1.0280   -0.0965 C   0  0  0  0  0  0  0  0  0  0  0  0
    3.9491    0.5884   -0.2559 C   0  0  0  0  0  0  0  0  0  0  0  0
    2.5684   -1.2312    0.0537 C   0  0  0  0  0  0  0  0  0  0  0  0
    5.1321   -0.2377   -0.2964 C   0  0  0  0  0  0  0  0  0  0  0  0
    2.6358    0.1693   -0.0850 C   0  0  0  0  0  0  0  0  0  0  0  0
    1.2631   -1.8366    0.2412 C   0  0  0  0  0  0  0  0  0  0  0  0
    4.3578    1.8817   -0.4183 C   0  0  0  0  0  0  0  0  0  0  0  0
   -1.1171   -1.8619   -0.1039 C   0  0  0  0  0  0  0  0  0  0  0  0
   -3.3339    1.0280    1.0334 C   0  0  0  0  0  0  0  0  0  0  0  0
   -4.0344    2.0462   -1.0425 C   0  0  0  0  0  0  0  0  0  0  0  0
    3.7102   -2.0924    0.0206 C   0  0  0  0  0  0  0  0  0  0  0  0
    0.1202   -1.2587   -0.3003 C   0  0  0  0  0  0  0  0  0  0  0  0
    5.0344   -1.6343   -0.1550 C   0  0  0  0  0  0  0  0  0  0  0  0
    1.1161   -3.0089    0.9653 C   0  0  0  0  0  0  0  0  0  0  0  0
    3.6477    3.1707   -0.4685 C   0  0  0  0  0  0  0  0  0  0  0  0
   -2.3984    2.0462    1.2173 C   0  0  0  0  0  0  0  0  0  0  0  0
   -3.0990    3.0646   -0.8585 C   0  0  0  0  0  0  0  0  0  0  0  0
   -1.1577   -3.0328    0.6358 C   0  0  0  0  0  0  0  0  0  0  0  0
   -2.2810    3.0645    0.2713 C   0  0  0  0  0  0  0  0  0  0  0  0
   -4.3109   -0.9716   -2.0706 H   0  0  0  0  0  0  0  0  0  0  0  0
   -5.5439   -0.3870    0.6865 H   0  0  0  0  0  0  0  0  0  0  0  0
   -6.0352    0.3475   -0.8172 H   0  0  0  0  0  0  0  0  0  0  0  0
   -3.6782   -2.0737    0.7074 H   0  0  0  0  0  0  0  0  0  0  0  0
   -3.3909   -3.0208   -0.7885 H   0  0  0  0  0  0  0  0  0  0  0  0
    1.7949    0.8467   -0.0382 H   0  0  0  0  0  0  0  0  0  0  0  0
   -6.5094   -1.8115   -1.7261 H   0  0  0  0  0  0  0  0  0  0  0  0
   -5.4370   -3.0365   -1.8065 H   0  0  0  0  0  0  0  0  0  0  0  0
    3.5963   -3.1735    0.0964 H   0  0  0  0  0  0  0  0  0  0  0  0
   -3.4311    0.2357    1.7723 H   0  0  0  0  0  0  0  0  0  0  0  0
   -4.6642    2.0555   -1.9280 H   0  0  0  0  0  0  0  0  0  0  0  0
    0.1554   -0.3551   -0.9033 H   0  0  0  0  0  0  0  0  0  0  0  0
    5.8841   -2.3034   -0.1852 H   0  0  0  0  0  0  0  0  0  0  0  0
    6.3687    2.5565   -0.6831 H   0  0  0  0  0  0  0  0  0  0  0  0
    1.9438   -3.5124    1.4543 H   0  0  0  0  0  0  0  0  0  0  0  0
    3.0996    3.3439    0.4633 H   0  0  0  0  0  0  0  0  0  0  0  0
    4.3354    4.0105   -0.6128 H   0  0  0  0  0  0  0  0  0  0  0  0
    2.9291    3.1814   -1.2944 H   0  0  0  0  0  0  0  0  0  0  0  0
   -3.0205    3.8498   -1.6062 H   0  0  0  0  0  0  0  0  0  0  0  0
   -2.0643   -3.5847    0.8534 H   0  0  0  0  0  0  0  0  0  0  0  0
  1 26  1  0  0  0  0
  2 29  1  0  0  0  0
  3 10  1  0  0  0  0
  3 18  1  0  0  0  0
  4  8  1  0  0  0  0
  4 36  1  0  0  0  0
  4 37  1  0  0  0  0
  5  6  1  0  0  0  0
  5 17  1  0  0  0  0
  5 43  1  0  0  0  0
  6 14  2  0  0  0  0
  7 24  2  0  0  0  0
  7 28  1  0  0  0  0
  8  9  1  0  0  0  0
  8 10  1  0  0  0  0
  8 30  1  0  0  0  0
  9 11  1  0  0  0  0
  9 31  1  0  0  0  0
  9 32  1  0  0  0  0
 10 33  1  0  0  0  0
 10 34  1  0  0  0  0
 11 19  2  0  0  0  0
 11 20  1  0  0  0  0
 12 14  1  0  0  0  0
 12 15  1  0  0  0  0
 12 17  2  0  0  0  0
 13 15  2  0  0  0  0
 13 16  1  0  0  0  0
 13 21  1  0  0  0  0
 14 23  1  0  0  0  0
 15 35  1  0  0  0  0
 16 22  2  0  0  0  0
 16 24  1  0  0  0  0
 17 25  1  0  0  0  0
 18 22  1  0  0  0  0
 18 28  2  0  0  0  0
 19 26  1  0  0  0  0
 19 39  1  0  0  0  0
 20 27  2  0  0  0  0
 20 40  1  0  0  0  0
 21 23  2  0  0  0  0
 21 38  1  0  0  0  0
 22 41  1  0  0  0  0
 23 42  1  0  0  0  0
 24 44  1  0  0  0  0
 25 45  1  0  0  0  0
 25 46  1  0  0  0  0
 25 47  1  0  0  0  0
 26 29  2  0  0  0  0
 27 29  1  0  0  0  0
 27 48  1  0  0  0  0
 28 49  1  0  0  0  0
M  END
> <PUBCHEM_COMPOUND_CID>
49830441

> <PUBCHEM_CONFORMER_RMSD>
1.2

> <PUBCHEM_CONFORMER_DIVERSEORDER>
1
37
123
4
50
162
34
26
49
217
71
212
154
12
107
96
136
64
78
65
193
61
148
208
83
164
104
184
33
203
44
159
110
118
30
189
112
197
81
137
200
109
24
52
72
169
10
86
69
202
178
87
129
133
132
55
82
198
90
35
158
220
190
191
105
166
85
43
149
206
28
173
88
25
68
15
155
143
80
165
144
9
116
2
196
181
14
170
156
182
179
45
201
54
6
131
48
146
100
17
38
22
114
130
161
39
177
147
93
209
79
73
142
53
47
20
42
101
167
176
204
13
84
120
205
77
94
32
215
152
58
99
216
51
157
150
140
218
16
194
66
23
98
8
145
180
141
11
185
91
125
111
171
60
106
41
127
113
160
122
76
62
139
7
92
195
59
213
18
124
187
188
135
19
36
5
3
46
151
163
211
192
63
31
126
199
128
40
102
121
56
70
219
172
27
74
108
57
175
75
134
174
89
95
168
117
97
183
21
207
67
115
186
103
210
214
29
138
153
119

> <PUBCHEM_MMFF94_PARTIAL_CHARGES>
38
1 -0.18
10 0.28
11 -0.14
14 0.29
15 -0.15
17 -0.33
18 0.08
19 -0.15
2 -0.18
20 -0.15
21 -0.15
22 -0.15
23 -0.15
24 0.16
25 0.18
26 0.18
27 -0.15
28 0.16
29 0.18
3 -0.36
35 0.15
36 0.36
37 0.36
38 0.15
39 0.15
4 -0.99
40 0.15
41 0.15
42 0.15
43 0.27
44 0.15
48 0.15
49 0.15
5 0.3
6 -0.71
7 -0.62
8 0.27
9 0.14

> <PUBCHEM_EFFECTIVE_ROTOR_COUNT>
6

> <PUBCHEM_PHARMACOPHORE_FEATURES>
10
1 3 acceptor
1 4 cation
1 4 donor
1 5 donor
1 6 acceptor
1 7 acceptor
5 5 6 12 14 17 rings
6 11 19 20 26 27 29 rings
6 12 13 14 15 21 23 rings
6 7 16 18 22 24 28 rings

> <PUBCHEM_HEAVY_ATOM_COUNT>
29

> <PUBCHEM_ATOM_DEF_STEREO_COUNT>
0

> <PUBCHEM_ATOM_UDEF_STEREO_COUNT>
1

> <PUBCHEM_BOND_DEF_STEREO_COUNT>
0

> <PUBCHEM_BOND_UDEF_STEREO_COUNT>
0

> <PUBCHEM_ISOTOPIC_ATOM_COUNT>
0

> <PUBCHEM_COMPONENT_COUNT>
1

> <PUBCHEM_CACTVS_TAUTO_COUNT>
2

> <PUBCHEM_CONFORMER_ID>
02F85A2900000001

> <PUBCHEM_MMFF94_ENERGY>
85.5344

> <PUBCHEM_FEATURE_SELFOVERLAP>
50.879

> <PUBCHEM_SHAPE_FINGERPRINT>
10670039 82 18410572899004766788
10871710 139 18412263918060846435
12788726 201 18410004468277742610
12978246 48 18337954480811667896
13560911 43 18260824912664999784
13583140 156 17824557274396655771
13590594 115 17111288516713914978
13627167 48 18265637458190999892
14117953 113 16754368316016131389
14394314 77 18411707591006018329
14466204 15 18191862324011653090
14787075 74 18413105091521627711
14790565 3 18334576811298361734
14931854 50 18413103978882271589
14932702 115 17908718567253766592
15001296 14 18189049948823565996
15320467 1 18192996139174548100
15420108 30 16687398171581826226
16992787 43 18337386034334349149
16994733 274 16082193123417453223
17627616 140 18262515879986065674
19611394 137 17972047091898870315
20775438 99 16618385679007888927
21049683 271 18263356066680587367
21623110 236 18412550907633601721
21734292 116 18410853278348377820
21857420 4 15114725419236488327
245318 6 17677912290728129756
325973 47 18193279826090778788
3493558 16 18263086676781517950
392239 28 18410862036018880841
437795 70 18127153900227410294
463206 1 18337961211173399377
469060 322 18189637054247450051
4756261 7 18053133686793531673
6036956 94 18334867099527599285
6299153 45 18262230003301288890
6371009 1 18336536153993235064
9980921 221 18196397874222453540

> <PUBCHEM_SHAPE_MULTIPOLES>
574.75
12.93
5.14
1.27
8.39
1.75
0.68
1.98
-4.62
-1.91
0.69
-1.19
0.4
-1.7

> <PUBCHEM_SHAPE_SELFOVERLAP>
1240.82

> <PUBCHEM_SHAPE_VOLUME>
318.9

> <PUBCHEM_COORDINATE_TYPE>
2
5
10

$$$$
