49830454
  -OEChem-10052120433D

 61 65  0     1  0  0  0  0  0999 V2000
   -4.6965   -4.4884   -2.0079 Cl  0  0  0  0  0  0  0  0  0  0  0  0
    3.0880   -0.1523   -1.7716 O   0  0  0  0  0  0  0  0  0  0  0  0
   -4.9972    0.8016   -1.3153 O   0  0  0  0  0  0  0  0  0  0  0  0
    1.1698   -2.5044    1.0557 N   0  0  0  0  0  0  0  0  0  0  0  0
    6.3453   -1.7943   -1.5842 N   0  0  0  0  0  0  0  0  0  0  0  0
    2.6147    3.4547   -1.3842 N   0  0  0  0  0  0  0  0  0  0  0  0
   -4.7631    2.6587    1.0492 N   0  0  0  0  0  0  0  0  0  0  0  0
    4.6965   -2.0335    0.2347 C   0  0  0  0  0  0  0  0  0  0  0  0
    4.9227   -1.6538   -1.2582 C   0  0  1  0  0  0  0  0  0  0  0  0
    3.2975   -1.9780    0.7055 C   0  0  0  0  0  0  0  0  0  0  0  0
    2.7111   -0.9542    1.5009 C   0  0  0  0  0  0  0  0  0  0  0  0
    4.4947   -0.2162   -1.5775 C   0  0  0  0  0  0  0  0  0  0  0  0
    1.3760   -1.3086    1.7062 C   0  0  0  0  0  0  0  0  0  0  0  0
    2.3252   -2.9168    0.4481 C   0  0  0  0  0  0  0  0  0  0  0  0
    3.1896    0.2438    2.0678 C   0  0  0  0  0  0  0  0  0  0  0  0
    0.4919   -0.5218    2.4529 C   0  0  0  0  0  0  0  0  0  0  0  0
    2.3167    1.0410    2.8171 C   0  0  0  0  0  0  0  0  0  0  0  0
    0.9890    0.6621    3.0054 C   0  0  0  0  0  0  0  0  0  0  0  0
    2.4794    1.0432   -1.4908 C   0  0  0  0  0  0  0  0  0  0  0  0
    0.5712    2.3178   -0.7699 C   0  0  0  0  0  0  0  0  0  0  0  0
   -0.7939    2.3990   -0.3064 C   0  0  0  0  0  0  0  0  0  0  0  0
    1.1628    1.0899   -1.0458 C   0  0  0  0  0  0  0  0  0  0  0  0
   -3.0408    1.5130   -0.2491 C   0  0  0  0  0  0  0  0  0  0  0  0
   -1.7219    1.4330   -0.6957 C   0  0  0  0  0  0  0  0  0  0  0  0
    3.1558    2.2429   -1.6422 C   0  0  0  0  0  0  0  0  0  0  0  0
   -1.1851    3.4452    0.5292 C   0  0  0  0  0  0  0  0  0  0  0  0
   -3.4319    2.5590    0.5866 C   0  0  0  0  0  0  0  0  0  0  0  0
    1.3331    3.4605   -0.9539 C   0  0  0  0  0  0  0  0  0  0  0  0
   -2.5041    3.5252    0.9758 C   0  0  0  0  0  0  0  0  0  0  0  0
   -3.9862    0.4877   -0.6726 C   0  0  0  0  0  0  0  0  0  0  0  0
   -3.7880   -0.9582   -0.3602 C   0  0  0  0  0  0  0  0  0  0  0  0
   -4.2789   -1.9333   -1.2285 C   0  0  0  0  0  0  0  0  0  0  0  0
   -3.1108   -1.3341    0.7999 C   0  0  0  0  0  0  0  0  0  0  0  0
   -4.0925   -3.2845   -0.9365 C   0  0  0  0  0  0  0  0  0  0  0  0
   -2.9246   -2.6853    1.0918 C   0  0  0  0  0  0  0  0  0  0  0  0
   -3.4156   -3.6605    0.2237 C   0  0  0  0  0  0  0  0  0  0  0  0
    5.0704   -3.0550    0.3948 H   0  0  0  0  0  0  0  0  0  0  0  0
    5.3267   -1.3941    0.8674 H   0  0  0  0  0  0  0  0  0  0  0  0
    4.3492   -2.3484   -1.8852 H   0  0  0  0  0  0  0  0  0  0  0  0
    4.9612    0.1142   -2.5147 H   0  0  0  0  0  0  0  0  0  0  0  0
    4.8368    0.4448   -0.7696 H   0  0  0  0  0  0  0  0  0  0  0  0
    2.3498   -3.8405   -0.1133 H   0  0  0  0  0  0  0  0  0  0  0  0
    0.2915   -3.0037    1.0297 H   0  0  0  0  0  0  0  0  0  0  0  0
    4.2204    0.5569    1.9298 H   0  0  0  0  0  0  0  0  0  0  0  0
    6.6424   -2.7537   -1.4104 H   0  0  0  0  0  0  0  0  0  0  0  0
    6.4880   -1.6273   -2.5795 H   0  0  0  0  0  0  0  0  0  0  0  0
   -0.5391   -0.8180    2.6070 H   0  0  0  0  0  0  0  0  0  0  0  0
    2.6796    1.9670    3.2549 H   0  0  0  0  0  0  0  0  0  0  0  0
    0.3279    1.2965    3.5904 H   0  0  0  0  0  0  0  0  0  0  0  0
    0.6358    0.1496   -0.9117 H   0  0  0  0  0  0  0  0  0  0  0  0
   -1.4524    0.6269   -1.3742 H   0  0  0  0  0  0  0  0  0  0  0  0
    4.1756    2.2991   -2.0079 H   0  0  0  0  0  0  0  0  0  0  0  0
   -0.4898    4.2032    0.8794 H   0  0  0  0  0  0  0  0  0  0  0  0
    0.9457    4.4613   -0.7905 H   0  0  0  0  0  0  0  0  0  0  0  0
   -2.7945    4.3421    1.6317 H   0  0  0  0  0  0  0  0  0  0  0  0
   -5.4537    1.9690    0.7866 H   0  0  0  0  0  0  0  0  0  0  0  0
   -5.0275    3.4230    1.6568 H   0  0  0  0  0  0  0  0  0  0  0  0
   -4.8024   -1.6451   -2.1373 H   0  0  0  0  0  0  0  0  0  0  0  0
   -2.7348   -0.5945    1.5006 H   0  0  0  0  0  0  0  0  0  0  0  0
   -2.4000   -2.9780    1.9966 H   0  0  0  0  0  0  0  0  0  0  0  0
   -3.2632   -4.7095    0.4644 H   0  0  0  0  0  0  0  0  0  0  0  0
  1 34  1  0  0  0  0
  2 12  1  0  0  0  0
  2 19  1  0  0  0  0
  3 30  2  0  0  0  0
  4 13  1  0  0  0  0
  4 14  1  0  0  0  0
  4 43  1  0  0  0  0
  5  9  1  0  0  0  0
  5 45  1  0  0  0  0
  5 46  1  0  0  0  0
  6 25  1  0  0  0  0
  6 28  2  0  0  0  0
  7 27  1  0  0  0  0
  7 56  1  0  0  0  0
  7 57  1  0  0  0  0
  8  9  1  0  0  0  0
  8 10  1  0  0  0  0
  8 37  1  0  0  0  0
  8 38  1  0  0  0  0
  9 12  1  0  0  0  0
  9 39  1  0  0  0  0
 10 11  1  0  0  0  0
 10 14  2  0  0  0  0
 11 13  1  0  0  0  0
 11 15  2  0  0  0  0
 12 40  1  0  0  0  0
 12 41  1  0  0  0  0
 13 16  2  0  0  0  0
 14 42  1  0  0  0  0
 15 17  1  0  0  0  0
 15 44  1  0  0  0  0
 16 18  1  0  0  0  0
 16 47  1  0  0  0  0
 17 18  2  0  0  0  0
 17 48  1  0  0  0  0
 18 49  1  0  0  0  0
 19 22  1  0  0  0  0
 19 25  2  0  0  0  0
 20 21  1  0  0  0  0
 20 22  2  0  0  0  0
 20 28  1  0  0  0  0
 21 24  2  0  0  0  0
 21 26  1  0  0  0  0
 22 50  1  0  0  0  0
 23 24  1  0  0  0  0
 23 27  2  0  0  0  0
 23 30  1  0  0  0  0
 24 51  1  0  0  0  0
 25 52  1  0  0  0  0
 26 29  2  0  0  0  0
 26 53  1  0  0  0  0
 27 29  1  0  0  0  0
 28 54  1  0  0  0  0
 29 55  1  0  0  0  0
 30 31  1  0  0  0  0
 31 32  2  0  0  0  0
 31 33  1  0  0  0  0
 32 34  1  0  0  0  0
 32 58  1  0  0  0  0
 33 35  2  0  0  0  0
 33 59  1  0  0  0  0
 34 36  2  0  0  0  0
 35 36  1  0  0  0  0
 35 60  1  0  0  0  0
 36 61  1  0  0  0  0
M  END
> <PUBCHEM_COMPOUND_CID>
49830454

> <PUBCHEM_CONFORMER_RMSD>
1.4

> <PUBCHEM_CONFORMER_DIVERSEORDER>
1
120
139
298
149
384
365
323
220
76
216
331
279
212
354
117
343
333
129
376
81
164
235
372
380
162
314
264
349
27
381
286
89
165
88
232
205
319
3
378
9
132
345
236
206
239
341
393
65
214
351
243
163
18
366
338
274
272
200
154
227
199
334
373
131
219
360
153
276
370
327
167
174
78
175
111
182
148
271
168
289
80
342
335
278
386
287
307
74
75
229
305
94
310
173
309
265
181
326
369
159
253
301
96
363
23
224
105
255
379
330
238
392
248
282
328
201
161
30
52
261
209
233
251
340
302
11
318
42
296
136
304
196
180
324
260
254
389
63
348
38
122
394
223
40
225
158
270
104
218
35
29
269
244
234
275
51
357
26
222
92
208
358
101
228
7
64
191
203
202
306
73
135
31
82
102
283
145
352
142
185
19
249
194
395
113
303
213
281
374
61
294
295
398
364
186
90
231
130
151
70
397
106
320
291
57
377
48
14
211
221
215
245
169
339
166
62
356
280
85
388
329
22
33
247
383
290
387
58
184
77
53
317
385
138
344
382
156
34
60
284
300
5
137
359
292
252
112
263
66
50
316
258
2
285
91
125
69
250
109
325
217
336
347
207
49
371
56
119
189
97
141
10
375
288
256
118
396
350
297
237
266
179
8
83
172
134
140
193
337
226
267
54
47
268
390
188
176
100
332
183
115
6
311
157
197
361
160
190
353
68
195
41
39
116
368
155
46
321
257
150
391
107
84
99
114
367
246
55
241
346
108
146
273
143
293
126
171
123
110
127
17
355
192
16
170
121
44
147
86
20
262
95
230
178
322
32
313
362
128
37
98
124
242
133
43
312
259
71
28
15
177
210
24
93
299
59
87
12
152
144
277
198
204
72
4
240
103
21
315
13
187
79
308
67
45
36
25

> <PUBCHEM_MMFF94_PARTIAL_CHARGES>
53
1 -0.18
10 -0.18
12 0.28
13 -0.15
14 -0.3
15 -0.15
16 -0.15
17 -0.15
18 -0.15
19 0.08
2 -0.36
22 -0.15
23 0.09
24 -0.15
25 0.16
26 -0.15
27 0.1
28 0.16
29 -0.15
3 -0.57
30 0.4
31 0.09
32 -0.15
33 -0.15
34 0.18
35 -0.15
36 -0.15
4 0.03
42 0.15
43 0.27
44 0.15
45 0.36
46 0.36
47 0.15
48 0.15
49 0.15
5 -0.99
50 0.15
51 0.15
52 0.15
53 0.15
54 0.15
55 0.15
56 0.4
57 0.4
58 0.15
59 0.15
6 -0.62
60 0.15
61 0.15
7 -0.9
8 0.18
9 0.27

> <PUBCHEM_EFFECTIVE_ROTOR_COUNT>
8

> <PUBCHEM_PHARMACOPHORE_FEATURES>
14
1 2 acceptor
1 3 acceptor
1 4 cation
1 4 donor
1 5 cation
1 5 donor
1 6 acceptor
1 7 cation
1 7 donor
5 4 10 11 13 14 rings
6 11 13 15 16 17 18 rings
6 21 23 24 26 27 29 rings
6 31 32 33 34 35 36 rings
6 6 19 20 22 25 28 rings

> <PUBCHEM_HEAVY_ATOM_COUNT>
36

> <PUBCHEM_ATOM_DEF_STEREO_COUNT>
0

> <PUBCHEM_ATOM_UDEF_STEREO_COUNT>
1

> <PUBCHEM_BOND_DEF_STEREO_COUNT>
0

> <PUBCHEM_BOND_UDEF_STEREO_COUNT>
0

> <PUBCHEM_ISOTOPIC_ATOM_COUNT>
0

> <PUBCHEM_COMPONENT_COUNT>
1

> <PUBCHEM_CACTVS_TAUTO_COUNT>
5

> <PUBCHEM_CONFORMER_ID>
02F85A3600000001

> <PUBCHEM_MMFF94_ENERGY>
112.7261

> <PUBCHEM_FEATURE_SELFOVERLAP>
71.14

> <PUBCHEM_SHAPE_FINGERPRINT>
11607047 403 17910660296894160576
12156800 1 16683143670998463464
12553582 1 18114743711704402133
13383661 66 17251201873753595971
14705955 166 16915378775947951201
15001296 14 18188488098639709399
161222 10 18115847677555681985
17809404 112 18050812711523750391
17909252 39 18265625457820298274
19315092 285 15840685509744479095
19319366 153 17169844270838571779
20764821 26 18335984250585202003
22393880 68 17967810591395779205
23559900 14 18411693305459008197
3388396 114 18048329030341166941
444735 86 18048872197970492135
463206 1 18187657859828690252
513532 50 17623563555389408955
5895379 119 18408318904236212938
70251023 43 17908427206042445167
86090 222 16963795083736012571

> <PUBCHEM_SHAPE_MULTIPOLES>
711.07
10.99
5.56
2.47
0.89
0.21
1.17
8.25
-5.12
4.88
-1.23
-2.09
0.07
-2.18

> <PUBCHEM_SHAPE_SELFOVERLAP>
1568.778

> <PUBCHEM_SHAPE_VOLUME>
383.4

> <PUBCHEM_COORDINATE_TYPE>
2
5
10

$$$$
