49830947
  -OEChem-10052115183D

 24 26  0     0  0  0  0  0  0999 V2000
   -5.2226   -0.0033    0.0012 Cl  0  0  0  0  0  0  0  0  0  0  0  0
   -0.9071   -2.8017   -0.0014 O   0  0  0  0  0  0  0  0  0  0  0  0
    0.4346    1.3152   -0.0011 N   0  0  0  0  0  0  0  0  0  0  0  0
    1.0087   -1.6533   -0.0001 N   0  0  0  0  0  0  0  0  0  0  0  0
   -1.8118    1.8145   -0.0012 N   0  0  0  0  0  0  0  0  0  0  0  0
   -3.1470    1.5401   -0.0003 N   0  0  0  0  0  0  0  0  0  0  0  0
    1.7009    0.7355   -0.0001 C   0  0  0  0  0  0  0  0  0  0  0  0
    1.9644   -0.6288    0.0002 C   0  0  0  0  0  0  0  0  0  0  0  0
   -1.2444   -0.4964    0.0000 C   0  0  0  0  0  0  0  0  0  0  0  0
   -0.8638    0.8340   -0.0010 C   0  0  0  0  0  0  0  0  0  0  0  0
   -0.3642   -1.6897   -0.0006 C   0  0  0  0  0  0  0  0  0  0  0  0
    2.8039    1.6244    0.0004 C   0  0  0  0  0  0  0  0  0  0  0  0
    3.3056   -1.0746    0.0005 C   0  0  0  0  0  0  0  0  0  0  0  0
   -2.6238   -0.7712    0.0012 C   0  0  0  0  0  0  0  0  0  0  0  0
    4.1236    1.1760    0.0006 C   0  0  0  0  0  0  0  0  0  0  0  0
    4.3759   -0.1836    0.0005 C   0  0  0  0  0  0  0  0  0  0  0  0
   -3.5330    0.2629    0.0010 C   0  0  0  0  0  0  0  0  0  0  0  0
    0.4495    2.3318   -0.0016 H   0  0  0  0  0  0  0  0  0  0  0  0
    1.4138   -2.5878   -0.0001 H   0  0  0  0  0  0  0  0  0  0  0  0
    2.6316    2.7003    0.0003 H   0  0  0  0  0  0  0  0  0  0  0  0
    3.5306   -2.1404    0.0006 H   0  0  0  0  0  0  0  0  0  0  0  0
   -3.0010   -1.7910    0.0020 H   0  0  0  0  0  0  0  0  0  0  0  0
    4.9430    1.8879    0.0008 H   0  0  0  0  0  0  0  0  0  0  0  0
    5.3962   -0.5540    0.0007 H   0  0  0  0  0  0  0  0  0  0  0  0
  1 17  1  0  0  0  0
  2 11  2  0  0  0  0
  3  7  1  0  0  0  0
  3 10  1  0  0  0  0
  3 18  1  0  0  0  0
  4  8  1  0  0  0  0
  4 11  1  0  0  0  0
  4 19  1  0  0  0  0
  5  6  1  0  0  0  0
  5 10  2  0  0  0  0
  6 17  2  0  0  0  0
  7  8  1  0  0  0  0
  7 12  2  0  0  0  0
  8 13  2  0  0  0  0
  9 10  1  0  0  0  0
  9 11  1  0  0  0  0
  9 14  2  0  0  0  0
 12 15  1  0  0  0  0
 12 20  1  0  0  0  0
 13 16  1  0  0  0  0
 13 21  1  0  0  0  0
 14 17  1  0  0  0  0
 14 22  1  0  0  0  0
 15 16  2  0  0  0  0
 15 23  1  0  0  0  0
 16 24  1  0  0  0  0
M  END
> <PUBCHEM_COMPOUND_CID>
49830947

> <PUBCHEM_CONFORMER_RMSD>
0.4

> <PUBCHEM_CONFORMER_DIVERSEORDER>
1

> <PUBCHEM_MMFF94_PARTIAL_CHARGES>
24
1 -0.18
10 0.41
11 0.54
12 -0.15
13 -0.15
14 -0.15
15 -0.15
16 -0.15
17 0.49
18 0.4
19 0.37
2 -0.57
20 0.15
21 0.15
22 0.15
23 0.15
24 0.15
3 -0.6
4 -0.55
5 -0.31
6 -0.31
7 0.1
8 0.12
9 0.09

> <PUBCHEM_EFFECTIVE_ROTOR_COUNT>
0.4

> <PUBCHEM_PHARMACOPHORE_FEATURES>
8
1 2 acceptor
1 3 donor
1 4 donor
1 6 acceptor
3 3 5 10 cation
6 5 6 9 10 14 17 rings
6 7 8 12 13 15 16 rings
7 3 4 7 8 9 10 11 rings

> <PUBCHEM_HEAVY_ATOM_COUNT>
17

> <PUBCHEM_ATOM_DEF_STEREO_COUNT>
0

> <PUBCHEM_ATOM_UDEF_STEREO_COUNT>
0

> <PUBCHEM_BOND_DEF_STEREO_COUNT>
0

> <PUBCHEM_BOND_UDEF_STEREO_COUNT>
0

> <PUBCHEM_ISOTOPIC_ATOM_COUNT>
0

> <PUBCHEM_COMPONENT_COUNT>
1

> <PUBCHEM_CACTVS_TAUTO_COUNT>
7

> <PUBCHEM_CONFORMER_ID>
02F85C2300000001

> <PUBCHEM_MMFF94_ENERGY>
70.0842

> <PUBCHEM_FEATURE_SELFOVERLAP>
40.609

> <PUBCHEM_SHAPE_FINGERPRINT>
10411042 1 16465301186463413155
10608611 8 18340767152030679440
10616163 171 18267589185682562102
10967382 1 18410856551308324326
11132069 177 18413102883660296888
11471102 20 18411134736313777540
11578080 2 16771252876033553546
12236239 1 17847062173542416835
12251169 10 18408600383797826608
12592029 89 18335139752297754643
13140716 1 18265890448759759410
13221675 6 18410292518970565842
13380535 76 18412545413953594774
13583140 156 16805590495488530089
13862211 1 18410849975919473271
14115302 16 18334866060065404748
15196674 1 18410575076078445063
15309172 13 18410864243600058979
15442244 35 18337950096066608002
15536298 74 18342739594164977774
15775835 57 18412829096427126120
16945 1 18338516468713078372
17802600 8 18410289198797387144
18186145 218 18341898433273061612
200 152 18131064935811734765
20510252 161 18272371936350770153
20645477 70 18340486677369963742
21267235 1 18410864239226210478
21501502 16 18266455584994088806
21524375 3 18411981351471833367
2334 1 18410573951002845760
23402539 116 18342730849506133367
23402655 69 18343298150034773453
23463225 33 18335420140942858540
23558518 356 17612305655800864608
23559900 14 18271805787448520832
2748010 2 18337394824865612212
2871803 45 18335697213588633933
335352 9 18410856542871572358
34934 24 18338792429231342882
366044 4 18409448098451471779
43471831 8 18263361399959187491
474 4 17241334723678731268
474229 33 18410575102412991591
5104073 3 18410293571126862449
537710 114 18411985771014227992
54173680 148 18192996151795270483
6333272 397 18409167705505800354
69090 78 18413105078183006159
7364860 26 18196936561040760886
9709674 26 18341618148171324550

> <PUBCHEM_SHAPE_MULTIPOLES>
325.93
8.47
2.1
0.59
2.32
0.66
0
-1.77
0
-0.04
0
-0.01
0
0

> <PUBCHEM_SHAPE_SELFOVERLAP>
712.228

> <PUBCHEM_SHAPE_VOLUME>
175.4

> <PUBCHEM_COORDINATE_TYPE>
2
5
10

$$$$
