10017019
  -OEChem-10062122013D

 26 28  0     0  0  0  0  0  0999 V2000
   -3.2726    3.2223   -0.4233 Br  0  0  0  0  0  0  0  0  0  0  0  0
   -1.5182   -2.4808    0.3064 N   0  0  0  0  0  0  0  0  0  0  0  0
    1.6863    0.7259    0.3818 N   0  0  0  0  0  0  0  0  0  0  0  0
    4.0086    0.4798   -0.2128 N   0  0  0  0  0  0  0  0  0  0  0  0
    3.2083    2.4797    0.7179 N   0  0  0  0  0  0  0  0  0  0  0  0
   -1.0989   -0.3118   -0.0047 C   0  0  0  0  0  0  0  0  0  0  0  0
    0.1340   -1.0199    0.0548 C   0  0  0  0  0  0  0  0  0  0  0  0
   -2.1194   -1.2514    0.1559 C   0  0  0  0  0  0  0  0  0  0  0  0
   -0.1566   -2.3510    0.2465 C   0  0  0  0  0  0  0  0  0  0  0  0
    1.4801   -0.5351   -0.0518 C   0  0  0  0  0  0  0  0  0  0  0  0
   -1.4456    1.0426   -0.1801 C   0  0  0  0  0  0  0  0  0  0  0  0
   -3.4746   -0.9029    0.1498 C   0  0  0  0  0  0  0  0  0  0  0  0
   -2.7971    1.4059   -0.1887 C   0  0  0  0  0  0  0  0  0  0  0  0
   -3.7944    0.4465   -0.0261 C   0  0  0  0  0  0  0  0  0  0  0  0
    2.4737   -1.3395   -0.5713 C   0  0  0  0  0  0  0  0  0  0  0  0
    3.7310   -0.7736   -0.6282 C   0  0  0  0  0  0  0  0  0  0  0  0
    2.9554    1.1633    0.2739 C   0  0  0  0  0  0  0  0  0  0  0  0
    0.4682   -3.2272    0.3570 H   0  0  0  0  0  0  0  0  0  0  0  0
   -2.0114   -3.3522    0.4434 H   0  0  0  0  0  0  0  0  0  0  0  0
   -0.6745    1.7963   -0.3129 H   0  0  0  0  0  0  0  0  0  0  0  0
   -4.2517   -1.6492    0.2764 H   0  0  0  0  0  0  0  0  0  0  0  0
   -4.8438    0.7335   -0.0333 H   0  0  0  0  0  0  0  0  0  0  0  0
    2.3132   -2.3469   -0.9339 H   0  0  0  0  0  0  0  0  0  0  0  0
    4.5752   -1.3278   -1.0245 H   0  0  0  0  0  0  0  0  0  0  0  0
    2.4488    3.0327    1.0904 H   0  0  0  0  0  0  0  0  0  0  0  0
    4.1452    2.8535    0.6567 H   0  0  0  0  0  0  0  0  0  0  0  0
  1 13  1  0  0  0  0
  2  8  1  0  0  0  0
  2  9  1  0  0  0  0
  2 19  1  0  0  0  0
  3 10  2  0  0  0  0
  3 17  1  0  0  0  0
  4 16  1  0  0  0  0
  4 17  2  0  0  0  0
  5 17  1  0  0  0  0
  5 25  1  0  0  0  0
  5 26  1  0  0  0  0
  6  7  1  0  0  0  0
  6  8  2  0  0  0  0
  6 11  1  0  0  0  0
  7  9  2  0  0  0  0
  7 10  1  0  0  0  0
  8 12  1  0  0  0  0
  9 18  1  0  0  0  0
 10 15  1  0  0  0  0
 11 13  2  0  0  0  0
 11 20  1  0  0  0  0
 12 14  2  0  0  0  0
 12 21  1  0  0  0  0
 13 14  1  0  0  0  0
 14 22  1  0  0  0  0
 15 16  2  0  0  0  0
 15 23  1  0  0  0  0
 16 24  1  0  0  0  0
M  END
> <PUBCHEM_COMPOUND_CID>
10017019

> <PUBCHEM_CONFORMER_RMSD>
0.6

> <PUBCHEM_CONFORMER_DIVERSEORDER>
2
3
6
4
5
1

> <PUBCHEM_MMFF94_PARTIAL_CHARGES>
25
1 -0.11
10 0.36
11 -0.15
12 -0.15
13 0.11
14 -0.15
15 -0.15
16 0.16
17 0.72
18 0.15
19 0.27
2 0.03
20 0.15
21 0.15
22 0.15
23 0.15
24 0.15
25 0.4
26 0.4
3 -0.62
4 -0.62
5 -0.9
7 -0.05
8 -0.15
9 -0.3

> <PUBCHEM_EFFECTIVE_ROTOR_COUNT>
1

> <PUBCHEM_PHARMACOPHORE_FEATURES>
9
1 1 hydrophobe
1 2 cation
1 2 donor
1 3 acceptor
1 5 donor
4 3 4 5 17 cation
5 2 6 7 8 9 rings
6 3 4 10 15 16 17 rings
6 6 8 11 12 13 14 rings

> <PUBCHEM_HEAVY_ATOM_COUNT>
17

> <PUBCHEM_ATOM_DEF_STEREO_COUNT>
0

> <PUBCHEM_ATOM_UDEF_STEREO_COUNT>
0

> <PUBCHEM_BOND_DEF_STEREO_COUNT>
0

> <PUBCHEM_BOND_UDEF_STEREO_COUNT>
0

> <PUBCHEM_ISOTOPIC_ATOM_COUNT>
0

> <PUBCHEM_COMPONENT_COUNT>
1

> <PUBCHEM_CACTVS_TAUTO_COUNT>
6

> <PUBCHEM_CONFORMER_ID>
0098D8FB00000002

> <PUBCHEM_MMFF94_ENERGY>
41.4478

> <PUBCHEM_FEATURE_SELFOVERLAP>
45.762

> <PUBCHEM_SHAPE_FINGERPRINT>
10498660 4 18334849503156519045
10608611 8 18412825823873147120
10646746 165 18408604734309566748
10967382 1 18410575071778190027
1100329 8 16610264110413867488
11615756 256 18410862065899256516
11715629 250 18342452685875341532
12173636 292 18409164420119517903
12403260 363 18337940225598655055
12769317 202 17615110106416614053
13134695 92 16917063309856003872
13140716 1 18263639554999706657
13464514 151 17980486663346807527
14123255 52 18192429676048083125
14866123 147 16469251740010433910
15196674 1 18410857641982123701
15219456 202 18342741866165916450
16945 1 18335985371334321783
17802600 8 18411416215543192436
18186145 218 18201445722539431730
18219364 16 18266471909901329457
200 152 17274824657516367950
20510252 161 18412546530982513737
20645477 56 18410858793091413864
20645477 70 17346328063967148854
21524375 3 18262236603948487063
221357 26 18272370836981339629
22182937 141 18269282274786518537
23402539 116 18411691119035629582
23557571 272 18194977458969038222
23559900 14 18272089336889017686
238 59 17034406317197825093
25 1 18194683665888556719
2748010 2 18410015437639813095
335352 9 17977384936718424254
350125 39 18337680728191183097
3524813 1 18410852144482539737
4028521 119 18335693936686764951
495365 180 17632281377101486656
5104073 3 18409731772145503219
69090 78 18343863346456764967
7364860 26 18050004398441792199
81228 2 18115871986933563083
84936 182 17978503140255050593
9709674 26 18342181093708582734

> <PUBCHEM_SHAPE_MULTIPOLES>
335.87
7.4
3
0.72
1.83
1.09
-0.03
3.81
-0.64
-1.48
0.22
0.16
0.09
0.97

> <PUBCHEM_SHAPE_SELFOVERLAP>
737.046

> <PUBCHEM_SHAPE_VOLUME>
185.8

> <PUBCHEM_COORDINATE_TYPE>
2
5
10

$$$$
