24905331
  -OEChem-10052115153D

 29 31  0     0  0  0  0  0  0999 V2000
    5.5865   -0.3489   -0.5133 Br  0  0  0  0  0  0  0  0  0  0  0  0
    3.8278   -0.0444    2.0465 O   0  0  0  0  0  0  0  0  0  0  0  0
   -2.2449    1.7287    0.0211 N   0  0  0  0  0  0  0  0  0  0  0  0
   -0.9116    1.8936   -0.0610 N   0  0  0  0  0  0  0  0  0  0  0  0
   -3.8881   -0.0470    0.1165 N   0  0  0  0  0  0  0  0  0  0  0  0
   -2.8414   -2.2493    0.0438 N   0  0  0  0  0  0  0  0  0  0  0  0
   -0.4781   -2.5500   -0.1028 N   0  0  0  0  0  0  0  0  0  0  0  0
   -1.4684   -0.3229   -0.0345 C   0  0  0  0  0  0  0  0  0  0  0  0
   -0.4444    0.6407   -0.0946 C   0  0  0  0  0  0  0  0  0  0  0  0
   -2.6324    0.4218    0.0403 C   0  0  0  0  0  0  0  0  0  0  0  0
    0.9750    0.4077   -0.1837 C   0  0  0  0  0  0  0  0  0  0  0  0
   -1.6021   -1.7073   -0.0311 C   0  0  0  0  0  0  0  0  0  0  0  0
    1.7372    0.2907    0.9787 C   0  0  0  0  0  0  0  0  0  0  0  0
   -3.1034    2.8881    0.0786 C   0  0  0  0  0  0  0  0  0  0  0  0
    1.5867    0.2995   -1.4326 C   0  0  0  0  0  0  0  0  0  0  0  0
    3.1110    0.0654    0.8921 C   0  0  0  0  0  0  0  0  0  0  0  0
    2.9605    0.0742   -1.5193 C   0  0  0  0  0  0  0  0  0  0  0  0
   -3.8924   -1.3976    0.1119 C   0  0  0  0  0  0  0  0  0  0  0  0
    3.7226   -0.0429   -0.3568 C   0  0  0  0  0  0  0  0  0  0  0  0
    1.2605    0.3745    1.9534 H   0  0  0  0  0  0  0  0  0  0  0  0
   -2.8344    3.4694    0.9643 H   0  0  0  0  0  0  0  0  0  0  0  0
   -2.9447    3.4767   -0.8285 H   0  0  0  0  0  0  0  0  0  0  0  0
   -4.1487    2.5782    0.1416 H   0  0  0  0  0  0  0  0  0  0  0  0
    1.0065    0.3879   -2.3480 H   0  0  0  0  0  0  0  0  0  0  0  0
    3.4200   -0.0077   -2.5010 H   0  0  0  0  0  0  0  0  0  0  0  0
   -4.8697   -1.8647    0.1709 H   0  0  0  0  0  0  0  0  0  0  0  0
    0.4574   -2.1753   -0.1590 H   0  0  0  0  0  0  0  0  0  0  0  0
   -0.6201   -3.5512   -0.0971 H   0  0  0  0  0  0  0  0  0  0  0  0
    3.2296    0.0582    2.8065 H   0  0  0  0  0  0  0  0  0  0  0  0
  1 19  1  0  0  0  0
  2 16  1  0  0  0  0
  2 29  1  0  0  0  0
  3  4  1  0  0  0  0
  3 10  1  0  0  0  0
  3 14  1  0  0  0  0
  4  9  2  0  0  0  0
  5 10  2  0  0  0  0
  5 18  1  0  0  0  0
  6 12  1  0  0  0  0
  6 18  2  0  0  0  0
  7 12  1  0  0  0  0
  7 27  1  0  0  0  0
  7 28  1  0  0  0  0
  8  9  1  0  0  0  0
  8 10  1  0  0  0  0
  8 12  2  0  0  0  0
  9 11  1  0  0  0  0
 11 13  2  0  0  0  0
 11 15  1  0  0  0  0
 13 16  1  0  0  0  0
 13 20  1  0  0  0  0
 14 21  1  0  0  0  0
 14 22  1  0  0  0  0
 14 23  1  0  0  0  0
 15 17  2  0  0  0  0
 15 24  1  0  0  0  0
 16 19  2  0  0  0  0
 17 19  1  0  0  0  0
 17 25  1  0  0  0  0
 18 26  1  0  0  0  0
M  END
> <PUBCHEM_COMPOUND_CID>
24905331

> <PUBCHEM_CONFORMER_RMSD>
0.6

> <PUBCHEM_CONFORMER_DIVERSEORDER>
2
1

> <PUBCHEM_MMFF94_PARTIAL_CHARGES>
25
1 -0.11
10 0.11
11 0.05
12 0.41
13 -0.15
14 0.26
15 -0.15
16 0.08
17 -0.15
18 0.47
19 0.11
2 -0.53
20 0.15
24 0.15
25 0.15
26 0.15
27 0.4
28 0.4
29 0.45
3 0.31
4 -0.71
5 -0.57
6 -0.62
7 -0.9
9 0.23

> <PUBCHEM_EFFECTIVE_ROTOR_COUNT>
1

> <PUBCHEM_PHARMACOPHORE_FEATURES>
10
1 1 hydrophobe
1 2 donor
1 4 acceptor
1 7 cation
1 7 donor
3 3 5 10 cation
3 5 6 18 cation
5 3 4 8 9 10 rings
6 11 13 15 16 17 19 rings
6 5 6 8 10 12 18 rings

> <PUBCHEM_HEAVY_ATOM_COUNT>
19

> <PUBCHEM_ATOM_DEF_STEREO_COUNT>
0

> <PUBCHEM_ATOM_UDEF_STEREO_COUNT>
0

> <PUBCHEM_BOND_DEF_STEREO_COUNT>
0

> <PUBCHEM_BOND_UDEF_STEREO_COUNT>
0

> <PUBCHEM_ISOTOPIC_ATOM_COUNT>
0

> <PUBCHEM_COMPONENT_COUNT>
1

> <PUBCHEM_CACTVS_TAUTO_COUNT>
15

> <PUBCHEM_CONFORMER_ID>
017C067300000002

> <PUBCHEM_MMFF94_ENERGY>
48.2204

> <PUBCHEM_FEATURE_SELFOVERLAP>
51.025

> <PUBCHEM_SHAPE_FINGERPRINT>
10616163 171 18409171012857906734
11315181 36 18187368740369102140
11582403 64 16908285830689917248
12236239 1 17748829618051099732
12403259 415 17917991668228500520
12500047 106 18341329985951223676
12507560 40 18131062758442741888
12553582 1 18265054811275160147
13140716 1 18267029543180668729
13288520 33 18411425007721166174
13538477 17 18113900510749798015
13581323 91 18410007749716892454
13583140 156 17916849254425423866
13862211 1 18339081609738741263
14386348 63 17775293767804788902
15042514 8 18338242694940530643
15219456 202 17561080311042900896
15653759 3 18060420222673343880
16752209 62 18408600366438661367
16945 1 18410859867376569741
17804303 29 18341896328633357707
1813 80 16879063041428894242
18186145 218 17846222102912798056
19049666 15 17774169976478832204
19141452 34 17703234035232298647
19422 9 17894348860916334706
200 152 16587740949599854676
20028762 73 17841442728596593071
20279233 1 17775573043636879310
20510252 161 18272091595424650233
20645476 183 17531250611978871595
20645477 70 14779536869111268384
21033648 29 17418080002241059736
21065201 7 18412826854907930282
21267235 1 18335149734023380483
22112679 90 17967533458599576780
2297311 6 18342187682288076300
23175994 123 17060346214626561632
232386 152 18335982085647144430
23402539 116 18413105069772316205
23557571 272 18273220776749914148
23559900 14 18200317598651939382
23598291 2 17676210135053861772
2748010 2 18049737221990783253
2838139 119 14979408244824272011
34797466 226 18058467533584523772
4214541 1 18410859832937898604
43471831 8 18335417920434827891
465052 167 17898590906222133747
474 4 17024603424023141652
559249 180 18262800645261516446
573450 72 18261107448640751672
602551 16 18412544323474909314
6049 1 17917994996749124688
7615 1 17822009821961614780
77492 1 17676490544636102692
81228 2 18340217357572615913
90525 40 18186804647247465743
9709674 26 18271255940875889102

> <PUBCHEM_SHAPE_MULTIPOLES>
366.18
8.91
2.18
1.14
7.06
0.12
0.18
-0.74
0.16
-3.49
-0.01
1.54
0.06
0.03

> <PUBCHEM_SHAPE_SELFOVERLAP>
799.417

> <PUBCHEM_SHAPE_VOLUME>
206.9

> <PUBCHEM_COORDINATE_TYPE>
2
5
10

$$$$
