52945348
  -OEChem-10052115163D

 40 43  0     0  0  0  0  0  0999 V2000
   -6.8964    0.1210   -0.6381 O   0  0  0  0  0  0  0  0  0  0  0  0
    2.9628    1.0433   -0.0241 N   0  0  0  0  0  0  0  0  0  0  0  0
    1.6678    1.4040   -0.0915 N   0  0  0  0  0  0  0  0  0  0  0  0
   -3.5175    0.2159    1.8953 N   0  0  0  0  0  0  0  0  0  0  0  0
    4.3245   -0.9564    0.0750 N   0  0  0  0  0  0  0  0  0  0  0  0
    2.9606   -2.9787    0.0463 N   0  0  0  0  0  0  0  0  0  0  0  0
    0.5772   -2.9256   -0.0674 N   0  0  0  0  0  0  0  0  0  0  0  0
    3.9849    2.0622    0.0101 C   0  0  0  0  0  0  0  0  0  0  0  0
    1.0188    0.2345   -0.1015 C   0  0  0  0  0  0  0  0  0  0  0  0
    1.8888   -0.8701   -0.0411 C   0  0  0  0  0  0  0  0  0  0  0  0
    3.1517   -0.3065    0.0084 C   0  0  0  0  0  0  0  0  0  0  0  0
   -0.4165    0.2147   -0.1648 C   0  0  0  0  0  0  0  0  0  0  0  0
   -2.5509    0.2087    0.9150 C   0  0  0  0  0  0  0  0  0  0  0  0
   -3.2125    0.1754   -0.3143 C   0  0  0  0  0  0  0  0  0  0  0  0
   -1.1557    0.2290    1.0214 C   0  0  0  0  0  0  0  0  0  0  0  0
    3.8544    2.9494    1.2506 C   0  0  0  0  0  0  0  0  0  0  0  0
    3.9813    2.9067   -1.2666 C   0  0  0  0  0  0  0  0  0  0  0  0
   -1.0499    0.1815   -1.4057 C   0  0  0  0  0  0  0  0  0  0  0  0
    1.8149   -2.2590   -0.0202 C   0  0  0  0  0  0  0  0  0  0  0  0
   -2.4464    0.1616   -1.4968 C   0  0  0  0  0  0  0  0  0  0  0  0
   -4.6083    0.1625   -0.0371 C   0  0  0  0  0  0  0  0  0  0  0  0
   -4.7640    0.1883    1.3297 C   0  0  0  0  0  0  0  0  0  0  0  0
    4.1276   -2.2924    0.0892 C   0  0  0  0  0  0  0  0  0  0  0  0
   -5.6972    0.1298   -0.9716 C   0  0  0  0  0  0  0  0  0  0  0  0
    4.9538    1.5515    0.0676 H   0  0  0  0  0  0  0  0  0  0  0  0
   -0.6748    0.2544    1.9949 H   0  0  0  0  0  0  0  0  0  0  0  0
    3.8652    2.3453    2.1646 H   0  0  0  0  0  0  0  0  0  0  0  0
    4.6855    3.6604    1.3064 H   0  0  0  0  0  0  0  0  0  0  0  0
    2.9211    3.5232    1.2423 H   0  0  0  0  0  0  0  0  0  0  0  0
    4.8145    3.6173   -1.2624 H   0  0  0  0  0  0  0  0  0  0  0  0
    4.0835    2.2720   -2.1539 H   0  0  0  0  0  0  0  0  0  0  0  0
    3.0524    3.4782   -1.3719 H   0  0  0  0  0  0  0  0  0  0  0  0
   -0.4683    0.1699   -2.3254 H   0  0  0  0  0  0  0  0  0  0  0  0
   -2.9231    0.1355   -2.4725 H   0  0  0  0  0  0  0  0  0  0  0  0
   -3.3327    0.2384    2.8886 H   0  0  0  0  0  0  0  0  0  0  0  0
   -5.6463    0.1895    1.9550 H   0  0  0  0  0  0  0  0  0  0  0  0
    5.0252   -2.8992    0.1420 H   0  0  0  0  0  0  0  0  0  0  0  0
    0.5686   -3.9366   -0.0502 H   0  0  0  0  0  0  0  0  0  0  0  0
   -0.2929   -2.4163   -0.1171 H   0  0  0  0  0  0  0  0  0  0  0  0
   -5.4271    0.1119   -2.0405 H   0  0  0  0  0  0  0  0  0  0  0  0
  1 24  2  0  0  0  0
  2  3  1  0  0  0  0
  2  8  1  0  0  0  0
  2 11  1  0  0  0  0
  3  9  2  0  0  0  0
  4 13  1  0  0  0  0
  4 22  1  0  0  0  0
  4 35  1  0  0  0  0
  5 11  2  0  0  0  0
  5 23  1  0  0  0  0
  6 19  1  0  0  0  0
  6 23  2  0  0  0  0
  7 19  1  0  0  0  0
  7 38  1  0  0  0  0
  7 39  1  0  0  0  0
  8 16  1  0  0  0  0
  8 17  1  0  0  0  0
  8 25  1  0  0  0  0
  9 10  1  0  0  0  0
  9 12  1  0  0  0  0
 10 11  1  0  0  0  0
 10 19  2  0  0  0  0
 12 15  2  0  0  0  0
 12 18  1  0  0  0  0
 13 14  2  0  0  0  0
 13 15  1  0  0  0  0
 14 20  1  0  0  0  0
 14 21  1  0  0  0  0
 15 26  1  0  0  0  0
 16 27  1  0  0  0  0
 16 28  1  0  0  0  0
 16 29  1  0  0  0  0
 17 30  1  0  0  0  0
 17 31  1  0  0  0  0
 17 32  1  0  0  0  0
 18 20  2  0  0  0  0
 18 33  1  0  0  0  0
 20 34  1  0  0  0  0
 21 22  2  0  0  0  0
 21 24  1  0  0  0  0
 22 36  1  0  0  0  0
 23 37  1  0  0  0  0
 24 40  1  0  0  0  0
M  END
> <PUBCHEM_COMPOUND_CID>
52945348

> <PUBCHEM_CONFORMER_RMSD>
0.6

> <PUBCHEM_CONFORMER_DIVERSEORDER>
1
6
3
5
4
10
2
9
7
8

> <PUBCHEM_MMFF94_PARTIAL_CHARGES>
29
1 -0.57
11 0.11
12 0.05
13 -0.15
15 -0.15
18 -0.15
19 0.41
2 0.31
20 -0.15
21 -0.09
22 -0.3
23 0.47
24 0.6
26 0.15
3 -0.71
33 0.15
34 0.15
35 0.27
36 0.15
37 0.15
38 0.4
39 0.4
4 0.03
40 0.06
5 -0.57
6 -0.62
7 -0.9
8 0.26
9 0.23

> <PUBCHEM_EFFECTIVE_ROTOR_COUNT>
3

> <PUBCHEM_PHARMACOPHORE_FEATURES>
13
1 1 acceptor
1 3 acceptor
1 4 cation
1 4 donor
1 7 cation
1 7 donor
3 2 5 11 cation
3 5 6 23 cation
3 8 16 17 hydrophobe
5 2 3 9 10 11 rings
5 4 13 14 21 22 rings
6 12 13 14 15 18 20 rings
6 5 6 10 11 19 23 rings

> <PUBCHEM_HEAVY_ATOM_COUNT>
24

> <PUBCHEM_ATOM_DEF_STEREO_COUNT>
0

> <PUBCHEM_ATOM_UDEF_STEREO_COUNT>
0

> <PUBCHEM_BOND_DEF_STEREO_COUNT>
0

> <PUBCHEM_BOND_UDEF_STEREO_COUNT>
0

> <PUBCHEM_ISOTOPIC_ATOM_COUNT>
0

> <PUBCHEM_COMPONENT_COUNT>
1

> <PUBCHEM_CACTVS_TAUTO_COUNT>
29

> <PUBCHEM_CONFORMER_ID>
0327E1C400000001

> <PUBCHEM_MMFF94_ENERGY>
48.2622

> <PUBCHEM_FEATURE_SELFOVERLAP>
66.342

> <PUBCHEM_SHAPE_FINGERPRINT>
10165383 225 18263651821996548996
10366900 7 17969233256384108658
10411042 1 17978226063831779278
10912923 1 17846784005548138577
12107183 9 17623298169629046017
12236239 1 17703789184865311275
12390115 104 17907589369497498372
12616971 3 18060146401465485585
12670546 56 18201439151714547425
12730499 353 18336552710606831880
12788726 201 17131840867564519803
13140716 1 18338230587712092450
13533116 47 18413388726787546129
13583140 156 18270683203081980593
13955234 65 18411134736556553010
14386348 63 17530972345611580995
14739800 52 16916488363943114928
15342168 16 18262801911860196268
15375358 24 17675924313675742401
15961568 22 16660652907243967324
17138139 8 17700948172096526655
17844677 252 18337393743014330445
1813 80 17914064105678806630
18785283 64 18260552247161675772
1979834 28 18041846223932231724
200 152 18342734066821688075
20028762 73 18130500830048907622
20157964 124 18409445895444478853
204376 136 18264775526620682324
20554085 129 17844796174746778128
20600515 1 16009033946786441949
20612939 158 18411703183862326004
20645477 70 18335133163807197175
21033648 29 17894901923829056797
21065201 7 16515686606825653211
21344244 78 17987782026371768248
2255824 54 18341898468060132918
23557571 272 16950841401813758887
23559900 14 16732992998191542414
23569943 247 17484255063174542798
23845131 108 18265047123362847946
239999 70 17894349982034674242
312423 11 18130238055300852129
335352 9 18411421731283416798
3633792 109 18339351973771544925
42630746 31 18413103970619358062
4340502 62 18339641243423067435
458136 41 18336554910289483476
474 4 18199464536105231872
495365 180 18409162233970627584
5104073 3 18409732889206349707
6025842 7 18411136948232517198
6034566 193 17755308103665777428
8272917 22 18411984641400587861
9981440 41 15690654051389826736

> <PUBCHEM_SHAPE_MULTIPOLES>
458.15
12.11
2.8
1.27
14.06
0.59
0.11
-2.95
-0.37
-6.55
0.03
1.07
-0.52
-0.11

> <PUBCHEM_SHAPE_SELFOVERLAP>
1026.823

> <PUBCHEM_SHAPE_VOLUME>
242.6

> <PUBCHEM_COORDINATE_TYPE>
2
5
10

$$$$
