24859013
  -OEChem-10062121543D

 34 36  0     0  0  0  0  0  0999 V2000
   -6.3109   -0.7752   -0.0005 F   0  0  0  0  0  0  0  0  0  0  0  0
   -5.4866    0.9136    1.0824 F   0  0  0  0  0  0  0  0  0  0  0  0
   -5.4659    0.9050   -1.0920 F   0  0  0  0  0  0  0  0  0  0  0  0
    2.3358    1.6161    0.0014 O   0  0  0  0  0  0  0  0  0  0  0  0
    0.9130   -0.2441    0.0017 N   0  0  0  0  0  0  0  0  0  0  0  0
   -2.8542    1.5710    0.0003 N   0  0  0  0  0  0  0  0  0  0  0  0
    3.1970   -0.5582    0.0017 N   0  0  0  0  0  0  0  0  0  0  0  0
    5.0690    0.9236    0.0001 N   0  0  0  0  0  0  0  0  0  0  0  0
    6.7736   -1.3036   -0.0017 N   0  0  0  0  0  0  0  0  0  0  0  0
   -1.5286   -0.4416    0.0011 C   0  0  0  0  0  0  0  0  0  0  0  0
   -2.7707    0.2270    0.0004 C   0  0  0  0  0  0  0  0  0  0  0  0
   -0.3617    0.3344    0.0015 C   0  0  0  0  0  0  0  0  0  0  0  0
   -3.9296   -0.5443    0.0001 C   0  0  0  0  0  0  0  0  0  0  0  0
   -1.4786   -1.8459    0.0014 C   0  0  0  0  0  0  0  0  0  0  0  0
   -3.8802   -1.9405    0.0003 C   0  0  0  0  0  0  0  0  0  0  0  0
   -0.4444    1.7194    0.0014 C   0  0  0  0  0  0  0  0  0  0  0  0
   -2.6533   -2.5925    0.0009 C   0  0  0  0  0  0  0  0  0  0  0  0
   -5.2755    0.1122   -0.0003 C   0  0  0  0  0  0  0  0  0  0  0  0
   -1.7042    2.2832    0.0008 C   0  0  0  0  0  0  0  0  0  0  0  0
    2.1710    0.4003    0.0017 C   0  0  0  0  0  0  0  0  0  0  0  0
    4.5947   -0.3380    0.0018 C   0  0  0  0  0  0  0  0  0  0  0  0
    5.4319   -1.4320    0.0008 C   0  0  0  0  0  0  0  0  0  0  0  0
    6.4106    1.0519   -0.0023 C   0  0  0  0  0  0  0  0  0  0  0  0
    7.2479   -0.0420   -0.0033 C   0  0  0  0  0  0  0  0  0  0  0  0
   -0.5499   -2.4067    0.0019 H   0  0  0  0  0  0  0  0  0  0  0  0
   -4.7880   -2.5374   -0.0001 H   0  0  0  0  0  0  0  0  0  0  0  0
    0.3794    2.4132    0.0019 H   0  0  0  0  0  0  0  0  0  0  0  0
   -2.6113   -3.6775    0.0011 H   0  0  0  0  0  0  0  0  0  0  0  0
    0.9628   -1.2557    0.0018 H   0  0  0  0  0  0  0  0  0  0  0  0
   -1.8327    3.3608    0.0007 H   0  0  0  0  0  0  0  0  0  0  0  0
    2.9096   -1.5337    0.0021 H   0  0  0  0  0  0  0  0  0  0  0  0
    5.0638   -2.4516    0.0015 H   0  0  0  0  0  0  0  0  0  0  0  0
    6.7924    2.0654   -0.0035 H   0  0  0  0  0  0  0  0  0  0  0  0
    8.3258    0.0621   -0.0052 H   0  0  0  0  0  0  0  0  0  0  0  0
  1 18  1  0  0  0  0
  2 18  1  0  0  0  0
  3 18  1  0  0  0  0
  4 20  2  0  0  0  0
  5 12  1  0  0  0  0
  5 20  1  0  0  0  0
  5 29  1  0  0  0  0
  6 11  2  0  0  0  0
  6 19  1  0  0  0  0
  7 20  1  0  0  0  0
  7 21  1  0  0  0  0
  7 31  1  0  0  0  0
  8 21  2  0  0  0  0
  8 23  1  0  0  0  0
  9 22  2  0  0  0  0
  9 24  1  0  0  0  0
 10 11  1  0  0  0  0
 10 12  2  0  0  0  0
 10 14  1  0  0  0  0
 11 13  1  0  0  0  0
 12 16  1  0  0  0  0
 13 15  2  0  0  0  0
 13 18  1  0  0  0  0
 14 17  2  0  0  0  0
 14 25  1  0  0  0  0
 15 17  1  0  0  0  0
 15 26  1  0  0  0  0
 16 19  2  0  0  0  0
 16 27  1  0  0  0  0
 17 28  1  0  0  0  0
 19 30  1  0  0  0  0
 21 22  1  0  0  0  0
 22 32  1  0  0  0  0
 23 24  2  0  0  0  0
 23 33  1  0  0  0  0
 24 34  1  0  0  0  0
M  END
> <PUBCHEM_COMPOUND_CID>
24859013

> <PUBCHEM_CONFORMER_RMSD>
0.8

> <PUBCHEM_CONFORMER_DIVERSEORDER>
1
11
20
17
16
9
13
7
10
18
2
12
8
19
14
6
15
4
3
5

> <PUBCHEM_MMFF94_PARTIAL_CHARGES>
33
1 -0.34
11 0.31
12 0.12
13 -0.14
14 -0.15
15 -0.15
16 -0.15
17 -0.15
18 1.16
19 0.16
2 -0.34
20 0.69
21 0.43
22 0.16
23 0.16
24 0.16
25 0.15
26 0.15
27 0.15
28 0.15
29 0.37
3 -0.34
30 0.15
31 0.37
32 0.15
33 0.15
34 0.15
4 -0.57
5 -0.55
6 -0.62
7 -0.55
8 -0.62
9 -0.62

> <PUBCHEM_EFFECTIVE_ROTOR_COUNT>
5

> <PUBCHEM_PHARMACOPHORE_FEATURES>
8
1 4 acceptor
1 5 donor
1 6 acceptor
1 7 donor
1 9 acceptor
6 10 11 13 14 15 17 rings
6 6 10 11 12 16 19 rings
6 8 9 21 22 23 24 rings

> <PUBCHEM_HEAVY_ATOM_COUNT>
24

> <PUBCHEM_ATOM_DEF_STEREO_COUNT>
0

> <PUBCHEM_ATOM_UDEF_STEREO_COUNT>
0

> <PUBCHEM_BOND_DEF_STEREO_COUNT>
0

> <PUBCHEM_BOND_UDEF_STEREO_COUNT>
0

> <PUBCHEM_ISOTOPIC_ATOM_COUNT>
0

> <PUBCHEM_COMPONENT_COUNT>
1

> <PUBCHEM_CACTVS_TAUTO_COUNT>
11

> <PUBCHEM_CONFORMER_ID>
017B518500000001

> <PUBCHEM_MMFF94_ENERGY>
72.0692

> <PUBCHEM_FEATURE_SELFOVERLAP>
40.678

> <PUBCHEM_SHAPE_FINGERPRINT>
10 15 18130212849334940200
10411042 1 18122343756131960079
10595046 47 18335422383532900564
10835480 77 18341324604621465624
10906281 52 18270420346070975916
10968037 39 18408323297750132879
11315181 36 17989489644817089424
11524674 6 16845854606844725150
11578080 2 13684923518445098297
12236239 1 17822009809139626294
12516196 113 18130785672716853448
12616971 3 17167866408750587374
12760667 363 18272368672217497973
12788726 201 18335414613003737113
12838862 33 18337091415939430541
13288520 33 18411700988933590597
13402501 40 18343022194370749294
13533116 47 17632296727599978166
13862211 1 18412263965337434175
14251752 14 17967525753417321436
14251764 18 18272092720985435443
14341114 176 18410295817890506092
15021287 119 17458070373793326837
15042514 8 18336830909257186435
15183329 4 18409163299085853442
15196674 1 18338797934841365603
15849732 13 17749108894152371743
17492 89 17906732854060387339
17844677 252 18412269428704776096
17857418 61 18410855473646131398
21236236 1 18343021043414615457
21267235 1 18335987558036989619
2297311 6 18342462530140922004
23035841 295 18408322181391029882
23402539 116 18342171185302939759
23522609 53 18196683806648028432
23559900 14 18341324604120247384
3004659 81 18333168363210703722
335352 9 18410854374208389509
34797466 226 17846787325943370004
350125 39 18411419527248275480
3545911 37 18410855460676833484
4073 2 18114185298090786834
4214541 1 18410573968631140320
4325135 7 18334298687028813668
4463277 17 18409448094225030672
5104073 3 18341617082655055585
559249 180 18409164424230310183
59755656 215 18410012105077981630
59755656 520 16732700571016728547
6138700 20 18409448081530234215
67856867 119 18189902092353319804
7226269 152 18201439147535702857
999808 66 17967827080339822163

> <PUBCHEM_SHAPE_MULTIPOLES>
441.31
17.68
2.14
0.65
21.19
0.29
0
2.17
0.01
-1.33
0
-0.37
-0.06
0

> <PUBCHEM_SHAPE_SELFOVERLAP>
974.292

> <PUBCHEM_SHAPE_VOLUME>
235.8

> <PUBCHEM_COORDINATE_TYPE>
2
5
10

$$$$
