49830306
  -OEChem-10052115193D

 43 45  0     0  0  0  0  0  0999 V2000
    0.3967   -4.4417   -1.0021 F   0  0  0  0  0  0  0  0  0  0  0  0
    2.6948   -0.5486    0.1140 N   0  0  0  0  0  0  0  0  0  0  0  0
    4.2290    1.9705   -1.8711 N   0  0  0  0  0  0  0  0  0  0  0  0
    1.5578   -2.5298   -0.4569 N   0  0  0  0  0  0  0  0  0  0  0  0
   -4.0578   -0.2534    1.4471 N   0  0  0  0  0  0  0  0  0  0  0  0
   -4.8004    1.7270    0.2938 N   0  0  0  0  0  0  0  0  0  0  0  0
    4.2221    1.3545    0.5811 C   0  0  0  0  0  0  0  0  0  0  0  0
    2.7667    0.8239    0.5607 C   0  0  0  0  0  0  0  0  0  0  0  0
    4.9135    1.2430   -0.8057 C   0  0  0  0  0  0  0  0  0  0  0  0
    4.1900    2.8258    1.0474 C   0  0  0  0  0  0  0  0  0  0  0  0
    5.0599    0.5564    1.6032 C   0  0  0  0  0  0  0  0  0  0  0  0
    1.5080   -1.2479   -0.0303 C   0  0  0  0  0  0  0  0  0  0  0  0
   -0.8646   -1.2661    0.1339 C   0  0  0  0  0  0  0  0  0  0  0  0
   -2.1091   -0.6176    0.4368 C   0  0  0  0  0  0  0  0  0  0  0  0
    0.3348   -0.5770    0.2751 C   0  0  0  0  0  0  0  0  0  0  0  0
   -2.6970    0.5415   -0.1353 C   0  0  0  0  0  0  0  0  0  0  0  0
   -3.9105    0.7414    0.5166 C   0  0  0  0  0  0  0  0  0  0  0  0
   -2.9686   -1.0847    1.4076 C   0  0  0  0  0  0  0  0  0  0  0  0
   -0.8542   -2.5864   -0.3024 C   0  0  0  0  0  0  0  0  0  0  0  0
    0.3722   -3.1674   -0.5820 C   0  0  0  0  0  0  0  0  0  0  0  0
   -2.3440    1.4582   -1.1390 C   0  0  0  0  0  0  0  0  0  0  0  0
   -3.2300    2.4991   -1.4106 C   0  0  0  0  0  0  0  0  0  0  0  0
   -4.4093    2.5794   -0.6821 C   0  0  0  0  0  0  0  0  0  0  0  0
    2.3484    0.9071    1.5726 H   0  0  0  0  0  0  0  0  0  0  0  0
    2.1692    1.4643   -0.1008 H   0  0  0  0  0  0  0  0  0  0  0  0
    5.9388    1.6276   -0.7350 H   0  0  0  0  0  0  0  0  0  0  0  0
    5.0032    0.1941   -1.1088 H   0  0  0  0  0  0  0  0  0  0  0  0
    3.8044    2.9053    2.0706 H   0  0  0  0  0  0  0  0  0  0  0  0
    5.1935    3.2658    1.0373 H   0  0  0  0  0  0  0  0  0  0  0  0
    3.5464    3.4423    0.4110 H   0  0  0  0  0  0  0  0  0  0  0  0
    4.5974    0.5769    2.5964 H   0  0  0  0  0  0  0  0  0  0  0  0
    6.0673    0.9779    1.6991 H   0  0  0  0  0  0  0  0  0  0  0  0
    5.1735   -0.4925    1.3099 H   0  0  0  0  0  0  0  0  0  0  0  0
    3.5424   -1.0583   -0.1038 H   0  0  0  0  0  0  0  0  0  0  0  0
    4.2416    2.9695   -1.6719 H   0  0  0  0  0  0  0  0  0  0  0  0
    4.7434    1.8519   -2.7431 H   0  0  0  0  0  0  0  0  0  0  0  0
    0.3084    0.4499    0.6232 H   0  0  0  0  0  0  0  0  0  0  0  0
   -2.9094   -1.9320    2.0778 H   0  0  0  0  0  0  0  0  0  0  0  0
   -1.7672   -3.1592   -0.4301 H   0  0  0  0  0  0  0  0  0  0  0  0
   -4.8485   -0.3570    2.0677 H   0  0  0  0  0  0  0  0  0  0  0  0
   -1.4145    1.3677   -1.6918 H   0  0  0  0  0  0  0  0  0  0  0  0
   -3.0016    3.2320   -2.1770 H   0  0  0  0  0  0  0  0  0  0  0  0
   -5.1117    3.3846   -0.8809 H   0  0  0  0  0  0  0  0  0  0  0  0
  1 20  1  0  0  0  0
  2  8  1  0  0  0  0
  2 12  1  0  0  0  0
  2 34  1  0  0  0  0
  3  9  1  0  0  0  0
  3 35  1  0  0  0  0
  3 36  1  0  0  0  0
  4 12  2  0  0  0  0
  4 20  1  0  0  0  0
  5 17  1  0  0  0  0
  5 18  1  0  0  0  0
  5 40  1  0  0  0  0
  6 17  1  0  0  0  0
  6 23  2  0  0  0  0
  7  8  1  0  0  0  0
  7  9  1  0  0  0  0
  7 10  1  0  0  0  0
  7 11  1  0  0  0  0
  8 24  1  0  0  0  0
  8 25  1  0  0  0  0
  9 26  1  0  0  0  0
  9 27  1  0  0  0  0
 10 28  1  0  0  0  0
 10 29  1  0  0  0  0
 10 30  1  0  0  0  0
 11 31  1  0  0  0  0
 11 32  1  0  0  0  0
 11 33  1  0  0  0  0
 12 15  1  0  0  0  0
 13 14  1  0  0  0  0
 13 15  2  0  0  0  0
 13 19  1  0  0  0  0
 14 16  1  0  0  0  0
 14 18  2  0  0  0  0
 15 37  1  0  0  0  0
 16 17  2  0  0  0  0
 16 21  1  0  0  0  0
 18 38  1  0  0  0  0
 19 20  2  0  0  0  0
 19 39  1  0  0  0  0
 21 22  2  0  0  0  0
 21 41  1  0  0  0  0
 22 23  1  0  0  0  0
 22 42  1  0  0  0  0
 23 43  1  0  0  0  0
M  END
> <PUBCHEM_COMPOUND_CID>
49830306

> <PUBCHEM_CONFORMER_RMSD>
0.8

> <PUBCHEM_CONFORMER_DIVERSEORDER>
4
120
27
87
126
125
97
16
105
116
78
92
93
38
103
80
40
85
64
75
102
22
73
44
108
112
46
89
48
94
3
70
62
84
12
91
114
61
121
107
60
82
98
109
32
127
50
72
59
9
124
10
128
15
81
49
76
45
37
86
66
117
35
65
77
47
23
74
101
26
14
100
111
39
119
31
41
90
57
25
122
43
33
55
2
63
30
67
110
8
56
20
36
118
68
95
83
51
29
104
58
52
71
96
11
24
28
79
54
69
5
18
115
6
42
34
1
88
13
21
99
106
53
123
19
7
113
17

> <PUBCHEM_MMFF94_PARTIAL_CHARGES>
29
1 -0.19
12 0.41
13 0.05
14 -0.05
15 -0.15
17 0.11
18 -0.3
19 -0.15
2 -0.87
20 0.5
21 -0.15
22 -0.15
23 0.16
3 -0.99
34 0.4
35 0.36
36 0.36
37 0.15
38 0.15
39 0.15
4 -0.62
40 0.27
41 0.15
42 0.15
43 0.15
5 0.03
6 -0.57
8 0.37
9 0.27

> <PUBCHEM_EFFECTIVE_ROTOR_COUNT>
5

> <PUBCHEM_PHARMACOPHORE_FEATURES>
11
1 2 donor
1 3 cation
1 3 donor
1 5 cation
1 5 donor
1 6 acceptor
3 2 4 12 cation
3 7 10 11 hydrophobe
5 5 14 16 17 18 rings
6 4 12 13 15 19 20 rings
6 6 16 17 21 22 23 rings

> <PUBCHEM_HEAVY_ATOM_COUNT>
23

> <PUBCHEM_ATOM_DEF_STEREO_COUNT>
0

> <PUBCHEM_ATOM_UDEF_STEREO_COUNT>
0

> <PUBCHEM_BOND_DEF_STEREO_COUNT>
0

> <PUBCHEM_BOND_UDEF_STEREO_COUNT>
0

> <PUBCHEM_ISOTOPIC_ATOM_COUNT>
0

> <PUBCHEM_COMPONENT_COUNT>
1

> <PUBCHEM_CACTVS_TAUTO_COUNT>
13

> <PUBCHEM_CONFORMER_ID>
02F859A200000004

> <PUBCHEM_MMFF94_ENERGY>
60.1033

> <PUBCHEM_FEATURE_SELFOVERLAP>
55.933

> <PUBCHEM_SHAPE_FINGERPRINT>
10165383 225 18271823353268208179
10319926 262 17894911776589477266
105312 117 18341893034783831884
10670039 82 18189065338181777916
11552529 35 16662902594170807682
11595378 159 16009034942976073204
12173636 292 18267860764996626726
12403259 118 18186513332659117472
12403259 415 18411146805019047866
12422481 6 17821724996973840284
12549972 3 17389970875697255131
12596602 18 15864355791166105201
12633257 1 16950001421995799917
12769317 202 18272078358150788696
12892183 10 17676486172359447906
12978246 48 18333734649652906236
13134695 92 17620188733207896567
13544653 18 8358262548921231034
13583140 156 16878765146227389978
14251764 30 13757208874731037525
14341114 328 17022904583641581216
14468879 13 18333453119025431873
14932701 244 16984306326531955037
14950920 106 16950552342173126096
15403338 16 16660907933622138137
17980427 23 17676774253412357503
1813 80 12468923022651429306
20645477 56 18270406121640529450
21033648 29 18342449379025408944
21302155 148 18187930629091776116
23559900 14 18124029035903496219
27216 239 18333728044203396169
312425 83 14979687580480475000
314173 85 11025788804158683226
3298306 158 18412824668511172188
3729539 64 17983607159610828326
474 4 18271236106595167795
5104073 3 18189060789964022169
621550 34 18337684031485471979
633830 44 17489601051399399576
7064713 232 18333731329579681780
7399639 24 18409459076831388515
7808743 9 18120100726277217436
9862522 239 18334848454746369588
9925002 15 17689443010770901855
9981440 41 18338505374875960979

> <PUBCHEM_SHAPE_MULTIPOLES>
441.15
10.81
4
1.37
5.84
2.88
0.03
-10.98
-1.75
-0.17
1.66
0.42
-0.42
1.3

> <PUBCHEM_SHAPE_SELFOVERLAP>
956.444

> <PUBCHEM_SHAPE_VOLUME>
244.7

> <PUBCHEM_COORDINATE_TYPE>
2
5
10

$$$$
