25100740
  -OEChem-10052115193D

 58 62  0     0  0  0  0  0  0999 V2000
    2.9830    1.3176    1.3508 O   0  0  0  0  0  0  0  0  0  0  0  0
   -1.8643   -1.9775    1.8297 O   0  0  0  0  0  0  0  0  0  0  0  0
   -1.7292   -0.4330    3.4918 O   0  0  0  0  0  0  0  0  0  0  0  0
   -1.3637    1.5264    1.2694 N   0  0  0  0  0  0  0  0  0  0  0  0
   -1.6308    2.2188    0.1100 C   0  0  0  0  0  0  0  0  0  0  0  0
   -2.5764    0.1604    0.0084 C   0  0  0  0  0  0  0  0  0  0  0  0
   -0.5620    2.0632    2.4283 C   0  0  0  0  0  0  0  0  0  0  0  0
   -2.3949    1.3792   -0.7034 C   0  0  0  0  0  0  0  0  0  0  0  0
   -1.9310    0.2814    1.2175 C   0  0  0  0  0  0  0  0  0  0  0  0
    0.8774    1.5456    2.4738 C   0  0  0  0  0  0  0  0  0  0  0  0
   -3.2875   -1.0232   -0.3911 C   0  0  0  0  0  0  0  0  0  0  0  0
   -1.2583    3.5109   -0.2771 C   0  0  0  0  0  0  0  0  0  0  0  0
   -2.8084    1.8500   -1.9653 C   0  0  0  0  0  0  0  0  0  0  0  0
    1.6585    1.8185    1.1937 C   0  0  0  0  0  0  0  0  0  0  0  0
   -2.6449   -2.0514   -1.0806 C   0  0  0  0  0  0  0  0  0  0  0  0
   -1.8330   -0.6832    2.2746 C   0  0  0  0  0  0  0  0  0  0  0  0
   -1.6800    3.9564   -1.5332 C   0  0  0  0  0  0  0  0  0  0  0  0
   -2.4431    3.1404   -2.3659 C   0  0  0  0  0  0  0  0  0  0  0  0
   -4.6422   -1.1339   -0.0777 C   0  0  0  0  0  0  0  0  0  0  0  0
   -3.3570   -3.1902   -1.4569 C   0  0  0  0  0  0  0  0  0  0  0  0
   -1.1943   -1.9690   -1.4341 C   0  0  0  0  0  0  0  0  0  0  0  0
   -5.3544   -2.2728   -0.4542 C   0  0  0  0  0  0  0  0  0  0  0  0
    3.6102    0.8656    0.2250 C   0  0  0  0  0  0  0  0  0  0  0  0
   -4.7118   -3.3008   -1.1438 C   0  0  0  0  0  0  0  0  0  0  0  0
    4.0522   -0.4632    0.1173 C   0  0  0  0  0  0  0  0  0  0  0  0
    4.6975   -0.8837   -1.0700 C   0  0  0  0  0  0  0  0  0  0  0  0
    3.8021    1.7669   -0.8226 C   0  0  0  0  0  0  0  0  0  0  0  0
    3.8678   -1.3839    1.1617 C   0  0  0  0  0  0  0  0  0  0  0  0
    4.8817    0.0369   -2.1146 C   0  0  0  0  0  0  0  0  0  0  0  0
    4.4364    1.3533   -1.9904 C   0  0  0  0  0  0  0  0  0  0  0  0
    5.1393   -2.2123   -1.1781 C   0  0  0  0  0  0  0  0  0  0  0  0
    4.3134   -2.7000    1.0373 C   0  0  0  0  0  0  0  0  0  0  0  0
    4.9479   -3.1135   -0.1303 C   0  0  0  0  0  0  0  0  0  0  0  0
   -0.5731    3.1538    2.3382 H   0  0  0  0  0  0  0  0  0  0  0  0
   -1.1174    1.8283    3.3396 H   0  0  0  0  0  0  0  0  0  0  0  0
    0.8845    0.4658    2.6667 H   0  0  0  0  0  0  0  0  0  0  0  0
    1.3994    2.0002    3.3246 H   0  0  0  0  0  0  0  0  0  0  0  0
   -0.6610    4.1568    0.3566 H   0  0  0  0  0  0  0  0  0  0  0  0
   -3.4032    1.2264   -2.6267 H   0  0  0  0  0  0  0  0  0  0  0  0
    1.7096    2.8966    1.0055 H   0  0  0  0  0  0  0  0  0  0  0  0
    1.1711    1.3308    0.3412 H   0  0  0  0  0  0  0  0  0  0  0  0
   -1.4064    4.9548   -1.8650 H   0  0  0  0  0  0  0  0  0  0  0  0
   -2.7587    3.5086   -3.3385 H   0  0  0  0  0  0  0  0  0  0  0  0
   -5.1599   -0.3424    0.4594 H   0  0  0  0  0  0  0  0  0  0  0  0
   -2.8730   -4.0013   -1.9944 H   0  0  0  0  0  0  0  0  0  0  0  0
   -0.8577   -2.8629   -1.9711 H   0  0  0  0  0  0  0  0  0  0  0  0
   -0.5702   -1.8827   -0.5395 H   0  0  0  0  0  0  0  0  0  0  0  0
   -1.0060   -1.1135   -2.0912 H   0  0  0  0  0  0  0  0  0  0  0  0
   -6.4092   -2.3590   -0.2103 H   0  0  0  0  0  0  0  0  0  0  0  0
   -5.2664   -4.1875   -1.4368 H   0  0  0  0  0  0  0  0  0  0  0  0
   -1.7970   -2.6174    2.5701 H   0  0  0  0  0  0  0  0  0  0  0  0
    3.4706    2.7984   -0.7397 H   0  0  0  0  0  0  0  0  0  0  0  0
    3.3750   -1.0936    2.0871 H   0  0  0  0  0  0  0  0  0  0  0  0
    5.3755   -0.2643   -3.0362 H   0  0  0  0  0  0  0  0  0  0  0  0
    4.5872    2.0557   -2.8049 H   0  0  0  0  0  0  0  0  0  0  0  0
    5.6376   -2.5575   -2.0816 H   0  0  0  0  0  0  0  0  0  0  0  0
    4.1643   -3.4023    1.8523 H   0  0  0  0  0  0  0  0  0  0  0  0
    5.2944   -4.1384   -0.2265 H   0  0  0  0  0  0  0  0  0  0  0  0
  1 14  1  0  0  0  0
  1 23  1  0  0  0  0
  2 16  1  0  0  0  0
  2 51  1  0  0  0  0
  3 16  2  0  0  0  0
  4  5  1  0  0  0  0
  4  7  1  0  0  0  0
  4  9  1  0  0  0  0
  5  8  1  0  0  0  0
  5 12  2  0  0  0  0
  6  8  1  0  0  0  0
  6  9  2  0  0  0  0
  6 11  1  0  0  0  0
  7 10  1  0  0  0  0
  7 34  1  0  0  0  0
  7 35  1  0  0  0  0
  8 13  2  0  0  0  0
  9 16  1  0  0  0  0
 10 14  1  0  0  0  0
 10 36  1  0  0  0  0
 10 37  1  0  0  0  0
 11 15  1  0  0  0  0
 11 19  2  0  0  0  0
 12 17  1  0  0  0  0
 12 38  1  0  0  0  0
 13 18  1  0  0  0  0
 13 39  1  0  0  0  0
 14 40  1  0  0  0  0
 14 41  1  0  0  0  0
 15 20  2  0  0  0  0
 15 21  1  0  0  0  0
 17 18  2  0  0  0  0
 17 42  1  0  0  0  0
 18 43  1  0  0  0  0
 19 22  1  0  0  0  0
 19 44  1  0  0  0  0
 20 24  1  0  0  0  0
 20 45  1  0  0  0  0
 21 46  1  0  0  0  0
 21 47  1  0  0  0  0
 21 48  1  0  0  0  0
 22 24  2  0  0  0  0
 22 49  1  0  0  0  0
 23 25  1  0  0  0  0
 23 27  2  0  0  0  0
 24 50  1  0  0  0  0
 25 26  1  0  0  0  0
 25 28  2  0  0  0  0
 26 29  1  0  0  0  0
 26 31  2  0  0  0  0
 27 30  1  0  0  0  0
 27 52  1  0  0  0  0
 28 32  1  0  0  0  0
 28 53  1  0  0  0  0
 29 30  2  0  0  0  0
 29 54  1  0  0  0  0
 30 55  1  0  0  0  0
 31 33  1  0  0  0  0
 31 56  1  0  0  0  0
 32 33  2  0  0  0  0
 32 57  1  0  0  0  0
 33 58  1  0  0  0  0
M  END
> <PUBCHEM_COMPOUND_CID>
25100740

> <PUBCHEM_CONFORMER_RMSD>
1

> <PUBCHEM_CONFORMER_DIVERSEORDER>
1
101
144
60
171
162
151
103
82
112
69
13
54
211
27
187
184
210
115
215
15
87
166
136
134
34
199
237
88
148
104
59
76
77
170
241
186
83
79
23
223
95
185
52
153
28
5
142
179
175
37
152
21
12
119
120
157
145
201
11
45
192
3
207
173
176
155
35
230
164
194
98
74
113
177
4
224
141
122
6
29
222
202
99
149
236
38
91
46
108
85
121
128
221
205
65
229
97
58
238
42
106
63
40
200
158
225
213
139
16
39
90
92
64
212
19
165
53
226
7
172
70
240
138
107
94
100
18
22
75
235
203
66
196
161
105
182
48
51
72
17
32
117
84
219
68
10
67
183
143
131
89
55
14
180
126
218
2
118
78
193
25
109
178
81
43
231
167
214
26
129
86
209
123
110
181
31
163
132
8
114
220
217
9
127
146
24
156
102
160
33
174
30
125
135
206
44
73
116
154
93
228
159
96
61
50
208
71
197
49
188
36
198
20
150
111
190
195
140
168
233
62
124
56
133
189
239
191
169
57
204
227
80
47
147
232
234
41
216
130
137

> <PUBCHEM_MMFF94_PARTIAL_CHARGES>
45
1 -0.36
11 0.05
12 -0.15
13 -0.15
14 0.28
15 -0.14
16 0.81
17 -0.15
18 -0.15
19 -0.15
2 -0.65
20 -0.15
21 0.14
22 -0.15
23 0.08
24 -0.15
27 -0.15
28 -0.15
29 -0.15
3 -0.57
30 -0.15
31 -0.15
32 -0.15
33 -0.15
38 0.15
39 0.15
4 0.05
42 0.15
43 0.15
44 0.15
45 0.15
49 0.15
5 -0.15
50 0.15
51 0.5
52 0.15
53 0.15
54 0.15
55 0.15
56 0.15
57 0.15
58 0.15
6 -0.05
7 0.26
9 -0.24

> <PUBCHEM_EFFECTIVE_ROTOR_COUNT>
7

> <PUBCHEM_PHARMACOPHORE_FEATURES>
10
1 1 acceptor
1 2 acceptor
1 3 acceptor
1 4 cation
3 2 3 16 anion
5 4 5 6 8 9 rings
6 11 15 19 20 22 24 rings
6 23 25 26 27 29 30 rings
6 25 26 28 31 32 33 rings
6 5 8 12 13 17 18 rings

> <PUBCHEM_HEAVY_ATOM_COUNT>
33

> <PUBCHEM_ATOM_DEF_STEREO_COUNT>
0

> <PUBCHEM_ATOM_UDEF_STEREO_COUNT>
0

> <PUBCHEM_BOND_DEF_STEREO_COUNT>
0

> <PUBCHEM_BOND_UDEF_STEREO_COUNT>
0

> <PUBCHEM_ISOTOPIC_ATOM_COUNT>
0

> <PUBCHEM_COMPONENT_COUNT>
1

> <PUBCHEM_CACTVS_TAUTO_COUNT>
1

> <PUBCHEM_CONFORMER_ID>
017F01C400000001

> <PUBCHEM_MMFF94_ENERGY>
101.4258

> <PUBCHEM_FEATURE_SELFOVERLAP>
50.923

> <PUBCHEM_SHAPE_FINGERPRINT>
10764073 3 17632028485565102093
10928967 22 18200891612109461618
11434127 23 17096676321182226370
11445158 3 16597844104850805125
12788726 201 17822561798458360261
12977781 61 17984105285421910280
131258 38 16481887864275328399
13383668 40 17916844903043636376
13560911 43 18408038529177636550
13690498 29 18336836290618931166
14114206 34 15864634934534276196
14279260 333 16012696154411184130
14347332 77 18335416846465747854
14910302 57 18341039774615666765
150020 26 14546528334751512244
15475509 8 18334570283601835741
15664445 248 17975683210457009908
16989378 47 17909248519680426175
17809404 112 18129361740908252786
1813 80 18046327894073305549
20764821 26 17627819442962833278
20775530 9 18058727043159134846
21475661 188 7996599119660499595
21792965 302 17983865768287000292
312425 83 17749959860592216428
354706 35 18041844059817262290
4394409 98 17545303199689404606
44062 13 18338230440918066326
469060 322 18265897049977008028
484985 159 17915470406060490499
508180 173 13121331398292682818
508706 21 18056764213261560366
9831232 110 17761760064374889119

> <PUBCHEM_SHAPE_MULTIPOLES>
656.54
11.69
4.73
2.71
10.32
0.48
1.33
-9.92
-5.07
-2.99
-1.96
-0.28
1.01
-0.22

> <PUBCHEM_SHAPE_SELFOVERLAP>
1464.324

> <PUBCHEM_SHAPE_VOLUME>
350.7

> <PUBCHEM_COORDINATE_TYPE>
2
5
10

$$$$
