18451199
  -OEChem-10052115183D

 49 53  0     0  0  0  0  0  0999 V2000
   -4.4882   -0.5087    1.8917 S   0  0  0  0  0  0  0  0  0  0  0  0
    8.4097    2.8038    0.7260 F   0  0  0  0  0  0  0  0  0  0  0  0
   -9.1175    0.0210    0.2991 O   0  0  0  0  0  0  0  0  0  0  0  0
    4.1677    0.8166    0.4744 O   0  0  0  0  0  0  0  0  0  0  0  0
   -4.1439    0.7332   -2.3979 N   0  0  0  0  0  0  0  0  0  0  0  0
   -1.8241    0.2911   -2.2941 N   0  0  0  0  0  0  0  0  0  0  0  0
    3.2671   -1.2656   -0.1111 N   0  0  0  0  0  0  0  0  0  0  0  0
    5.5514   -0.9382   -0.2149 N   0  0  0  0  0  0  0  0  0  0  0  0
   -3.2305   -0.0585   -0.3216 C   0  0  0  0  0  0  0  0  0  0  0  0
   -2.2607   -0.5188    0.6306 C   0  0  0  0  0  0  0  0  0  0  0  0
   -4.5078   -0.0047    0.2436 C   0  0  0  0  0  0  0  0  0  0  0  0
   -5.6154    0.4171   -0.5015 C   0  0  0  0  0  0  0  0  0  0  0  0
   -0.8440   -0.7111    0.4399 C   0  0  0  0  0  0  0  0  0  0  0  0
   -3.0846    0.3234   -1.6646 C   0  0  0  0  0  0  0  0  0  0  0  0
   -2.8082   -0.7956    1.8608 C   0  0  0  0  0  0  0  0  0  0  0  0
   -6.9301    0.4796    0.0603 C   0  0  0  0  0  0  0  0  0  0  0  0
   -5.3577    0.7702   -1.8143 C   0  0  0  0  0  0  0  0  0  0  0  0
    0.0413    0.3363    0.6947 C   0  0  0  0  0  0  0  0  0  0  0  0
   -0.3589   -1.9433    0.0017 C   0  0  0  0  0  0  0  0  0  0  0  0
    1.8967   -1.0809    0.0735 C   0  0  0  0  0  0  0  0  0  0  0  0
    1.4115    0.1514    0.5116 C   0  0  0  0  0  0  0  0  0  0  0  0
    1.0113   -2.1282   -0.1815 C   0  0  0  0  0  0  0  0  0  0  0  0
   -7.4240    1.2229    1.1589 C   0  0  0  0  0  0  0  0  0  0  0  0
   -7.9987   -0.2353   -0.4285 C   0  0  0  0  0  0  0  0  0  0  0  0
   -8.7592    0.9093    1.2630 C   0  0  0  0  0  0  0  0  0  0  0  0
    4.3189   -0.3386    0.0901 C   0  0  0  0  0  0  0  0  0  0  0  0
    6.8413   -0.3606   -0.1475 C   0  0  0  0  0  0  0  0  0  0  0  0
    6.9922    0.9637    0.2641 C   0  0  0  0  0  0  0  0  0  0  0  0
    7.9620   -1.1156   -0.4933 C   0  0  0  0  0  0  0  0  0  0  0  0
    8.2639    1.5328    0.3300 C   0  0  0  0  0  0  0  0  0  0  0  0
    9.2337   -0.5463   -0.4274 C   0  0  0  0  0  0  0  0  0  0  0  0
    9.3847    0.7778   -0.0158 C   0  0  0  0  0  0  0  0  0  0  0  0
   -2.3091   -1.1542    2.7515 H   0  0  0  0  0  0  0  0  0  0  0  0
   -6.1526    1.1142   -2.4712 H   0  0  0  0  0  0  0  0  0  0  0  0
   -0.3219    1.3032    1.0356 H   0  0  0  0  0  0  0  0  0  0  0  0
   -1.0357   -2.7696   -0.2027 H   0  0  0  0  0  0  0  0  0  0  0  0
    2.0301    1.0101    0.7295 H   0  0  0  0  0  0  0  0  0  0  0  0
    1.3753   -3.0936   -0.5240 H   0  0  0  0  0  0  0  0  0  0  0  0
   -6.8831    1.9080    1.7967 H   0  0  0  0  0  0  0  0  0  0  0  0
   -8.1273   -0.9351   -1.2424 H   0  0  0  0  0  0  0  0  0  0  0  0
   -0.9809    0.0016   -1.8292 H   0  0  0  0  0  0  0  0  0  0  0  0
   -1.7738    0.5769   -3.2635 H   0  0  0  0  0  0  0  0  0  0  0  0
    3.5440   -2.1899   -0.4325 H   0  0  0  0  0  0  0  0  0  0  0  0
   -9.5497    1.2176    1.9315 H   0  0  0  0  0  0  0  0  0  0  0  0
    5.5239   -1.9067   -0.5235 H   0  0  0  0  0  0  0  0  0  0  0  0
    6.1765    1.6127    0.5481 H   0  0  0  0  0  0  0  0  0  0  0  0
    7.8584   -2.1484   -0.8158 H   0  0  0  0  0  0  0  0  0  0  0  0
   10.1065   -1.1340   -0.6966 H   0  0  0  0  0  0  0  0  0  0  0  0
   10.3747    1.2212    0.0358 H   0  0  0  0  0  0  0  0  0  0  0  0
  1 11  1  0  0  0  0
  1 15  1  0  0  0  0
  2 30  1  0  0  0  0
  3 24  1  0  0  0  0
  3 25  1  0  0  0  0
  4 26  2  0  0  0  0
  5 14  2  0  0  0  0
  5 17  1  0  0  0  0
  6 14  1  0  0  0  0
  6 41  1  0  0  0  0
  6 42  1  0  0  0  0
  7 20  1  0  0  0  0
  7 26  1  0  0  0  0
  7 43  1  0  0  0  0
  8 26  1  0  0  0  0
  8 27  1  0  0  0  0
  8 45  1  0  0  0  0
  9 10  1  0  0  0  0
  9 11  2  0  0  0  0
  9 14  1  0  0  0  0
 10 13  1  0  0  0  0
 10 15  2  0  0  0  0
 11 12  1  0  0  0  0
 12 16  1  0  0  0  0
 12 17  2  0  0  0  0
 13 18  2  0  0  0  0
 13 19  1  0  0  0  0
 15 33  1  0  0  0  0
 16 23  1  0  0  0  0
 16 24  2  0  0  0  0
 17 34  1  0  0  0  0
 18 21  1  0  0  0  0
 18 35  1  0  0  0  0
 19 22  2  0  0  0  0
 19 36  1  0  0  0  0
 20 21  2  0  0  0  0
 20 22  1  0  0  0  0
 21 37  1  0  0  0  0
 22 38  1  0  0  0  0
 23 25  2  0  0  0  0
 23 39  1  0  0  0  0
 24 40  1  0  0  0  0
 25 44  1  0  0  0  0
 27 28  2  0  0  0  0
 27 29  1  0  0  0  0
 28 30  1  0  0  0  0
 28 46  1  0  0  0  0
 29 31  2  0  0  0  0
 29 47  1  0  0  0  0
 30 32  2  0  0  0  0
 31 32  1  0  0  0  0
 31 48  1  0  0  0  0
 32 49  1  0  0  0  0
M  END
> <PUBCHEM_COMPOUND_CID>
18451199

> <PUBCHEM_CONFORMER_RMSD>
0.8

> <PUBCHEM_CONFORMER_DIVERSEORDER>
1
8
32
7
33
25
5
29
31
26
10
6
14
28
21
30
22
34
12
11
9
27
23
19
2
17
24
18
4
13
16
15
20
3

> <PUBCHEM_MMFF94_PARTIAL_CHARGES>
48
1 -0.08
10 -0.05
11 0.04
12 0.05
13 0.05
14 0.41
15 -0.11
16 -0.05
17 0.16
18 -0.15
19 -0.15
2 -0.19
20 0.12
21 -0.15
22 -0.15
23 -0.15
24 -0.01
25 -0.01
26 0.69
27 0.12
28 -0.15
29 -0.15
3 -0.28
30 0.19
31 -0.15
32 -0.15
33 0.15
34 0.15
35 0.15
36 0.15
37 0.15
38 0.15
39 0.15
4 -0.57
40 0.15
41 0.4
42 0.4
43 0.37
44 0.15
45 0.37
46 0.15
47 0.15
48 0.15
49 0.15
5 -0.62
6 -0.9
7 -0.55
8 -0.55

> <PUBCHEM_EFFECTIVE_ROTOR_COUNT>
6

> <PUBCHEM_PHARMACOPHORE_FEATURES>
11
1 3 acceptor
1 4 acceptor
1 6 donor
1 7 donor
1 8 donor
3 5 6 14 cation
5 1 9 10 11 15 rings
5 3 16 23 24 25 rings
6 13 18 19 20 21 22 rings
6 27 28 29 30 31 32 rings
6 5 9 11 12 14 17 rings

> <PUBCHEM_HEAVY_ATOM_COUNT>
32

> <PUBCHEM_ATOM_DEF_STEREO_COUNT>
0

> <PUBCHEM_ATOM_UDEF_STEREO_COUNT>
0

> <PUBCHEM_BOND_DEF_STEREO_COUNT>
0

> <PUBCHEM_BOND_UDEF_STEREO_COUNT>
0

> <PUBCHEM_ISOTOPIC_ATOM_COUNT>
0

> <PUBCHEM_COMPONENT_COUNT>
1

> <PUBCHEM_CACTVS_TAUTO_COUNT>
6

> <PUBCHEM_CONFORMER_ID>
01198AFF00000001

> <PUBCHEM_MMFF94_ENERGY>
97.1124

> <PUBCHEM_FEATURE_SELFOVERLAP>
55.936

> <PUBCHEM_SHAPE_FINGERPRINT>
10 15 17458343035275378826
10076449 9 17748829609672603493
10165383 225 18335139778832410091
10299344 5 16774077363013349726
10369192 42 18408600336606148967
10625338 86 17748821916969464628
106641 1 16225769614138798431
10674148 151 15482664676190738462
11315181 36 15985104124116535859
12082328 90 18131632274978977295
12089408 11 17346878944355358534
12236239 1 17274819130758458883
12664476 115 17894347787153944516
12838862 33 16660635268361667095
13560911 43 15791733001207443740
14251764 18 13984662551492497506
14251764 46 18343866610568359490
15183329 4 16272209700268450566
15419008 47 17967527978849522780
15461852 350 17561082531609681703
15510794 2 18041003929965222546
16728433 281 15839882707448122721
18643901 69 13110965327320230307
21033648 29 18115580578214292744
21150785 3 17203610376043541370
21360443 120 16845577487281357311
21792961 116 18040716922874896898
24771293 8 17603867759484202333
249057 3 17095529516862250766
3092352 35 17918270948166031287
395649 100 18337669823982187103
44280117 145 18265618877999634899
504579 68 16559032701283472992
54039377 194 16415473900836171367
58902169 19 17275097367309041428
59521270 166 15410620242443944809
59682541 35 17603588530020915409
6081469 158 14189578525023975776
6691757 9 14908187477930274295
67123 10 18344146994834315051
9953998 17 18040157331675766771

> <PUBCHEM_SHAPE_MULTIPOLES>
623.46
32.7
1.55
1.52
38.33
0.21
0.29
8.19
10.19
-1.08
-0.28
0.48
0.25
3.02

> <PUBCHEM_SHAPE_SELFOVERLAP>
1388.561

> <PUBCHEM_SHAPE_VOLUME>
336.7

> <PUBCHEM_COORDINATE_TYPE>
2
5
10

$$$$
