57412684
  -OEChem-10052120443D

 64 68  0     0  0  0  0  0  0999 V2000
    0.5607    4.4727    1.4102 S   0  0  0  0  0  0  0  0  0  0  0  0
    3.0917    2.7961    1.9239 S   0  0  0  0  0  0  0  0  0  0  0  0
   -8.7571   -5.4831   -0.0170 O   0  0  0  0  0  0  0  0  0  0  0  0
   -5.1370    1.1759   -0.0567 O   0  0  0  0  0  0  0  0  0  0  0  0
    4.6040   -0.6340   -0.8641 O   0  0  0  0  0  0  0  0  0  0  0  0
   -6.8766   -3.3469    0.0254 N   0  0  0  0  0  0  0  0  0  0  0  0
   -2.2294    4.3456   -2.1324 N   0  0  0  0  0  0  0  0  0  0  0  0
   -0.2648    5.1465   -0.9897 N   0  0  0  0  0  0  0  0  0  0  0  0
    6.2814   -0.7336    0.7623 N   0  0  0  0  0  0  0  0  0  0  0  0
    4.5636    0.8363    0.9677 N   0  0  0  0  0  0  0  0  0  0  0  0
    1.5689    2.4518   -0.1080 N   0  0  0  0  0  0  0  0  0  0  0  0
    2.5813    1.5174   -0.2370 N   0  0  0  0  0  0  0  0  0  0  0  0
   -8.2868   -3.1364    0.3815 C   0  0  0  0  0  0  0  0  0  0  0  0
   -6.4793   -4.7269    0.3368 C   0  0  0  0  0  0  0  0  0  0  0  0
   -6.0176   -2.3903    0.7204 C   0  0  0  0  0  0  0  0  0  0  0  0
   -9.1620   -4.1535   -0.3454 C   0  0  0  0  0  0  0  0  0  0  0  0
   -7.3967   -5.7061   -0.3900 C   0  0  0  0  0  0  0  0  0  0  0  0
   -6.0144   -1.0524   -0.0119 C   0  0  0  0  0  0  0  0  0  0  0  0
   -5.1094   -0.0402    0.6776 C   0  0  0  0  0  0  0  0  0  0  0  0
   -4.0104    1.9551   -0.0052 C   0  0  0  0  0  0  0  0  0  0  0  0
   -3.6741    2.7672   -1.0923 C   0  0  0  0  0  0  0  0  0  0  0  0
   -3.2030    1.9358    1.1267 C   0  0  0  0  0  0  0  0  0  0  0  0
   -2.5369    3.5710   -1.0774 C   0  0  0  0  0  0  0  0  0  0  0  0
   -1.7293    3.5429    0.0714 C   0  0  0  0  0  0  0  0  0  0  0  0
   -2.0607    2.7291    1.1686 C   0  0  0  0  0  0  0  0  0  0  0  0
   -0.6021    4.3593    0.0491 C   0  0  0  0  0  0  0  0  0  0  0  0
   -1.1103    5.0912   -2.0314 C   0  0  0  0  0  0  0  0  0  0  0  0
    7.1080   -1.7810    0.2913 C   0  0  0  0  0  0  0  0  0  0  0  0
    8.7365   -3.8466   -0.6379 C   0  0  0  0  0  0  0  0  0  0  0  0
    1.7153    3.1830    0.9762 C   0  0  0  0  0  0  0  0  0  0  0  0
    8.2451   -2.1496    1.0101 C   0  0  0  0  0  0  0  0  0  0  0  0
    6.7850   -2.4452   -0.8920 C   0  0  0  0  0  0  0  0  0  0  0  0
    9.0594   -3.1823    0.5455 C   0  0  0  0  0  0  0  0  0  0  0  0
    7.5994   -3.4779   -1.3566 C   0  0  0  0  0  0  0  0  0  0  0  0
    9.6073   -4.9514   -1.1338 C   0  0  0  0  0  0  0  0  0  0  0  0
    3.4421    1.5900    0.7557 C   0  0  0  0  0  0  0  0  0  0  0  0
    5.1081   -0.2295    0.1786 C   0  0  0  0  0  0  0  0  0  0  0  0
   -8.6230   -2.1334    0.1003 H   0  0  0  0  0  0  0  0  0  0  0  0
   -8.4276   -3.2496    1.4645 H   0  0  0  0  0  0  0  0  0  0  0  0
   -6.5378   -4.9035    1.4188 H   0  0  0  0  0  0  0  0  0  0  0  0
   -5.4471   -4.9100    0.0167 H   0  0  0  0  0  0  0  0  0  0  0  0
   -4.9821   -2.7563    0.7259 H   0  0  0  0  0  0  0  0  0  0  0  0
   -6.3083   -2.2676    1.7716 H   0  0  0  0  0  0  0  0  0  0  0  0
   -9.1232   -4.0169   -1.4331 H   0  0  0  0  0  0  0  0  0  0  0  0
  -10.2051   -4.0377   -0.0342 H   0  0  0  0  0  0  0  0  0  0  0  0
   -7.1400   -6.7334   -0.1125 H   0  0  0  0  0  0  0  0  0  0  0  0
   -7.2972   -5.6221   -1.4791 H   0  0  0  0  0  0  0  0  0  0  0  0
   -5.6815   -1.1856   -1.0498 H   0  0  0  0  0  0  0  0  0  0  0  0
   -7.0223   -0.6257   -0.0754 H   0  0  0  0  0  0  0  0  0  0  0  0
   -4.0983   -0.4660    0.7167 H   0  0  0  0  0  0  0  0  0  0  0  0
   -5.4648    0.1482    1.6974 H   0  0  0  0  0  0  0  0  0  0  0  0
   -4.3191    2.7679   -1.9696 H   0  0  0  0  0  0  0  0  0  0  0  0
   -3.4409    1.3416    2.0035 H   0  0  0  0  0  0  0  0  0  0  0  0
   -1.4585    2.6927    2.0715 H   0  0  0  0  0  0  0  0  0  0  0  0
   -0.8681    5.7129   -2.8847 H   0  0  0  0  0  0  0  0  0  0  0  0
    8.5076   -1.6404    1.9339 H   0  0  0  0  0  0  0  0  0  0  0  0
    5.9237   -2.2203   -1.5044 H   0  0  0  0  0  0  0  0  0  0  0  0
    9.9416   -3.4617    1.1153 H   0  0  0  0  0  0  0  0  0  0  0  0
    7.3374   -3.9900   -2.2789 H   0  0  0  0  0  0  0  0  0  0  0  0
    6.5808   -0.2976    1.6309 H   0  0  0  0  0  0  0  0  0  0  0  0
    9.2708   -5.9082   -0.7227 H   0  0  0  0  0  0  0  0  0  0  0  0
    9.5849   -5.0117   -2.2273 H   0  0  0  0  0  0  0  0  0  0  0  0
   10.6514   -4.7921   -0.8435 H   0  0  0  0  0  0  0  0  0  0  0  0
    5.0773    1.0770    1.8112 H   0  0  0  0  0  0  0  0  0  0  0  0
  1 26  1  0  0  0  0
  1 30  1  0  0  0  0
  2 30  1  0  0  0  0
  2 36  1  0  0  0  0
  3 16  1  0  0  0  0
  3 17  1  0  0  0  0
  4 19  1  0  0  0  0
  4 20  1  0  0  0  0
  5 37  2  0  0  0  0
  6 13  1  0  0  0  0
  6 14  1  0  0  0  0
  6 15  1  0  0  0  0
  7 23  1  0  0  0  0
  7 27  2  0  0  0  0
  8 26  2  0  0  0  0
  8 27  1  0  0  0  0
  9 28  1  0  0  0  0
  9 37  1  0  0  0  0
  9 60  1  0  0  0  0
 10 36  1  0  0  0  0
 10 37  1  0  0  0  0
 10 64  1  0  0  0  0
 11 12  1  0  0  0  0
 11 30  2  0  0  0  0
 12 36  2  0  0  0  0
 13 16  1  0  0  0  0
 13 38  1  0  0  0  0
 13 39  1  0  0  0  0
 14 17  1  0  0  0  0
 14 40  1  0  0  0  0
 14 41  1  0  0  0  0
 15 18  1  0  0  0  0
 15 42  1  0  0  0  0
 15 43  1  0  0  0  0
 16 44  1  0  0  0  0
 16 45  1  0  0  0  0
 17 46  1  0  0  0  0
 17 47  1  0  0  0  0
 18 19  1  0  0  0  0
 18 48  1  0  0  0  0
 18 49  1  0  0  0  0
 19 50  1  0  0  0  0
 19 51  1  0  0  0  0
 20 21  2  0  0  0  0
 20 22  1  0  0  0  0
 21 23  1  0  0  0  0
 21 52  1  0  0  0  0
 22 25  2  0  0  0  0
 22 53  1  0  0  0  0
 23 24  2  0  0  0  0
 24 25  1  0  0  0  0
 24 26  1  0  0  0  0
 25 54  1  0  0  0  0
 27 55  1  0  0  0  0
 28 31  2  0  0  0  0
 28 32  1  0  0  0  0
 29 33  2  0  0  0  0
 29 34  1  0  0  0  0
 29 35  1  0  0  0  0
 31 33  1  0  0  0  0
 31 56  1  0  0  0  0
 32 34  2  0  0  0  0
 32 57  1  0  0  0  0
 33 58  1  0  0  0  0
 34 59  1  0  0  0  0
 35 61  1  0  0  0  0
 35 62  1  0  0  0  0
 35 63  1  0  0  0  0
M  END
> <PUBCHEM_COMPOUND_CID>
57412684

> <PUBCHEM_CONFORMER_RMSD>
1.4

> <PUBCHEM_CONFORMER_DIVERSEORDER>
1
47
15
54
41
66
20
125
12
128
100
23
37
81
28
97
111
105
120
92
78
101
31
110
55
127
77
48
104
93
68
85
132
83
70
60
118
80
119
102
39
129
46
112
126
50
30
72
16
49
82
24
42
90
114
33
22
86
89
26
117
44
18
63
133
6
99
87
108
74
76
130
124
43
65
64
45
123
56
61
38
19
62
34
122
107
7
121
52
13
116
29
106
91
58
95
11
73
21
10
115
131
96
51
79
71
109
103
5
8
88
84
69
59
113
40
53
14
98
36
94
57
67
17
9
27
75
2
25
35
4
32
3

> <PUBCHEM_MMFF94_PARTIAL_CHARGES>
45
1 -0.16
10 -0.49
11 -0.34
12 -0.34
13 0.27
14 0.27
15 0.27
16 0.28
17 0.28
19 0.28
2 -0.08
20 0.08
21 -0.15
22 -0.15
23 0.31
25 -0.15
26 0.41
27 0.47
28 0.12
29 -0.14
3 -0.56
30 0.43
31 -0.15
32 -0.15
33 -0.15
34 -0.15
35 0.14
36 0.44
37 0.69
4 -0.36
5 -0.57
52 0.15
53 0.15
54 0.15
55 0.15
56 0.15
57 0.15
58 0.15
59 0.15
6 -0.81
60 0.37
64 0.37
7 -0.62
8 -0.62
9 -0.55

> <PUBCHEM_EFFECTIVE_ROTOR_COUNT>
12.2

> <PUBCHEM_PHARMACOPHORE_FEATURES>
14
1 10 donor
1 11 acceptor
1 3 acceptor
1 4 acceptor
1 5 acceptor
1 6 cation
1 8 acceptor
1 9 donor
3 7 8 27 cation
5 2 11 12 30 36 rings
6 20 21 22 23 24 25 rings
6 28 29 31 32 33 34 rings
6 3 6 13 14 16 17 rings
6 7 8 23 24 26 27 rings

> <PUBCHEM_HEAVY_ATOM_COUNT>
37

> <PUBCHEM_ATOM_DEF_STEREO_COUNT>
0

> <PUBCHEM_ATOM_UDEF_STEREO_COUNT>
0

> <PUBCHEM_BOND_DEF_STEREO_COUNT>
0

> <PUBCHEM_BOND_UDEF_STEREO_COUNT>
0

> <PUBCHEM_ISOTOPIC_ATOM_COUNT>
0

> <PUBCHEM_COMPONENT_COUNT>
1

> <PUBCHEM_CACTVS_TAUTO_COUNT>
5

> <PUBCHEM_CONFORMER_ID>
036C0C4C00000001

> <PUBCHEM_MMFF94_ENERGY>
98.3292

> <PUBCHEM_FEATURE_SELFOVERLAP>
71.124

> <PUBCHEM_SHAPE_FINGERPRINT>
10258705 36 18269838627992270566
11607047 191 16768742339439392065
117089 54 18410013264428676475
11761917 116 18410864269960602646
11828042 163 18335408047655280229
12013929 27 18333734607108649108
12124843 1 17894629275004526709
12717326 120 18338224961621485378
13165053 68 18410300190995324188
14344974 204 18412545384221516438
15152005 1 18411419544275755223
15152005 304 18340216270487869915
15152005 77 18270671087021930623
15455199 99 18267022936810512698
155225 6 9115425279537738179
16067689 68 18130801027520187299
19053607 189 8358263592318748324
19301676 85 18189899910510460003
21307412 95 18261944177517900309
21360442 43 17978511928127812428
21796203 349 16988837281624386880
21867126 195 18411702101805478234
229767 8 18411702109920061531
23569914 152 11603915235792143680
23569943 247 18339930428721150291
255183 451 18117273864776461861
44802255 64 17470727706877299116
46848820 9 18200311164802726447
636775 72 9078528414279065250
636783 25 9046738784811231459
6441014 3 18411136944006037275
9980921 52 17913476120593314071
999808 66 17772460198108767332

> <PUBCHEM_SHAPE_MULTIPOLES>
716.67
32.47
11.38
1.47
26.19
4.8
0.28
84.11
1.84
-14.53
2.95
0.88
-1.75
4.73

> <PUBCHEM_SHAPE_SELFOVERLAP>
1511.299

> <PUBCHEM_SHAPE_VOLUME>
402.7

> <PUBCHEM_COORDINATE_TYPE>
2
5
10

$$$$
