16086104
  -OEChem-10062122003D

 70 74  0     0  0  0  0  0  0999 V2000
   -8.1179    0.8530    0.6605 F   0  0  0  0  0  0  0  0  0  0  0  0
   -7.5910   -0.9739   -0.3830 F   0  0  0  0  0  0  0  0  0  0  0  0
   -7.1775   -0.7816    1.7432 F   0  0  0  0  0  0  0  0  0  0  0  0
   -2.0409    2.0401   -0.5652 O   0  0  0  0  0  0  0  0  0  0  0  0
   -3.2978   -2.8540    0.0931 O   0  0  0  0  0  0  0  0  0  0  0  0
    1.1112    3.8885   -0.5350 N   0  0  0  0  0  0  0  0  0  0  0  0
   -2.3449   -0.7355   -0.2683 N   0  0  0  0  0  0  0  0  0  0  0  0
    5.9855    0.2724    1.1391 N   0  0  0  0  0  0  0  0  0  0  0  0
    6.1335    1.0942   -1.1214 N   0  0  0  0  0  0  0  0  0  0  0  0
    7.7102    1.7261    0.4918 N   0  0  0  0  0  0  0  0  0  0  0  0
   -1.5181    2.9672    0.3833 C   0  0  0  0  0  0  0  0  0  0  0  0
   -0.2120    2.4374    0.9727 C   0  0  0  0  0  0  0  0  0  0  0  0
   -1.3104    4.3310   -0.2730 C   0  0  0  0  0  0  0  0  0  0  0  0
    0.9513    2.5218   -0.0204 C   0  0  0  0  0  0  0  0  0  0  0  0
   -0.1059    4.3441   -1.2197 C   0  0  0  0  0  0  0  0  0  0  0  0
    2.2629    3.9653   -1.4337 C   0  0  0  0  0  0  0  0  0  0  0  0
   -3.2727    1.5055   -0.2921 C   0  0  0  0  0  0  0  0  0  0  0  0
   -3.4329    0.1317   -0.1429 C   0  0  0  0  0  0  0  0  0  0  0  0
   -4.3619    2.3617   -0.1650 C   0  0  0  0  0  0  0  0  0  0  0  0
   -4.6954   -0.3916    0.1363 C   0  0  0  0  0  0  0  0  0  0  0  0
   -5.6245    1.8386    0.1143 C   0  0  0  0  0  0  0  0  0  0  0  0
   -5.7912    0.4620    0.2650 C   0  0  0  0  0  0  0  0  0  0  0  0
   -2.3374   -2.1304   -0.1477 C   0  0  0  0  0  0  0  0  0  0  0  0
   -1.0077   -2.7753   -0.3077 C   0  0  0  0  0  0  0  0  0  0  0  0
   -7.1413   -0.0971    0.5629 C   0  0  0  0  0  0  0  0  0  0  0  0
    1.3724   -2.6582   -0.1482 C   0  0  0  0  0  0  0  0  0  0  0  0
    0.1251   -2.0523    0.0025 C   0  0  0  0  0  0  0  0  0  0  0  0
    1.4584   -3.9732   -0.6055 C   0  0  0  0  0  0  0  0  0  0  0  0
    2.5643   -1.9005    0.1773 C   0  0  0  0  0  0  0  0  0  0  0  0
   -0.9505   -4.0763   -0.7615 C   0  0  0  0  0  0  0  0  0  0  0  0
    0.2969   -4.6822   -0.9121 C   0  0  0  0  0  0  0  0  0  0  0  0
    3.1931   -1.1366   -0.7988 C   0  0  0  0  0  0  0  0  0  0  0  0
    3.0809   -1.9339    1.4661 C   0  0  0  0  0  0  0  0  0  0  0  0
    4.3478   -0.4022   -0.4777 C   0  0  0  0  0  0  0  0  0  0  0  0
    2.7772   -4.6557   -0.7794 C   0  0  0  0  0  0  0  0  0  0  0  0
    4.8817   -0.4263    0.8211 C   0  0  0  0  0  0  0  0  0  0  0  0
    4.2297   -1.2007    1.7775 C   0  0  0  0  0  0  0  0  0  0  0  0
    5.0266    0.3825   -1.4057 C   0  0  0  0  0  0  0  0  0  0  0  0
    6.5512    0.9948    0.1509 C   0  0  0  0  0  0  0  0  0  0  0  0
    8.2717    1.7198    1.8061 C   0  0  0  0  0  0  0  0  0  0  0  0
   -2.2193    3.0934    1.2200 H   0  0  0  0  0  0  0  0  0  0  0  0
    0.0431    3.0215    1.8663 H   0  0  0  0  0  0  0  0  0  0  0  0
   -0.3349    1.3946    1.2877 H   0  0  0  0  0  0  0  0  0  0  0  0
   -2.2023    4.6255   -0.8373 H   0  0  0  0  0  0  0  0  0  0  0  0
   -1.1539    5.0856    0.5087 H   0  0  0  0  0  0  0  0  0  0  0  0
    0.7879    1.8108   -0.8413 H   0  0  0  0  0  0  0  0  0  0  0  0
    1.8656    2.2101    0.4995 H   0  0  0  0  0  0  0  0  0  0  0  0
    0.0322    5.3709   -1.5799 H   0  0  0  0  0  0  0  0  0  0  0  0
   -0.3187    3.7182   -2.0964 H   0  0  0  0  0  0  0  0  0  0  0  0
    3.1798    3.6724   -0.9099 H   0  0  0  0  0  0  0  0  0  0  0  0
    2.4143    4.9940   -1.7791 H   0  0  0  0  0  0  0  0  0  0  0  0
    2.1469    3.3194   -2.3117 H   0  0  0  0  0  0  0  0  0  0  0  0
   -4.2532    3.4349   -0.2895 H   0  0  0  0  0  0  0  0  0  0  0  0
   -4.9006   -1.4445    0.2657 H   0  0  0  0  0  0  0  0  0  0  0  0
   -6.4662    2.5191    0.2084 H   0  0  0  0  0  0  0  0  0  0  0  0
   -1.4795   -0.2648   -0.5171 H   0  0  0  0  0  0  0  0  0  0  0  0
    0.0844   -1.0425    0.4000 H   0  0  0  0  0  0  0  0  0  0  0  0
   -1.8443   -4.6402   -1.0106 H   0  0  0  0  0  0  0  0  0  0  0  0
    0.3447   -5.7069   -1.2709 H   0  0  0  0  0  0  0  0  0  0  0  0
    2.7952   -1.1033   -1.8116 H   0  0  0  0  0  0  0  0  0  0  0  0
    2.6055   -2.5244    2.2458 H   0  0  0  0  0  0  0  0  0  0  0  0
    2.6574   -5.6810   -1.1471 H   0  0  0  0  0  0  0  0  0  0  0  0
    3.3106   -4.7190    0.1746 H   0  0  0  0  0  0  0  0  0  0  0  0
    3.3958   -4.1249   -1.5104 H   0  0  0  0  0  0  0  0  0  0  0  0
    4.6159   -1.2424    2.7943 H   0  0  0  0  0  0  0  0  0  0  0  0
    4.6881    0.4643   -2.4345 H   0  0  0  0  0  0  0  0  0  0  0  0
    8.1429    2.2720   -0.2437 H   0  0  0  0  0  0  0  0  0  0  0  0
    7.5626    2.1107    2.5430 H   0  0  0  0  0  0  0  0  0  0  0  0
    9.1620    2.3559    1.8324 H   0  0  0  0  0  0  0  0  0  0  0  0
    8.5759    0.7109    2.1034 H   0  0  0  0  0  0  0  0  0  0  0  0
  1 25  1  0  0  0  0
  2 25  1  0  0  0  0
  3 25  1  0  0  0  0
  4 11  1  0  0  0  0
  4 17  1  0  0  0  0
  5 23  2  0  0  0  0
  6 14  1  0  0  0  0
  6 15  1  0  0  0  0
  6 16  1  0  0  0  0
  7 18  1  0  0  0  0
  7 23  1  0  0  0  0
  7 56  1  0  0  0  0
  8 36  2  0  0  0  0
  8 39  1  0  0  0  0
  9 38  1  0  0  0  0
  9 39  2  0  0  0  0
 10 39  1  0  0  0  0
 10 40  1  0  0  0  0
 10 67  1  0  0  0  0
 11 12  1  0  0  0  0
 11 13  1  0  0  0  0
 11 41  1  0  0  0  0
 12 14  1  0  0  0  0
 12 42  1  0  0  0  0
 12 43  1  0  0  0  0
 13 15  1  0  0  0  0
 13 44  1  0  0  0  0
 13 45  1  0  0  0  0
 14 46  1  0  0  0  0
 14 47  1  0  0  0  0
 15 48  1  0  0  0  0
 15 49  1  0  0  0  0
 16 50  1  0  0  0  0
 16 51  1  0  0  0  0
 16 52  1  0  0  0  0
 17 18  2  0  0  0  0
 17 19  1  0  0  0  0
 18 20  1  0  0  0  0
 19 21  2  0  0  0  0
 19 53  1  0  0  0  0
 20 22  2  0  0  0  0
 20 54  1  0  0  0  0
 21 22  1  0  0  0  0
 21 55  1  0  0  0  0
 22 25  1  0  0  0  0
 23 24  1  0  0  0  0
 24 27  2  0  0  0  0
 24 30  1  0  0  0  0
 26 27  1  0  0  0  0
 26 28  2  0  0  0  0
 26 29  1  0  0  0  0
 27 57  1  0  0  0  0
 28 31  1  0  0  0  0
 28 35  1  0  0  0  0
 29 32  2  0  0  0  0
 29 33  1  0  0  0  0
 30 31  2  0  0  0  0
 30 58  1  0  0  0  0
 31 59  1  0  0  0  0
 32 34  1  0  0  0  0
 32 60  1  0  0  0  0
 33 37  2  0  0  0  0
 33 61  1  0  0  0  0
 34 36  1  0  0  0  0
 34 38  2  0  0  0  0
 35 62  1  0  0  0  0
 35 63  1  0  0  0  0
 35 64  1  0  0  0  0
 36 37  1  0  0  0  0
 37 65  1  0  0  0  0
 38 66  1  0  0  0  0
 40 68  1  0  0  0  0
 40 69  1  0  0  0  0
 40 70  1  0  0  0  0
M  END
> <PUBCHEM_COMPOUND_CID>
16086104

> <PUBCHEM_CONFORMER_RMSD>
1

> <PUBCHEM_CONFORMER_DIVERSEORDER>
1
110
52
39
79
10
62
6
137
102
9
21
17
95
65
43
88
96
109
12
23
135
36
63
64
93
84
90
55
70
8
82
126
99
77
35
108
51
111
4
15
3
119
83
138
44
74
121
33
136
5
91
67
40
14
7
106
125
103
98
41
59
115
105
19
28
117
16
20
29
86
58
22
101
34
13
80
37
89
32
54
53
129
94
75
26
131
11
78
27
107
87
47
76
56
132
30
71
114
123
133
25
92
60
127
45
69
120
72
100
31
104
81
85
112
46
118
68
38
57
61
42
130
122
18
48
24
113
124
97
2
50
116
49
134
128
66
73

> <PUBCHEM_MMFF94_PARTIAL_CHARGES>
47
1 -0.34
10 -0.87
11 0.28
14 0.27
15 0.27
16 0.27
17 0.08
18 0.12
19 -0.15
2 -0.34
20 -0.15
21 -0.15
22 -0.14
23 0.54
24 0.09
25 1.16
27 -0.15
28 -0.14
3 -0.34
30 -0.15
31 -0.15
32 -0.15
33 -0.15
35 0.14
36 0.31
37 -0.15
38 0.16
39 0.72
4 -0.36
40 0.37
5 -0.57
53 0.15
54 0.15
55 0.15
56 0.37
57 0.15
58 0.15
59 0.15
6 -0.81
60 0.15
61 0.15
65 0.15
66 0.15
67 0.4
7 -0.55
8 -0.62
9 -0.62

> <PUBCHEM_EFFECTIVE_ROTOR_COUNT>
9.2

> <PUBCHEM_PHARMACOPHORE_FEATURES>
12
1 10 donor
1 4 acceptor
1 5 acceptor
1 6 cation
1 7 donor
1 8 acceptor
4 8 9 10 39 cation
6 17 18 19 20 21 22 rings
6 24 26 27 28 30 31 rings
6 29 32 33 34 36 37 rings
6 6 11 12 13 14 15 rings
6 8 9 34 36 38 39 rings

> <PUBCHEM_HEAVY_ATOM_COUNT>
40

> <PUBCHEM_ATOM_DEF_STEREO_COUNT>
0

> <PUBCHEM_ATOM_UDEF_STEREO_COUNT>
0

> <PUBCHEM_BOND_DEF_STEREO_COUNT>
0

> <PUBCHEM_BOND_UDEF_STEREO_COUNT>
0

> <PUBCHEM_ISOTOPIC_ATOM_COUNT>
0

> <PUBCHEM_COMPONENT_COUNT>
1

> <PUBCHEM_CACTVS_TAUTO_COUNT>
6

> <PUBCHEM_CONFORMER_ID>
00F5745800000001

> <PUBCHEM_MMFF94_ENERGY>
126.2922

> <PUBCHEM_FEATURE_SELFOVERLAP>
60.929

> <PUBCHEM_SHAPE_FINGERPRINT>
10258939 38 17895472510102981192
10290309 65 18338792295850188214
10581848 127 18053682277832720073
10864689 126 18340770347903456020
10939801 23 18336263526897548200
11017883 126 17896607369617721509
11513181 2 18129942269820556030
12677640 9 18053664956556272239
12838862 33 18339065060411857981
13111901 25 18335423525102969753
1361 2 18410860949344331569
14020679 6 17967535718000307979
14068700 686 18196652900009917229
14294032 229 18129941307621799959
14394314 77 18340489971995696745
15001296 14 18261395606676726556
15150948 74 18412258450029739784
15274700 208 17345737729465720704
15297060 5 18201435900687925386
15320467 1 18410578383256368148
15538507 32 18341329002768534992
15890870 6 18409171017152536646
15927050 60 17979080714440278757
15961568 22 18336830779885720407
19611394 137 18114762511330320907
20764821 26 18266171914798440884
21033648 29 17987784341575899154
22149856 69 18197514943792566891
24771293 8 18272368672802924121
24771750 20 17971771101436764405
3383291 50 18340772628092707395
463206 1 18264494060403263612
469060 322 18194977248916411833
6679774 75 18188768473720229747
9961470 85 17761770667778392756

> <PUBCHEM_SHAPE_MULTIPOLES>
764.72
18.4
6.65
1.26
4.26
1.13
0.24
-7.27
7.04
-1.6
-2.58
-1.51
-0.22
0.43

> <PUBCHEM_SHAPE_SELFOVERLAP>
1676.378

> <PUBCHEM_SHAPE_VOLUME>
415.9

> <PUBCHEM_COORDINATE_TYPE>
2
5
10

$$$$
