46215814
  -OEChem-10052115143D

 27 29  0     0  0  0  0  0  0999 V2000
    3.0098   -1.4789    0.7739 N   0  0  0  0  0  0  0  0  0  0  0  0
    4.2057   -0.8951    0.5900 N   0  0  0  0  0  0  0  0  0  0  0  0
    4.7860    1.2215   -0.3670 N   0  0  0  0  0  0  0  0  0  0  0  0
   -2.4022    0.7308    0.4811 N   0  0  0  0  0  0  0  0  0  0  0  0
   -4.4020   -0.4541   -0.1545 N   0  0  0  0  0  0  0  0  0  0  0  0
   -4.5167    1.4780    1.1714 N   0  0  0  0  0  0  0  0  0  0  0  0
    1.9481   -0.7325    0.3386 C   0  0  0  0  0  0  0  0  0  0  0  0
    2.5058    0.4348   -0.1709 C   0  0  0  0  0  0  0  0  0  0  0  0
   -0.2524    0.0160   -0.1855 C   0  0  0  0  0  0  0  0  0  0  0  0
    0.5734   -0.9783    0.3488 C   0  0  0  0  0  0  0  0  0  0  0  0
    1.6631    1.4243   -0.7042 C   0  0  0  0  0  0  0  0  0  0  0  0
    0.2810    1.1976   -0.7035 C   0  0  0  0  0  0  0  0  0  0  0  0
    3.8951    0.2688    0.0148 C   0  0  0  0  0  0  0  0  0  0  0  0
   -1.6862   -0.1863   -0.2019 C   0  0  0  0  0  0  0  0  0  0  0  0
   -2.2486   -1.2507   -0.8766 C   0  0  0  0  0  0  0  0  0  0  0  0
   -3.6247   -1.3351   -0.8180 C   0  0  0  0  0  0  0  0  0  0  0  0
   -3.7351    0.5392    0.4635 C   0  0  0  0  0  0  0  0  0  0  0  0
    0.1780   -1.9015    0.7609 H   0  0  0  0  0  0  0  0  0  0  0  0
    2.0624    2.3481   -1.1117 H   0  0  0  0  0  0  0  0  0  0  0  0
   -0.3685    1.9646   -1.1212 H   0  0  0  0  0  0  0  0  0  0  0  0
    2.9862   -2.3944    1.2055 H   0  0  0  0  0  0  0  0  0  0  0  0
   -1.6660   -1.9797   -1.4263 H   0  0  0  0  0  0  0  0  0  0  0  0
    4.5097    2.0963   -0.8023 H   0  0  0  0  0  0  0  0  0  0  0  0
    5.7854    1.1033   -0.2336 H   0  0  0  0  0  0  0  0  0  0  0  0
   -4.1565   -2.1370   -1.3188 H   0  0  0  0  0  0  0  0  0  0  0  0
   -4.0616    2.2413    1.6526 H   0  0  0  0  0  0  0  0  0  0  0  0
   -5.5220    1.3757    1.1884 H   0  0  0  0  0  0  0  0  0  0  0  0
  1  2  1  0  0  0  0
  1  7  1  0  0  0  0
  1 21  1  0  0  0  0
  2 13  2  0  0  0  0
  3 13  1  0  0  0  0
  3 23  1  0  0  0  0
  3 24  1  0  0  0  0
  4 14  2  0  0  0  0
  4 17  1  0  0  0  0
  5 16  1  0  0  0  0
  5 17  2  0  0  0  0
  6 17  1  0  0  0  0
  6 26  1  0  0  0  0
  6 27  1  0  0  0  0
  7  8  2  0  0  0  0
  7 10  1  0  0  0  0
  8 11  1  0  0  0  0
  8 13  1  0  0  0  0
  9 10  2  0  0  0  0
  9 12  1  0  0  0  0
  9 14  1  0  0  0  0
 10 18  1  0  0  0  0
 11 12  2  0  0  0  0
 11 19  1  0  0  0  0
 12 20  1  0  0  0  0
 14 15  1  0  0  0  0
 15 16  2  0  0  0  0
 15 22  1  0  0  0  0
 16 25  1  0  0  0  0
M  END
> <PUBCHEM_COMPOUND_CID>
46215814

> <PUBCHEM_CONFORMER_RMSD>
0.6

> <PUBCHEM_CONFORMER_DIVERSEORDER>
1
2
3

> <PUBCHEM_MMFF94_PARTIAL_CHARGES>
25
1 0.3
10 -0.15
11 -0.15
12 -0.15
13 0.37
14 0.31
15 -0.15
16 0.16
17 0.72
18 0.15
19 0.15
2 -0.71
20 0.15
21 0.27
22 0.15
23 0.4
24 0.4
25 0.15
26 0.4
27 0.4
3 -0.88
4 -0.62
5 -0.62
6 -0.9
7 -0.15

> <PUBCHEM_EFFECTIVE_ROTOR_COUNT>
1

> <PUBCHEM_PHARMACOPHORE_FEATURES>
9
1 1 donor
1 3 donor
1 4 acceptor
1 6 donor
3 2 3 13 cation
4 4 5 6 17 cation
5 1 2 7 8 13 rings
6 4 5 14 15 16 17 rings
6 7 8 9 10 11 12 rings

> <PUBCHEM_HEAVY_ATOM_COUNT>
17

> <PUBCHEM_ATOM_DEF_STEREO_COUNT>
0

> <PUBCHEM_ATOM_UDEF_STEREO_COUNT>
0

> <PUBCHEM_BOND_DEF_STEREO_COUNT>
0

> <PUBCHEM_BOND_UDEF_STEREO_COUNT>
0

> <PUBCHEM_ISOTOPIC_ATOM_COUNT>
0

> <PUBCHEM_COMPONENT_COUNT>
1

> <PUBCHEM_CACTVS_TAUTO_COUNT>
67

> <PUBCHEM_CONFORMER_ID>
02C1328600000001

> <PUBCHEM_MMFF94_ENERGY>
46.1993

> <PUBCHEM_FEATURE_SELFOVERLAP>
45.762

> <PUBCHEM_SHAPE_FINGERPRINT>
10062212 137 18413384350205568807
10616163 171 18270680994915669375
10912923 1 18410852174552163546
11471102 20 18040994064150341534
11578080 2 18123998391486328013
11806522 49 18263075664284968998
12107183 9 17836649617300319579
12236239 1 18411698799006619855
12251169 10 18411700976249057869
12500047 106 17275382105780103303
12670546 56 18272362096701760549
13167823 11 18341611537826155287
13581323 91 17704068516658557727
13675066 3 18040720242520755973
13705890 14 14490468652108709490
13760787 19 18201720652012558390
13760787 5 17967532372267866710
14144814 61 18409164415734918391
14252887 29 17530685390214129944
14445660 50 18413671300838093083
14576447 43 18265603471550680118
15375462 189 18261387828179184530
16945 1 17822008735635146820
1813 80 17895767183845898046
18186145 218 17894347774311038858
18785283 64 16372718346743182004
19026448 4 16630526254272135022
19026448 5 18342454850465025170
19050596 39 18411134727560377762
19422 9 18411416228338715967
200 152 18338226159400265735
20279233 1 16008744719050629915
20281475 54 18410002235095240782
20645477 56 17560808714970947673
20645477 70 17822275860715288402
21065198 48 18412825780923506707
21267235 1 18409736174539942607
2255824 54 18188211008845778428
23402539 116 17561075896180641077
23402655 69 18335697239041978749
23557571 272 16702312273396590749
23559900 14 17203340961709375868
300161 21 18412819196490754533
34797466 226 16916232216293862020
474 4 18045218495141151148
4990 188 18060430118546980692
5104073 3 18410008849101972546
573450 72 18201432575961244627
602551 16 16629671989334889614
77492 1 18412263960657143671
77779 3 18272370879783215366
84936 182 18053667163763533792
9981440 41 17256802820197993481

> <PUBCHEM_SHAPE_MULTIPOLES>
319.97
9.31
1.52
0.91
0.56
0.04
0
0.67
-1.18
0.08
0.01
0.4
0.04
-1.49

> <PUBCHEM_SHAPE_SELFOVERLAP>
718.986

> <PUBCHEM_SHAPE_VOLUME>
163.9

> <PUBCHEM_COORDINATE_TYPE>
2
5
10

$$$$
