5289419
  -OEChem-10062121573D

 29 31  0     0  0  0  0  0  0999 V2000
    4.3496   -1.4952    0.0057 O   0  0  0  0  0  0  0  0  0  0  0  0
   -1.9553    1.9838   -0.0360 O   0  0  0  0  0  0  0  0  0  0  0  0
    0.3833    2.3143    0.0131 N   0  0  0  0  0  0  0  0  0  0  0  0
   -3.2919   -0.8056    1.0739 N   0  0  0  0  0  0  0  0  0  0  0  0
   -4.8174   -0.6510   -0.5326 N   0  0  0  0  0  0  0  0  0  0  0  0
    1.1029    0.1304   -0.0185 C   0  0  0  0  0  0  0  0  0  0  0  0
    1.4996    1.4705    0.0156 C   0  0  0  0  0  0  0  0  0  0  0  0
   -0.3557    0.1488   -0.0439 C   0  0  0  0  0  0  0  0  0  0  0  0
   -0.8069    1.5806   -0.0229 C   0  0  0  0  0  0  0  0  0  0  0  0
    2.0421   -0.8835   -0.0230 C   0  0  0  0  0  0  0  0  0  0  0  0
    2.8277    1.8481    0.0465 C   0  0  0  0  0  0  0  0  0  0  0  0
   -1.1997   -0.8841   -0.0796 C   0  0  0  0  0  0  0  0  0  0  0  0
    3.3936   -0.5231    0.0076 C   0  0  0  0  0  0  0  0  0  0  0  0
    3.7824    0.8295    0.0420 C   0  0  0  0  0  0  0  0  0  0  0  0
   -2.6714   -0.7969   -0.1038 C   0  0  0  0  0  0  0  0  0  0  0  0
   -3.5599   -0.7056   -1.0797 C   0  0  0  0  0  0  0  0  0  0  0  0
   -4.6207   -0.7139    0.7655 C   0  0  0  0  0  0  0  0  0  0  0  0
    3.8978   -2.8470   -0.0298 C   0  0  0  0  0  0  0  0  0  0  0  0
    0.4458    3.3253    0.0344 H   0  0  0  0  0  0  0  0  0  0  0  0
    1.6859   -1.9057   -0.0499 H   0  0  0  0  0  0  0  0  0  0  0  0
    3.1255    2.8900    0.0729 H   0  0  0  0  0  0  0  0  0  0  0  0
   -0.8055   -1.8978   -0.0939 H   0  0  0  0  0  0  0  0  0  0  0  0
    4.8383    1.0879    0.0658 H   0  0  0  0  0  0  0  0  0  0  0  0
   -2.8920   -0.8650    2.0024 H   0  0  0  0  0  0  0  0  0  0  0  0
   -3.4144   -0.6716   -2.1495 H   0  0  0  0  0  0  0  0  0  0  0  0
   -5.3872   -0.6971    1.5273 H   0  0  0  0  0  0  0  0  0  0  0  0
    3.3522   -3.0657   -0.9540 H   0  0  0  0  0  0  0  0  0  0  0  0
    3.3197   -3.1026    0.8648 H   0  0  0  0  0  0  0  0  0  0  0  0
    4.7876   -3.4851   -0.0269 H   0  0  0  0  0  0  0  0  0  0  0  0
  1 13  1  0  0  0  0
  1 18  1  0  0  0  0
  2  9  2  0  0  0  0
  3  7  1  0  0  0  0
  3  9  1  0  0  0  0
  3 19  1  0  0  0  0
  4 15  1  0  0  0  0
  4 17  1  0  0  0  0
  4 24  1  0  0  0  0
  5 16  1  0  0  0  0
  5 17  2  0  0  0  0
  6  7  2  0  0  0  0
  6  8  1  0  0  0  0
  6 10  1  0  0  0  0
  7 11  1  0  0  0  0
  8  9  1  0  0  0  0
  8 12  2  0  0  0  0
 10 13  2  0  0  0  0
 10 20  1  0  0  0  0
 11 14  2  0  0  0  0
 11 21  1  0  0  0  0
 12 15  1  0  0  0  0
 12 22  1  0  0  0  0
 13 14  1  0  0  0  0
 14 23  1  0  0  0  0
 15 16  2  0  0  0  0
 16 25  1  0  0  0  0
 17 26  1  0  0  0  0
 18 27  1  0  0  0  0
 18 28  1  0  0  0  0
 18 29  1  0  0  0  0
M  END
> <PUBCHEM_COMPOUND_CID>
5289419

> <PUBCHEM_CONFORMER_RMSD>
0.6

> <PUBCHEM_CONFORMER_DIVERSEORDER>
1
3
4
2

> <PUBCHEM_MMFF94_PARTIAL_CHARGES>
26
1 -0.36
10 -0.15
11 -0.15
12 -0.11
13 0.08
14 -0.15
15 -0.2
16 0.08
17 0.04
18 0.28
19 0.37
2 -0.57
20 0.15
21 0.15
22 0.15
23 0.15
24 0.27
25 0.15
26 0.15
3 -0.55
4 0.03
5 -0.57
6 0.03
7 0.12
8 -0.01
9 0.62

> <PUBCHEM_EFFECTIVE_ROTOR_COUNT>
2.2

> <PUBCHEM_PHARMACOPHORE_FEATURES>
8
1 1 acceptor
1 2 acceptor
1 3 donor
1 4 donor
3 4 5 17 cation
5 3 6 7 8 9 rings
5 4 5 15 16 17 rings
6 6 7 10 11 13 14 rings

> <PUBCHEM_HEAVY_ATOM_COUNT>
18

> <PUBCHEM_ATOM_DEF_STEREO_COUNT>
0

> <PUBCHEM_ATOM_UDEF_STEREO_COUNT>
0

> <PUBCHEM_BOND_DEF_STEREO_COUNT>
1

> <PUBCHEM_BOND_UDEF_STEREO_COUNT>
0

> <PUBCHEM_ISOTOPIC_ATOM_COUNT>
0

> <PUBCHEM_COMPONENT_COUNT>
1

> <PUBCHEM_CACTVS_TAUTO_COUNT>
7

> <PUBCHEM_CONFORMER_ID>
0050B5CB00000001

> <PUBCHEM_MMFF94_ENERGY>
67.1464

> <PUBCHEM_FEATURE_SELFOVERLAP>
40.685

> <PUBCHEM_SHAPE_FINGERPRINT>
10618630 7 18409730672649653388
10967382 1 18338797926636487934
11471102 20 18337668727809848084
12032990 46 18408324380087192140
12236239 1 17918277588981697963
12553582 1 18413103957566171022
12670546 56 17703791444139474105
13134695 92 18271521000487665413
13140716 1 17836643394098773400
13533116 47 18272370910270174755
13544653 18 18409167718448594695
13675066 3 18187363289702032489
14115302 16 17604157015987033055
14252887 29 18408885174262436864
14576447 43 17913196843969653471
14790565 3 17761778768408699908
15042514 8 18050853208606931784
15196674 1 18410855447507276853
15375462 189 18130791208417904113
15442244 35 18341054021074922240
16945 1 18267020746465589172
18186145 218 17530678823077174417
193927 3 18335991865583466162
200 152 18201714068181017565
20281475 54 18343299309839376071
20645477 70 18335696169611270894
20871998 22 18411138022069331872
21267235 1 18411145723119916390
21279426 13 18263074423651298517
21501502 16 18340211804032410280
21501925 9 18410848859349035928
221490 88 18408042896874130692
22182313 1 18263060202624600476
23175994 123 18186240645628372261
23184049 59 18271812358120469887
23559900 14 18334294314261476104
26918003 58 18114176479636347267
2748010 2 18338505366238871428
2871803 45 18259982652334938178
3091708 16 9065995102308658160
312423 11 18338250279551477908
335352 9 18194682557956143989
33824 294 18410008884047318074
34934 24 18197773500053353300
465052 167 18343027713224617239
5104073 3 18340483362082395336
5281201 14 17821726147803016557
573450 72 17131836477950050899
7364860 26 18341328998351669936
83771 10 18412825784975711880
9709674 26 18335703853265422498

> <PUBCHEM_SHAPE_MULTIPOLES>
343.75
9.1
2.37
0.76
4.02
0.01
0
-4.86
-0.19
-2.46
0
0.64
-0.12
0.07

> <PUBCHEM_SHAPE_SELFOVERLAP>
767.284

> <PUBCHEM_SHAPE_VOLUME>
186.2

> <PUBCHEM_COORDINATE_TYPE>
2
5
10

$$$$
