24905300
  -OEChem-10052115153D

 39 42  0     0  0  0  0  0  0999 V2000
    5.8539    1.4584    0.5202 Cl  0  0  0  0  0  0  0  0  0  0  0  0
    4.2977    1.0745   -2.0215 O   0  0  0  0  0  0  0  0  0  0  0  0
   -1.9662    0.1248   -0.0125 N   0  0  0  0  0  0  0  0  0  0  0  0
   -0.8240    0.8311    0.0780 N   0  0  0  0  0  0  0  0  0  0  0  0
   -2.7164   -2.1741   -0.1330 N   0  0  0  0  0  0  0  0  0  0  0  0
   -0.8450   -3.7378   -0.0753 N   0  0  0  0  0  0  0  0  0  0  0  0
    1.4274   -3.0245    0.0828 N   0  0  0  0  0  0  0  0  0  0  0  0
   -3.2907    0.8527   -0.0657 C   0  0  0  0  0  0  0  0  0  0  0  0
   -3.4446    1.8151   -1.2620 C   0  0  0  0  0  0  0  0  0  0  0  0
   -3.5460    1.7057    1.1897 C   0  0  0  0  0  0  0  0  0  0  0  0
   -3.6237    3.2030   -0.6572 C   0  0  0  0  0  0  0  0  0  0  0  0
   -4.2900    2.9305    0.6798 C   0  0  0  0  0  0  0  0  0  0  0  0
   -1.7719   -1.2241   -0.0460 C   0  0  0  0  0  0  0  0  0  0  0  0
   -0.4031   -1.4147    0.0278 C   0  0  0  0  0  0  0  0  0  0  0  0
    0.1243   -0.1120    0.1022 C   0  0  0  0  0  0  0  0  0  0  0  0
    1.5110    0.2688    0.1959 C   0  0  0  0  0  0  0  0  0  0  0  0
    0.0542   -2.7281    0.0110 C   0  0  0  0  0  0  0  0  0  0  0  0
   -2.1557   -3.4027   -0.1411 C   0  0  0  0  0  0  0  0  0  0  0  0
    2.2531    0.4931   -0.9637 C   0  0  0  0  0  0  0  0  0  0  0  0
    2.1112    0.4127    1.4468 C   0  0  0  0  0  0  0  0  0  0  0  0
    3.5954    0.8616   -0.8725 C   0  0  0  0  0  0  0  0  0  0  0  0
    3.4535    0.7809    1.5380 C   0  0  0  0  0  0  0  0  0  0  0  0
    4.1956    1.0054    0.3784 C   0  0  0  0  0  0  0  0  0  0  0  0
   -4.0494    0.0643   -0.1408 H   0  0  0  0  0  0  0  0  0  0  0  0
   -4.3472    1.5456   -1.8240 H   0  0  0  0  0  0  0  0  0  0  0  0
   -2.6027    1.7840   -1.9608 H   0  0  0  0  0  0  0  0  0  0  0  0
   -2.6104    2.0152    1.6701 H   0  0  0  0  0  0  0  0  0  0  0  0
   -4.1300    1.1589    1.9371 H   0  0  0  0  0  0  0  0  0  0  0  0
   -4.2212    3.8596   -1.2960 H   0  0  0  0  0  0  0  0  0  0  0  0
   -2.6454    3.6734   -0.5030 H   0  0  0  0  0  0  0  0  0  0  0  0
   -4.2121    3.7789    1.3654 H   0  0  0  0  0  0  0  0  0  0  0  0
   -5.3520    2.6985    0.5370 H   0  0  0  0  0  0  0  0  0  0  0  0
   -2.8482   -4.2349   -0.2094 H   0  0  0  0  0  0  0  0  0  0  0  0
    1.7859    0.3805   -1.9400 H   0  0  0  0  0  0  0  0  0  0  0  0
    1.5466    0.2408    2.3603 H   0  0  0  0  0  0  0  0  0  0  0  0
    2.1205   -2.2937    0.1477 H   0  0  0  0  0  0  0  0  0  0  0  0
    1.7170   -3.9933    0.0676 H   0  0  0  0  0  0  0  0  0  0  0  0
    3.9070    0.8884    2.5201 H   0  0  0  0  0  0  0  0  0  0  0  0
    3.7137    0.9264   -2.7850 H   0  0  0  0  0  0  0  0  0  0  0  0
  1 23  1  0  0  0  0
  2 21  1  0  0  0  0
  2 39  1  0  0  0  0
  3  4  1  0  0  0  0
  3  8  1  0  0  0  0
  3 13  1  0  0  0  0
  4 15  2  0  0  0  0
  5 13  2  0  0  0  0
  5 18  1  0  0  0  0
  6 17  1  0  0  0  0
  6 18  2  0  0  0  0
  7 17  1  0  0  0  0
  7 36  1  0  0  0  0
  7 37  1  0  0  0  0
  8  9  1  0  0  0  0
  8 10  1  0  0  0  0
  8 24  1  0  0  0  0
  9 11  1  0  0  0  0
  9 25  1  0  0  0  0
  9 26  1  0  0  0  0
 10 12  1  0  0  0  0
 10 27  1  0  0  0  0
 10 28  1  0  0  0  0
 11 12  1  0  0  0  0
 11 29  1  0  0  0  0
 11 30  1  0  0  0  0
 12 31  1  0  0  0  0
 12 32  1  0  0  0  0
 13 14  1  0  0  0  0
 14 15  1  0  0  0  0
 14 17  2  0  0  0  0
 15 16  1  0  0  0  0
 16 19  2  0  0  0  0
 16 20  1  0  0  0  0
 18 33  1  0  0  0  0
 19 21  1  0  0  0  0
 19 34  1  0  0  0  0
 20 22  2  0  0  0  0
 20 35  1  0  0  0  0
 21 23  2  0  0  0  0
 22 23  1  0  0  0  0
 22 38  1  0  0  0  0
M  END
> <PUBCHEM_COMPOUND_CID>
24905300

> <PUBCHEM_CONFORMER_RMSD>
0.6

> <PUBCHEM_CONFORMER_DIVERSEORDER>
2
4
15
8
6
14
7
16
10
11
13
9
1
3
5
12

> <PUBCHEM_MMFF94_PARTIAL_CHARGES>
25
1 -0.18
13 0.11
15 0.23
16 0.05
17 0.41
18 0.47
19 -0.15
2 -0.53
20 -0.15
21 0.08
22 -0.15
23 0.18
3 0.31
33 0.15
34 0.15
35 0.15
36 0.4
37 0.4
38 0.15
39 0.45
4 -0.71
5 -0.57
6 -0.62
7 -0.9
8 0.26

> <PUBCHEM_EFFECTIVE_ROTOR_COUNT>
3

> <PUBCHEM_PHARMACOPHORE_FEATURES>
10
1 2 donor
1 4 acceptor
1 7 cation
1 7 donor
3 3 5 13 cation
3 5 6 18 cation
5 3 4 13 14 15 rings
5 8 9 10 11 12 rings
6 16 19 20 21 22 23 rings
6 5 6 13 14 17 18 rings

> <PUBCHEM_HEAVY_ATOM_COUNT>
23

> <PUBCHEM_ATOM_DEF_STEREO_COUNT>
0

> <PUBCHEM_ATOM_UDEF_STEREO_COUNT>
0

> <PUBCHEM_BOND_DEF_STEREO_COUNT>
0

> <PUBCHEM_BOND_UDEF_STEREO_COUNT>
0

> <PUBCHEM_ISOTOPIC_ATOM_COUNT>
0

> <PUBCHEM_COMPONENT_COUNT>
1

> <PUBCHEM_CACTVS_TAUTO_COUNT>
15

> <PUBCHEM_CONFORMER_ID>
017C065400000002

> <PUBCHEM_MMFF94_ENERGY>
55.6388

> <PUBCHEM_FEATURE_SELFOVERLAP>
51.026

> <PUBCHEM_SHAPE_FINGERPRINT>
10165383 225 18340221699674120153
10411042 1 17690276440406031187
105312 117 18411420592067816844
11049842 53 18263098677490037326
11582403 64 16482136147770642338
11725454 13 16985989558770090376
11796584 16 18342463630459814470
11833330 49 18049436247440678899
12107183 9 18263349314717217442
12173636 292 18410288146556578925
12236239 1 17604979502804322826
12390115 104 18343032077159030409
12422481 6 17825366515513614568
12500047 106 18413101784333363408
12788726 201 18046072828212311414
13134695 92 17184179545139647975
13140716 1 18265895744565711867
13878862 14 17472128480870501573
13965767 371 18114453453830749124
14178342 30 18337099172592423010
14508225 48 17838039765534557911
14713325 29 18336267950217958651
15021287 119 17313096454741814468
15042514 8 18120657096008737099
15081414 286 17333934153902799703
15230672 131 18336830789525921662
15842332 3 17822845498396344336
16752209 62 18265604562493381042
16988056 13 16821630957009789381
1741750 31 18411980247796860353
18785283 64 17974576792922098987
19784866 34 18270399374141880217
20510252 161 18199185281420430307
20739085 24 16759733946209004619
21033650 10 18190482613218019044
21065201 7 18341896355030960882
22149856 69 18120111494467584697
2255824 54 17836644128838718175
22907989 373 18192425492623025159
23366157 5 17971752164709632459
23557571 272 18129383868453570184
23559900 14 18202009820288364348
2748010 2 18338244756450752351
283562 15 18267014136832908027
3091708 16 9484575872173075307
458136 41 18195537986924608945
469060 322 18337122258542721409
474 4 18124305009490850065
495365 180 18050275973908853465
5048184 11 18409730634016163625
6327066 14 18261945267811735549
633830 44 17916024555921860525
6443956 14 17476635373913770370
77492 1 17604700218192276906
7808743 9 18409450323318929752
81228 2 18123469646810064755
84936 182 17984694516011449857
9862522 239 17967802808962745485
9981440 41 18336825291197058945

> <PUBCHEM_SHAPE_MULTIPOLES>
444.42
9.43
4.11
1.22
7.32
3.56
0.12
-9.82
-0.04
-4.78
0.15
0.82
-0.71
-0.12

> <PUBCHEM_SHAPE_SELFOVERLAP>
973.339

> <PUBCHEM_SHAPE_VOLUME>
242.9

> <PUBCHEM_COORDINATE_TYPE>
2
5
10

$$$$
