49830576
  -OEChem-10062121533D

 66 70  0     0  0  0  0  0  0999 V2000
   -5.4454   -1.5627    2.3454 S   0  0  0  0  0  0  0  0  0  0  0  0
   -0.9699    3.9156   -0.1361 O   0  0  0  0  0  0  0  0  0  0  0  0
    7.1925    1.6067    1.4722 O   0  0  0  0  0  0  0  0  0  0  0  0
    7.3962   -2.3049   -1.2838 O   0  0  0  0  0  0  0  0  0  0  0  0
    8.6820   -0.3509    0.1995 O   0  0  0  0  0  0  0  0  0  0  0  0
   -6.2455   -1.8885    3.5112 O   0  0  0  0  0  0  0  0  0  0  0  0
   -5.0874   -2.5894    1.3871 O   0  0  0  0  0  0  0  0  0  0  0  0
   -1.1078   -0.4088   -0.5489 N   0  0  0  0  0  0  0  0  0  0  0  0
    0.4282    2.1783   -0.1921 N   0  0  0  0  0  0  0  0  0  0  0  0
   -6.1596   -0.2081    1.5615 N   0  0  0  0  0  0  0  0  0  0  0  0
   -2.1702    0.4988   -0.5468 C   0  0  0  0  0  0  0  0  0  0  0  0
    0.2773   -0.2928   -0.4327 C   0  0  0  0  0  0  0  0  0  0  0  0
    0.9803    0.8937   -0.2695 C   0  0  0  0  0  0  0  0  0  0  0  0
   -2.0815    1.8847   -0.4115 C   0  0  0  0  0  0  0  0  0  0  0  0
   -4.6261    0.6834   -0.7190 C   0  0  0  0  0  0  0  0  0  0  0  0
   -3.4603   -0.0766   -0.6997 C   0  0  0  0  0  0  0  0  0  0  0  0
    3.0985   -0.3433   -0.2241 C   0  0  0  0  0  0  0  0  0  0  0  0
    2.3898    0.8541   -0.1663 C   0  0  0  0  0  0  0  0  0  0  0  0
   -5.9143    0.0462   -0.8776 C   0  0  0  0  0  0  0  0  0  0  0  0
   -0.8452    2.6888   -0.2416 C   0  0  0  0  0  0  0  0  0  0  0  0
    1.0180   -1.5000   -0.4886 C   0  0  0  0  0  0  0  0  0  0  0  0
   -3.2801    2.6438   -0.4337 C   0  0  0  0  0  0  0  0  0  0  0  0
   -4.5344    2.0540   -0.5852 C   0  0  0  0  0  0  0  0  0  0  0  0
    4.5406   -0.3456   -0.1143 C   0  0  0  0  0  0  0  0  0  0  0  0
    2.4076   -1.5298   -0.3862 C   0  0  0  0  0  0  0  0  0  0  0  0
   -6.6496   -0.3826    0.2274 C   0  0  0  0  0  0  0  0  0  0  0  0
   -6.4188   -0.1376   -2.1650 C   0  0  0  0  0  0  0  0  0  0  0  0
    5.2874   -1.3330   -0.7568 C   0  0  0  0  0  0  0  0  0  0  0  0
    5.1848    0.6401    0.6335 C   0  0  0  0  0  0  0  0  0  0  0  0
   -7.8894   -0.9951    0.0451 C   0  0  0  0  0  0  0  0  0  0  0  0
    6.5756    0.6384    0.7388 C   0  0  0  0  0  0  0  0  0  0  0  0
    6.6784   -1.3348   -0.6515 C   0  0  0  0  0  0  0  0  0  0  0  0
    7.3225   -0.3490    0.0963 C   0  0  0  0  0  0  0  0  0  0  0  0
   -7.6587   -0.7502   -2.3473 C   0  0  0  0  0  0  0  0  0  0  0  0
   -8.3941   -1.1789   -1.2425 C   0  0  0  0  0  0  0  0  0  0  0  0
   -3.9410   -0.8242    2.9421 C   0  0  0  0  0  0  0  0  0  0  0  0
    6.3556    2.5783    2.0966 C   0  0  0  0  0  0  0  0  0  0  0  0
    7.8169   -2.0329   -2.6193 C   0  0  0  0  0  0  0  0  0  0  0  0
    9.2472   -1.0849    1.2833 C   0  0  0  0  0  0  0  0  0  0  0  0
   -1.4119   -1.3731   -0.6596 H   0  0  0  0  0  0  0  0  0  0  0  0
   -3.5423   -1.1596   -0.8079 H   0  0  0  0  0  0  0  0  0  0  0  0
    2.9163    1.8038   -0.0789 H   0  0  0  0  0  0  0  0  0  0  0  0
    1.1227    2.9132   -0.0702 H   0  0  0  0  0  0  0  0  0  0  0  0
    0.4961   -2.4490   -0.6094 H   0  0  0  0  0  0  0  0  0  0  0  0
   -3.2657    3.7276   -0.3321 H   0  0  0  0  0  0  0  0  0  0  0  0
   -5.4201    2.6840   -0.5947 H   0  0  0  0  0  0  0  0  0  0  0  0
    2.8942   -2.5003   -0.4090 H   0  0  0  0  0  0  0  0  0  0  0  0
   -5.8599    0.1898   -3.0387 H   0  0  0  0  0  0  0  0  0  0  0  0
    4.8241   -2.1010   -1.3711 H   0  0  0  0  0  0  0  0  0  0  0  0
    4.5797    1.3685    1.1591 H   0  0  0  0  0  0  0  0  0  0  0  0
   -6.7978    0.3418    2.1525 H   0  0  0  0  0  0  0  0  0  0  0  0
   -8.4725   -1.3331    0.8980 H   0  0  0  0  0  0  0  0  0  0  0  0
   -8.0515   -0.8934   -3.3497 H   0  0  0  0  0  0  0  0  0  0  0  0
   -9.3594   -1.6558   -1.3845 H   0  0  0  0  0  0  0  0  0  0  0  0
   -4.1927    0.0229    3.5830 H   0  0  0  0  0  0  0  0  0  0  0  0
   -3.3295   -0.5081    2.0993 H   0  0  0  0  0  0  0  0  0  0  0  0
   -3.4045   -1.5784    3.5222 H   0  0  0  0  0  0  0  0  0  0  0  0
    5.7991    3.1682    1.3601 H   0  0  0  0  0  0  0  0  0  0  0  0
    5.7043    2.1253    2.8519 H   0  0  0  0  0  0  0  0  0  0  0  0
    7.0139    3.2754    2.6259 H   0  0  0  0  0  0  0  0  0  0  0  0
    6.9504   -1.8825   -3.2710 H   0  0  0  0  0  0  0  0  0  0  0  0
    8.4658   -1.1519   -2.6472 H   0  0  0  0  0  0  0  0  0  0  0  0
    8.3824   -2.8953   -2.9825 H   0  0  0  0  0  0  0  0  0  0  0  0
    8.9068   -0.6806    2.2419 H   0  0  0  0  0  0  0  0  0  0  0  0
    8.9852   -2.1451    1.2089 H   0  0  0  0  0  0  0  0  0  0  0  0
   10.3352   -0.9897    1.2308 H   0  0  0  0  0  0  0  0  0  0  0  0
  1  6  2  0  0  0  0
  1  7  2  0  0  0  0
  1 10  1  0  0  0  0
  1 36  1  0  0  0  0
  2 20  2  0  0  0  0
  3 31  1  0  0  0  0
  3 37  1  0  0  0  0
  4 32  1  0  0  0  0
  4 38  1  0  0  0  0
  5 33  1  0  0  0  0
  5 39  1  0  0  0  0
  8 11  1  0  0  0  0
  8 12  1  0  0  0  0
  8 40  1  0  0  0  0
  9 13  1  0  0  0  0
  9 20  1  0  0  0  0
  9 43  1  0  0  0  0
 10 26  1  0  0  0  0
 10 51  1  0  0  0  0
 11 14  2  0  0  0  0
 11 16  1  0  0  0  0
 12 13  2  0  0  0  0
 12 21  1  0  0  0  0
 13 18  1  0  0  0  0
 14 20  1  0  0  0  0
 14 22  1  0  0  0  0
 15 16  2  0  0  0  0
 15 19  1  0  0  0  0
 15 23  1  0  0  0  0
 16 41  1  0  0  0  0
 17 18  2  0  0  0  0
 17 24  1  0  0  0  0
 17 25  1  0  0  0  0
 18 42  1  0  0  0  0
 19 26  1  0  0  0  0
 19 27  2  0  0  0  0
 21 25  2  0  0  0  0
 21 44  1  0  0  0  0
 22 23  2  0  0  0  0
 22 45  1  0  0  0  0
 23 46  1  0  0  0  0
 24 28  2  0  0  0  0
 24 29  1  0  0  0  0
 25 47  1  0  0  0  0
 26 30  2  0  0  0  0
 27 34  1  0  0  0  0
 27 48  1  0  0  0  0
 28 32  1  0  0  0  0
 28 49  1  0  0  0  0
 29 31  2  0  0  0  0
 29 50  1  0  0  0  0
 30 35  1  0  0  0  0
 30 52  1  0  0  0  0
 31 33  1  0  0  0  0
 32 33  2  0  0  0  0
 34 35  2  0  0  0  0
 34 53  1  0  0  0  0
 35 54  1  0  0  0  0
 36 55  1  0  0  0  0
 36 56  1  0  0  0  0
 36 57  1  0  0  0  0
 37 58  1  0  0  0  0
 37 59  1  0  0  0  0
 37 60  1  0  0  0  0
 38 61  1  0  0  0  0
 38 62  1  0  0  0  0
 38 63  1  0  0  0  0
 39 64  1  0  0  0  0
 39 65  1  0  0  0  0
 39 66  1  0  0  0  0
M  END
> <PUBCHEM_COMPOUND_CID>
49830576

> <PUBCHEM_CONFORMER_RMSD>
1

> <PUBCHEM_CONFORMER_DIVERSEORDER>
5
16
10
14
1
8
13
6
2
17
7
12
15
18
3
11
4
9

> <PUBCHEM_MMFF94_PARTIAL_CHARGES>
50
1 1.33
10 -0.76
11 0.1
12 0.1
13 0.12
14 0.09
16 -0.15
18 -0.15
2 -0.57
20 0.54
21 -0.15
22 -0.15
23 -0.15
25 -0.15
26 0.2
27 -0.15
28 -0.15
29 -0.15
3 -0.36
30 -0.15
31 0.08
32 0.08
33 0.08
34 -0.15
35 -0.15
36 0.11
37 0.28
38 0.28
39 0.28
4 -0.36
40 0.4
41 0.15
42 0.15
43 0.37
44 0.15
45 0.15
46 0.15
47 0.15
48 0.15
49 0.15
5 -0.36
50 0.15
51 0.42
52 0.15
53 0.15
54 0.15
6 -0.65
7 -0.65
8 -0.6
9 -0.55

> <PUBCHEM_EFFECTIVE_ROTOR_COUNT>
7.4

> <PUBCHEM_PHARMACOPHORE_FEATURES>
15
1 10 donor
1 2 acceptor
1 3 acceptor
1 4 acceptor
1 5 acceptor
1 6 acceptor
1 7 acceptor
1 8 cation
1 8 donor
1 9 donor
6 11 14 15 16 22 23 rings
6 12 13 17 18 21 25 rings
6 19 26 27 30 34 35 rings
6 24 28 29 31 32 33 rings
7 8 9 11 12 13 14 20 rings

> <PUBCHEM_HEAVY_ATOM_COUNT>
39

> <PUBCHEM_ATOM_DEF_STEREO_COUNT>
0

> <PUBCHEM_ATOM_UDEF_STEREO_COUNT>
0

> <PUBCHEM_BOND_DEF_STEREO_COUNT>
0

> <PUBCHEM_BOND_UDEF_STEREO_COUNT>
0

> <PUBCHEM_ISOTOPIC_ATOM_COUNT>
0

> <PUBCHEM_COMPONENT_COUNT>
1

> <PUBCHEM_CACTVS_TAUTO_COUNT>
38

> <PUBCHEM_CONFORMER_ID>
02F85AB000000005

> <PUBCHEM_MMFF94_ENERGY>
190.2137

> <PUBCHEM_FEATURE_SELFOVERLAP>
76.164

> <PUBCHEM_SHAPE_FINGERPRINT>
10 15 18336822078698612648
10076449 9 18060699490005456268
10299344 5 16989122062944557055
10369192 42 9511466619996213577
10391435 84 18041275564754470363
11135926 11 17894632522664726755
12082328 90 12973607742462608329
12104220 1 16702582727756167387
12373685 5 15213012743781348832
12643181 29 17821447976558392235
13782708 43 18198911318885092542
13811026 1 18408601457086022100
14040221 8 16660355953658419149
14040222 275 18272105902282603316
14118638 360 18114455652489767454
14849402 71 17203039815466607985
15145343 55 17967524697009069283
15183329 4 15574715789683475504
15461852 350 15574717988912641431
15510800 12 18261114101750932137
17686467 74 18186519917525010044
19611394 137 18261117416843192776
20105231 36 17989210309868619246
20721686 56 18410288155627100233
21267235 1 18413389821930561917
21781051 124 18188223069378033886
22149856 69 17989210313224667056
23522609 53 16486703579265769864
23559900 14 17677333956893281253
23576562 1 15719973422075852207
249057 3 16515402985077483935
25019877 29 17632856421376976540
25269216 80 14418423243605053377
2747138 104 18408890633298121944
335507 130 17988914579626213148
3383291 50 18333450967347491619
3552219 110 17275107254080923761
4461854 278 17989208178911141663
4625314 4 18060412508790910973
5109719 28 18271801363695432024
57527295 17 18043226009300934591
6009941 240 17312820481407161459
9962374 69 18271795878188459364

> <PUBCHEM_SHAPE_MULTIPOLES>
756.29
29.73
2.78
2.24
24.39
1.98
1.59
-14.22
0.5
0.92
0.07
-3.4
-1.32
4.62

> <PUBCHEM_SHAPE_SELFOVERLAP>
1655.114

> <PUBCHEM_SHAPE_VOLUME>
413.4

> <PUBCHEM_COORDINATE_TYPE>
2
5
10

$$$$
