49830417
  -OEChem-10052115183D

 77 83  0     0  0  0  0  0  0999 V2000
    4.0489   -0.0230    4.6182 S   0  0  0  0  0  0  0  0  0  0  0  0
   -1.5639   -4.4739    2.0272 O   0  0  0  0  0  0  0  0  0  0  0  0
   -2.3197   -0.0125    1.8235 O   0  0  0  0  0  0  0  0  0  0  0  0
   -0.8292   -3.2003   -0.3681 N   0  0  0  0  0  0  0  0  0  0  0  0
    3.9734    0.1879    2.0634 N   0  0  0  0  0  0  0  0  0  0  0  0
    2.1826    1.2166    2.9152 N   0  0  0  0  0  0  0  0  0  0  0  0
    2.3624   -1.0169   -3.2938 N   0  0  0  0  0  0  0  0  0  0  0  0
   -1.8219    3.9475   -1.4028 N   0  0  0  0  0  0  0  0  0  0  0  0
    2.8516   -0.1664   -1.1657 N   0  0  0  0  0  0  0  0  0  0  0  0
   -2.4740    1.7473    0.2726 N   0  0  0  0  0  0  0  0  0  0  0  0
    4.4013    0.0980   -2.9922 N   0  0  0  0  0  0  0  0  0  0  0  0
   -2.2277   -3.1956    0.0749 C   0  0  0  0  0  0  0  0  0  0  0  0
   -0.0030   -4.2846    0.1805 C   0  0  0  0  0  0  0  0  0  0  0  0
   -2.2877   -3.3230    1.5931 C   0  0  0  0  0  0  0  0  0  0  0  0
   -0.1814   -4.3531    1.6929 C   0  0  0  0  0  0  0  0  0  0  0  0
   -0.4937   -2.6857   -1.6247 C   0  0  0  0  0  0  0  0  0  0  0  0
    0.7601   -2.1104   -1.8312 C   0  0  0  0  0  0  0  0  0  0  0  0
    3.2962    0.6676    0.9846 C   0  0  0  0  0  0  0  0  0  0  0  0
    2.1929    1.2997    1.5349 C   0  0  0  0  0  0  0  0  0  0  0  0
   -1.4133   -2.7484   -2.6717 C   0  0  0  0  0  0  0  0  0  0  0  0
    1.1682    1.9684    0.7893 C   0  0  0  0  0  0  0  0  0  0  0  0
    1.0943   -1.5978   -3.0847 C   0  0  0  0  0  0  0  0  0  0  0  0
    3.2687    0.5425    3.1731 C   0  0  0  0  0  0  0  0  0  0  0  0
    3.7237    0.4969   -0.3785 C   0  0  0  0  0  0  0  0  0  0  0  0
   -0.8275    3.2735   -0.6589 C   0  0  0  0  0  0  0  0  0  0  0  0
   -1.1539    2.1931    0.1609 C   0  0  0  0  0  0  0  0  0  0  0  0
   -0.1560    1.5405    0.8848 C   0  0  0  0  0  0  0  0  0  0  0  0
   -1.0792   -2.2356   -3.9252 C   0  0  0  0  0  0  0  0  0  0  0  0
    0.1747   -1.6603   -4.1316 C   0  0  0  0  0  0  0  0  0  0  0  0
    1.4946    3.0487   -0.0305 C   0  0  0  0  0  0  0  0  0  0  0  0
    0.4968    3.7011   -0.7547 C   0  0  0  0  0  0  0  0  0  0  0  0
    5.1261   -0.5247    2.2938 C   0  0  0  0  0  0  0  0  0  0  0  0
    3.2482   -0.3283   -2.4425 C   0  0  0  0  0  0  0  0  0  0  0  0
    4.9372    0.9842   -0.8195 C   0  0  0  0  0  0  0  0  0  0  0  0
    5.3231   -0.7287    3.6075 C   0  0  0  0  0  0  0  0  0  0  0  0
   -2.1525    3.5126   -2.7440 C   0  0  0  0  0  0  0  0  0  0  0  0
   -2.5260    5.0754   -0.8290 C   0  0  0  0  0  0  0  0  0  0  0  0
    5.2260    0.7532   -2.1489 C   0  0  0  0  0  0  0  0  0  0  0  0
   -2.9658    0.7066    1.0691 C   0  0  0  0  0  0  0  0  0  0  0  0
   -4.4342    0.4882    0.9931 C   0  0  0  0  0  0  0  0  0  0  0  0
   -5.1124   -0.0711    2.0761 C   0  0  0  0  0  0  0  0  0  0  0  0
   -5.1342    0.8439   -0.1598 C   0  0  0  0  0  0  0  0  0  0  0  0
   -6.4906   -0.2747    2.0060 C   0  0  0  0  0  0  0  0  0  0  0  0
   -6.5124    0.6404   -0.2298 C   0  0  0  0  0  0  0  0  0  0  0  0
   -7.1907    0.0812    0.8532 C   0  0  0  0  0  0  0  0  0  0  0  0
   -2.7527   -4.0450   -0.3792 H   0  0  0  0  0  0  0  0  0  0  0  0
   -2.7358   -2.2704   -0.2207 H   0  0  0  0  0  0  0  0  0  0  0  0
    1.0611   -4.1517   -0.0421 H   0  0  0  0  0  0  0  0  0  0  0  0
   -0.3245   -5.2300   -0.2740 H   0  0  0  0  0  0  0  0  0  0  0  0
   -1.8731   -2.4412    2.0905 H   0  0  0  0  0  0  0  0  0  0  0  0
   -3.3267   -3.4326    1.9195 H   0  0  0  0  0  0  0  0  0  0  0  0
    0.3384   -5.2304    2.0907 H   0  0  0  0  0  0  0  0  0  0  0  0
    0.2375   -3.4669    2.1851 H   0  0  0  0  0  0  0  0  0  0  0  0
    1.4679   -2.0985   -1.0087 H   0  0  0  0  0  0  0  0  0  0  0  0
   -2.3932   -3.2013   -2.5505 H   0  0  0  0  0  0  0  0  0  0  0  0
   -0.3364    0.6916    1.5289 H   0  0  0  0  0  0  0  0  0  0  0  0
   -1.7940   -2.2866   -4.7413 H   0  0  0  0  0  0  0  0  0  0  0  0
    0.4228   -1.2642   -5.1130 H   0  0  0  0  0  0  0  0  0  0  0  0
    2.5187    3.4047   -0.1133 H   0  0  0  0  0  0  0  0  0  0  0  0
    2.6538   -0.9873   -4.2662 H   0  0  0  0  0  0  0  0  0  0  0  0
    0.7634    4.5426   -1.3892 H   0  0  0  0  0  0  0  0  0  0  0  0
    5.7600   -0.8601    1.4873 H   0  0  0  0  0  0  0  0  0  0  0  0
    5.6276    1.5204   -0.1803 H   0  0  0  0  0  0  0  0  0  0  0  0
    6.1580   -1.2637    4.0374 H   0  0  0  0  0  0  0  0  0  0  0  0
   -3.1378    2.2988   -0.2630 H   0  0  0  0  0  0  0  0  0  0  0  0
   -1.2462    3.3861   -3.3464 H   0  0  0  0  0  0  0  0  0  0  0  0
   -2.6850    2.5562   -2.7171 H   0  0  0  0  0  0  0  0  0  0  0  0
   -2.7888    4.2373   -3.2627 H   0  0  0  0  0  0  0  0  0  0  0  0
   -2.8539    4.8558    0.1929 H   0  0  0  0  0  0  0  0  0  0  0  0
   -1.8739    5.9546   -0.8006 H   0  0  0  0  0  0  0  0  0  0  0  0
   -3.4189    5.3354   -1.4073 H   0  0  0  0  0  0  0  0  0  0  0  0
    6.1560    1.1003   -2.5864 H   0  0  0  0  0  0  0  0  0  0  0  0
   -4.5868   -0.3514    2.9851 H   0  0  0  0  0  0  0  0  0  0  0  0
   -4.6438    1.2467   -1.0409 H   0  0  0  0  0  0  0  0  0  0  0  0
   -7.0189   -0.7099    2.8493 H   0  0  0  0  0  0  0  0  0  0  0  0
   -7.0566    0.9092   -1.1305 H   0  0  0  0  0  0  0  0  0  0  0  0
   -8.2635   -0.0790    0.7981 H   0  0  0  0  0  0  0  0  0  0  0  0
  1 23  1  0  0  0  0
  1 35  1  0  0  0  0
  2 14  1  0  0  0  0
  2 15  1  0  0  0  0
  3 39  2  0  0  0  0
  4 12  1  0  0  0  0
  4 13  1  0  0  0  0
  4 16  1  0  0  0  0
  5 18  1  0  0  0  0
  5 23  1  0  0  0  0
  5 32  1  0  0  0  0
  6 19  1  0  0  0  0
  6 23  2  0  0  0  0
  7 22  1  0  0  0  0
  7 33  1  0  0  0  0
  7 60  1  0  0  0  0
  8 25  1  0  0  0  0
  8 36  1  0  0  0  0
  8 37  1  0  0  0  0
  9 24  2  0  0  0  0
  9 33  1  0  0  0  0
 10 26  1  0  0  0  0
 10 39  1  0  0  0  0
 10 65  1  0  0  0  0
 11 33  2  0  0  0  0
 11 38  1  0  0  0  0
 12 14  1  0  0  0  0
 12 46  1  0  0  0  0
 12 47  1  0  0  0  0
 13 15  1  0  0  0  0
 13 48  1  0  0  0  0
 13 49  1  0  0  0  0
 14 50  1  0  0  0  0
 14 51  1  0  0  0  0
 15 52  1  0  0  0  0
 15 53  1  0  0  0  0
 16 17  1  0  0  0  0
 16 20  2  0  0  0  0
 17 22  2  0  0  0  0
 17 54  1  0  0  0  0
 18 19  2  0  0  0  0
 18 24  1  0  0  0  0
 19 21  1  0  0  0  0
 20 28  1  0  0  0  0
 20 55  1  0  0  0  0
 21 27  2  0  0  0  0
 21 30  1  0  0  0  0
 22 29  1  0  0  0  0
 24 34  1  0  0  0  0
 25 26  2  0  0  0  0
 25 31  1  0  0  0  0
 26 27  1  0  0  0  0
 27 56  1  0  0  0  0
 28 29  2  0  0  0  0
 28 57  1  0  0  0  0
 29 58  1  0  0  0  0
 30 31  2  0  0  0  0
 30 59  1  0  0  0  0
 31 61  1  0  0  0  0
 32 35  2  0  0  0  0
 32 62  1  0  0  0  0
 34 38  2  0  0  0  0
 34 63  1  0  0  0  0
 35 64  1  0  0  0  0
 36 66  1  0  0  0  0
 36 67  1  0  0  0  0
 36 68  1  0  0  0  0
 37 69  1  0  0  0  0
 37 70  1  0  0  0  0
 37 71  1  0  0  0  0
 38 72  1  0  0  0  0
 39 40  1  0  0  0  0
 40 41  2  0  0  0  0
 40 42  1  0  0  0  0
 41 43  1  0  0  0  0
 41 73  1  0  0  0  0
 42 44  2  0  0  0  0
 42 74  1  0  0  0  0
 43 45  2  0  0  0  0
 43 75  1  0  0  0  0
 44 45  1  0  0  0  0
 44 76  1  0  0  0  0
 45 77  1  0  0  0  0
M  END
> <PUBCHEM_COMPOUND_CID>
49830417

> <PUBCHEM_CONFORMER_RMSD>
1.2

> <PUBCHEM_CONFORMER_DIVERSEORDER>
1
152
142
95
171
126
64
138
57
139
24
172
8
75
167
76
34
28
96
118
174
127
100
54
124
130
106
13
131
101
133
48
33
163
158
78
161
137
134
35
55
112
52
26
156
69
7
56
71
136
117
97
47
109
110
70
29
31
170
160
135
6
93
59
82
5
115
121
79
151
145
12
49
125
4
20
149
90
61
103
140
153
44
94
41
46
107
84
67
83
51
62
120
37
91
116
113
50
36
141
19
102
119
147
9
105
108
86
85
128
123
148
155
77
154
66
88
22
162
45
18
40
42
146
73
43
30
173
132
168
114
3
16
10
157
150
92
143
81
165
17
99
169
104
122
98
14
111
68
164
39
65
15
80
60
21
159
63
72
23
53
87
11
144
27
129
25
2
38
89
32
166
58
74

> <PUBCHEM_MMFF94_PARTIAL_CHARGES>
63
1 -0.16
10 -0.55
11 -0.62
12 0.37
13 0.37
14 0.28
15 0.28
16 0.1
17 -0.15
18 -0.2
19 0.17
2 -0.56
20 -0.15
21 0.05
22 0.1
23 0.24
24 0.36
25 0.1
26 0.12
27 -0.15
28 -0.15
29 -0.15
3 -0.57
30 -0.15
31 -0.15
32 -0.18
33 0.72
34 -0.15
35 -0.05
36 0.37
37 0.37
38 0.16
39 0.54
4 -0.84
40 0.09
41 -0.15
42 -0.15
43 -0.15
44 -0.15
45 -0.15
5 0.33
54 0.15
55 0.15
56 0.15
57 0.15
58 0.15
59 0.15
6 -0.57
60 0.4
61 0.15
62 0.15
63 0.15
64 0.15
65 0.37
7 -0.6
72 0.15
73 0.15
74 0.15
75 0.15
76 0.15
77 0.15
8 -0.84
9 -0.62

> <PUBCHEM_EFFECTIVE_ROTOR_COUNT>
10.2

> <PUBCHEM_PHARMACOPHORE_FEATURES>
16
1 10 donor
1 2 acceptor
1 3 acceptor
1 4 cation
1 7 donor
1 8 cation
1 9 acceptor
3 5 6 23 cation
4 7 9 11 33 cation
5 1 5 23 32 35 rings
5 5 6 18 19 23 rings
6 16 17 20 22 28 29 rings
6 2 4 12 13 14 15 rings
6 21 25 26 27 30 31 rings
6 40 41 42 43 44 45 rings
6 9 11 24 33 34 38 rings

> <PUBCHEM_HEAVY_ATOM_COUNT>
45

> <PUBCHEM_ATOM_DEF_STEREO_COUNT>
0

> <PUBCHEM_ATOM_UDEF_STEREO_COUNT>
0

> <PUBCHEM_BOND_DEF_STEREO_COUNT>
0

> <PUBCHEM_BOND_UDEF_STEREO_COUNT>
0

> <PUBCHEM_ISOTOPIC_ATOM_COUNT>
0

> <PUBCHEM_COMPONENT_COUNT>
1

> <PUBCHEM_CACTVS_TAUTO_COUNT>
6

> <PUBCHEM_CONFORMER_ID>
02F85A1100000001

> <PUBCHEM_MMFF94_ENERGY>
182.5366

> <PUBCHEM_FEATURE_SELFOVERLAP>
81.454

> <PUBCHEM_SHAPE_FINGERPRINT>
10032420 55 18054247443893261287
12160290 23 18271794757492209904
12655364 131 14908173141809605034
13402501 40 18058753345549476479
1361 2 17203616969134858471
14918310 93 18338530689266101557
14940111 1 18057583534229887560
15968369 26 18119522142357547181
19319366 153 17095528439099858032
20587220 17 15430323593919630839
20764821 26 18263915699806140063
5080951 261 17411852432584189746
550186 83 18261682561715026685
6376802 137 16553422778585462798
86090 222 17988939833390270007

> <PUBCHEM_SHAPE_MULTIPOLES>
878.34
11.85
5.67
4.89
9.1
1.03
-0.45
-3.13
8.33
4.22
-1.98
-5.5
2.41
1.45

> <PUBCHEM_SHAPE_SELFOVERLAP>
1933.161

> <PUBCHEM_SHAPE_VOLUME>
476

> <PUBCHEM_COORDINATE_TYPE>
2
5
10

$$$$
