5209964
  -OEChem-10062121523D

 42 45  0     0  0  0  0  0  0999 V2000
   -3.3450   -0.4691   -0.4618 O   0  0  0  0  0  0  0  0  0  0  0  0
    2.2065   -0.6876   -0.7048 N   0  0  0  0  0  0  0  0  0  0  0  0
    2.8955    1.5594   -0.5902 N   0  0  0  0  0  0  0  0  0  0  0  0
    5.1187    2.1277    0.1451 N   0  0  0  0  0  0  0  0  0  0  0  0
    4.4560   -0.1747    0.0422 C   0  0  0  0  0  0  0  0  0  0  0  0
    3.2145    0.2640   -0.4097 C   0  0  0  0  0  0  0  0  0  0  0  0
    0.8052   -0.6330   -0.6428 C   0  0  0  0  0  0  0  0  0  0  0  0
    5.4042    0.8248    0.3145 C   0  0  0  0  0  0  0  0  0  0  0  0
   -1.9863   -0.5222   -0.5216 C   0  0  0  0  0  0  0  0  0  0  0  0
    0.0314   -1.3978   -1.5209 C   0  0  0  0  0  0  0  0  0  0  0  0
    0.1733    0.1875    0.2966 C   0  0  0  0  0  0  0  0  0  0  0  0
   -3.9187    0.3904    0.5221 C   0  0  0  0  0  0  0  0  0  0  0  0
    4.7656   -1.5339    0.2229 C   0  0  0  0  0  0  0  0  0  0  0  0
   -5.4140    0.2869    0.4509 C   0  0  0  0  0  0  0  0  0  0  0  0
   -1.3611   -1.3425   -1.4606 C   0  0  0  0  0  0  0  0  0  0  0  0
   -1.2191    0.2427    0.3571 C   0  0  0  0  0  0  0  0  0  0  0  0
    6.6584    0.4243    0.7686 C   0  0  0  0  0  0  0  0  0  0  0  0
    6.0267   -1.9058    0.6779 C   0  0  0  0  0  0  0  0  0  0  0  0
    6.9740   -0.9253    0.9510 C   0  0  0  0  0  0  0  0  0  0  0  0
   -6.1244    1.1421   -0.3840 C   0  0  0  0  0  0  0  0  0  0  0  0
   -6.0758   -0.6632    1.2209 C   0  0  0  0  0  0  0  0  0  0  0  0
    3.8800    2.4242   -0.2979 C   0  0  0  0  0  0  0  0  0  0  0  0
   -7.5145    1.0459   -0.4499 C   0  0  0  0  0  0  0  0  0  0  0  0
   -7.4658   -0.7595    1.1548 C   0  0  0  0  0  0  0  0  0  0  0  0
   -8.1851    0.0951    0.3195 C   0  0  0  0  0  0  0  0  0  0  0  0
    2.5535   -1.4750   -1.2457 H   0  0  0  0  0  0  0  0  0  0  0  0
    0.5048   -2.0410   -2.2587 H   0  0  0  0  0  0  0  0  0  0  0  0
    0.7489    0.7832    1.0006 H   0  0  0  0  0  0  0  0  0  0  0  0
   -3.6295    1.4345    0.3429 H   0  0  0  0  0  0  0  0  0  0  0  0
   -3.6014    0.0968    1.5316 H   0  0  0  0  0  0  0  0  0  0  0  0
    4.0460   -2.3238    0.0266 H   0  0  0  0  0  0  0  0  0  0  0  0
   -1.9536   -1.9407   -2.1475 H   0  0  0  0  0  0  0  0  0  0  0  0
   -1.6352    0.9011    1.1118 H   0  0  0  0  0  0  0  0  0  0  0  0
    7.4178    1.1722    0.9897 H   0  0  0  0  0  0  0  0  0  0  0  0
    6.2693   -2.9544    0.8207 H   0  0  0  0  0  0  0  0  0  0  0  0
    7.9608   -1.2069    1.3070 H   0  0  0  0  0  0  0  0  0  0  0  0
   -5.6125    1.8847   -0.9896 H   0  0  0  0  0  0  0  0  0  0  0  0
   -5.5257   -1.3357    1.8733 H   0  0  0  0  0  0  0  0  0  0  0  0
    3.6562    3.4755   -0.4319 H   0  0  0  0  0  0  0  0  0  0  0  0
   -8.0747    1.7107   -1.1008 H   0  0  0  0  0  0  0  0  0  0  0  0
   -7.9880   -1.5002    1.7533 H   0  0  0  0  0  0  0  0  0  0  0  0
   -9.2674    0.0200    0.2678 H   0  0  0  0  0  0  0  0  0  0  0  0
  1  9  1  0  0  0  0
  1 12  1  0  0  0  0
  2  6  1  0  0  0  0
  2  7  1  0  0  0  0
  2 26  1  0  0  0  0
  3  6  2  0  0  0  0
  3 22  1  0  0  0  0
  4  8  1  0  0  0  0
  4 22  2  0  0  0  0
  5  6  1  0  0  0  0
  5  8  1  0  0  0  0
  5 13  2  0  0  0  0
  7 10  2  0  0  0  0
  7 11  1  0  0  0  0
  8 17  2  0  0  0  0
  9 15  2  0  0  0  0
  9 16  1  0  0  0  0
 10 15  1  0  0  0  0
 10 27  1  0  0  0  0
 11 16  2  0  0  0  0
 11 28  1  0  0  0  0
 12 14  1  0  0  0  0
 12 29  1  0  0  0  0
 12 30  1  0  0  0  0
 13 18  1  0  0  0  0
 13 31  1  0  0  0  0
 14 20  2  0  0  0  0
 14 21  1  0  0  0  0
 15 32  1  0  0  0  0
 16 33  1  0  0  0  0
 17 19  1  0  0  0  0
 17 34  1  0  0  0  0
 18 19  2  0  0  0  0
 18 35  1  0  0  0  0
 19 36  1  0  0  0  0
 20 23  1  0  0  0  0
 20 37  1  0  0  0  0
 21 24  2  0  0  0  0
 21 38  1  0  0  0  0
 22 39  1  0  0  0  0
 23 25  2  0  0  0  0
 23 40  1  0  0  0  0
 24 25  1  0  0  0  0
 24 41  1  0  0  0  0
 25 42  1  0  0  0  0
M  END
> <PUBCHEM_COMPOUND_CID>
5209964

> <PUBCHEM_CONFORMER_RMSD>
0.8

> <PUBCHEM_CONFORMER_DIVERSEORDER>
1
64
50
67
37
62
79
73
81
51
21
76
72
32
8
31
10
68
60
3
74
36
19
58
47
22
75
29
42
26
45
18
70
65
16
12
20
40
49
28
38
61
55
80
85
9
59
39
53
5
63
52
83
6
54
44
15
84
69
77
17
41
27
33
82
25
13
14
56
57
30
24
66
78
7
43
4
23
34
48
46
2
71
11
35

> <PUBCHEM_MMFF94_PARTIAL_CHARGES>
39
1 -0.36
10 -0.15
11 -0.15
12 0.42
13 -0.15
14 -0.14
15 -0.15
16 -0.15
17 -0.15
18 -0.15
19 -0.15
2 -0.6
20 -0.15
21 -0.15
22 0.47
23 -0.15
24 -0.15
25 -0.15
26 0.4
27 0.15
28 0.15
3 -0.62
31 0.15
32 0.15
33 0.15
34 0.15
35 0.15
36 0.15
37 0.15
38 0.15
39 0.15
4 -0.62
40 0.15
41 0.15
42 0.15
6 0.41
7 0.1
8 0.31
9 0.08

> <PUBCHEM_EFFECTIVE_ROTOR_COUNT>
5

> <PUBCHEM_PHARMACOPHORE_FEATURES>
8
1 1 acceptor
1 2 donor
3 2 3 6 cation
3 3 4 22 cation
6 14 20 21 23 24 25 rings
6 3 4 5 6 8 22 rings
6 5 8 13 17 18 19 rings
6 7 9 10 11 15 16 rings

> <PUBCHEM_HEAVY_ATOM_COUNT>
25

> <PUBCHEM_ATOM_DEF_STEREO_COUNT>
0

> <PUBCHEM_ATOM_UDEF_STEREO_COUNT>
0

> <PUBCHEM_BOND_DEF_STEREO_COUNT>
0

> <PUBCHEM_BOND_UDEF_STEREO_COUNT>
0

> <PUBCHEM_ISOTOPIC_ATOM_COUNT>
0

> <PUBCHEM_COMPONENT_COUNT>
1

> <PUBCHEM_CACTVS_TAUTO_COUNT>
3

> <PUBCHEM_CONFORMER_ID>
004F7F6C00000001

> <PUBCHEM_MMFF94_ENERGY>
96.2332

> <PUBCHEM_FEATURE_SELFOVERLAP>
40.769

> <PUBCHEM_SHAPE_FINGERPRINT>
10 15 18411421726265918535
10162869 55 18201427104420745439
10693767 8 7852759931539063880
11315181 36 10664101156743051059
11524674 6 16443349784622522571
11638347 137 17968099716273694355
11719270 70 18201721734392153743
11963148 33 13334736864095368704
12166972 35 16008754610465918917
12236239 1 18201714085677514886
125118 31 18409452462333949525
12616971 3 18342451564841385606
13167372 99 18342459209815022465
13533116 47 18113899325798052994
13673619 4 14562528483323803183
13835254 42 15984275015192815032
13885169 127 17676486112773159189
14251764 18 18201717375242616519
14294032 229 16988562364492608929
14347424 109 18333447656112211912
14933364 13 18187083957908981121
15131766 46 17900548079458090572
15142383 8 18410007728600862552
15183329 4 16630528444800486289
15301273 46 16732698346487113863
15348495 7 18041284373642697705
15352257 5 16226045574282757691
15419008 145 18264200327616335720
15419008 47 17458619008673810381
15475509 35 16733530651668188920
15537594 2 12035450566458707849
1577012 14 18200871880881341996
18006028 8 13839985517085426751
18222031 100 14273456998062005151
19301679 30 18120085088681250330
20157964 124 18273217482515065142
20281389 69 18344144795663528873
20554085 129 15985097496950765486
21150785 3 12103844562177903459
21267235 1 18409450246694735974
21315763 28 18334857221460435761
21424621 283 15051465890143824147
21792934 111 18341040848431630025
22149856 69 17059518274234813355
22224240 67 17775282759909390087
23016692 55 13623532359305937254
23035841 295 14129061413462772683
23559900 14 9078819767664895207
2767999 5 17489587861728776561
2838139 119 18059849576286695541
312425 54 17603866732174836627
3178227 256 18060145357872939323
34797466 226 12319734773686950723
397830 11 17823427161379934193
4073 2 17822579429014034002
4340502 62 18187086148131662939
5104073 3 18269545208515844058
5219985 9 13479133493120187175
5758199 1 16271931498109917735
59755656 215 16081367431926591755
68570916 9 18190184666772696455

> <PUBCHEM_SHAPE_MULTIPOLES>
493.68
24.39
1.75
1.11
23.6
0.53
0.11
1.46
-8.44
-2.7
0.19
0.48
-0.37
-0.04

> <PUBCHEM_SHAPE_SELFOVERLAP>
1092.588

> <PUBCHEM_SHAPE_VOLUME>
260.9

> <PUBCHEM_COORDINATE_TYPE>
2
5
10

$$$$
