15314692
  -OEChem-10052115183D

 25 27  0     0  0  0  0  0  0999 V2000
    1.8847    2.4820    0.0000 S   0  0  0  0  0  0  0  0  0  0  0  0
    3.5213    0.3796   -0.0001 N   0  0  0  0  0  0  0  0  0  0  0  0
    2.5811   -1.8553    0.0001 N   0  0  0  0  0  0  0  0  0  0  0  0
    0.2453   -2.2677    0.0003 N   0  0  0  0  0  0  0  0  0  0  0  0
   -0.0747    0.8219    0.0001 C   0  0  0  0  0  0  0  0  0  0  0  0
    1.1095    0.0195    0.0001 C   0  0  0  0  0  0  0  0  0  0  0  0
   -1.4476    0.3828    0.0001 C   0  0  0  0  0  0  0  0  0  0  0  0
    2.2468    0.8167   -0.0001 C   0  0  0  0  0  0  0  0  0  0  0  0
    0.2025    2.1716   -0.0002 C   0  0  0  0  0  0  0  0  0  0  0  0
    1.3239   -1.3626    0.0001 C   0  0  0  0  0  0  0  0  0  0  0  0
   -2.1066    0.1719   -1.2080 C   0  0  0  0  0  0  0  0  0  0  0  0
   -2.1069    0.1725    1.2081 C   0  0  0  0  0  0  0  0  0  0  0  0
   -3.4353   -0.2526   -1.2080 C   0  0  0  0  0  0  0  0  0  0  0  0
   -3.4355   -0.2522    1.2079 C   0  0  0  0  0  0  0  0  0  0  0  0
   -4.0997   -0.4647   -0.0002 C   0  0  0  0  0  0  0  0  0  0  0  0
    3.5913   -0.9635   -0.0001 C   0  0  0  0  0  0  0  0  0  0  0  0
   -0.4943    2.9993   -0.0004 H   0  0  0  0  0  0  0  0  0  0  0  0
   -1.6024    0.3315   -2.1581 H   0  0  0  0  0  0  0  0  0  0  0  0
   -1.6028    0.3325    2.1582 H   0  0  0  0  0  0  0  0  0  0  0  0
   -3.9525   -0.4186   -2.1486 H   0  0  0  0  0  0  0  0  0  0  0  0
   -3.9530   -0.4179    2.1484 H   0  0  0  0  0  0  0  0  0  0  0  0
   -5.1342   -0.7955   -0.0002 H   0  0  0  0  0  0  0  0  0  0  0  0
    4.5907   -1.3843   -0.0001 H   0  0  0  0  0  0  0  0  0  0  0  0
    0.4526   -3.2578   -0.0002 H   0  0  0  0  0  0  0  0  0  0  0  0
   -0.7154   -1.9659   -0.0003 H   0  0  0  0  0  0  0  0  0  0  0  0
  1  8  1  0  0  0  0
  1  9  1  0  0  0  0
  2  8  2  0  0  0  0
  2 16  1  0  0  0  0
  3 10  1  0  0  0  0
  3 16  2  0  0  0  0
  4 10  1  0  0  0  0
  4 24  1  0  0  0  0
  4 25  1  0  0  0  0
  5  6  1  0  0  0  0
  5  7  1  0  0  0  0
  5  9  2  0  0  0  0
  6  8  1  0  0  0  0
  6 10  2  0  0  0  0
  7 11  2  0  0  0  0
  7 12  1  0  0  0  0
  9 17  1  0  0  0  0
 11 13  1  0  0  0  0
 11 18  1  0  0  0  0
 12 14  2  0  0  0  0
 12 19  1  0  0  0  0
 13 15  2  0  0  0  0
 13 20  1  0  0  0  0
 14 15  1  0  0  0  0
 14 21  1  0  0  0  0
 15 22  1  0  0  0  0
 16 23  1  0  0  0  0
M  END
> <PUBCHEM_COMPOUND_CID>
15314692

> <PUBCHEM_CONFORMER_RMSD>
0.6

> <PUBCHEM_CONFORMER_DIVERSEORDER>
1

> <PUBCHEM_MMFF94_PARTIAL_CHARGES>
24
1 -0.08
10 0.41
11 -0.15
12 -0.15
13 -0.15
14 -0.15
15 -0.15
16 0.47
17 0.15
18 0.15
19 0.15
2 -0.57
20 0.15
21 0.15
22 0.15
23 0.15
24 0.4
25 0.4
3 -0.62
4 -0.9
5 -0.05
7 0.05
8 0.3
9 -0.11

> <PUBCHEM_EFFECTIVE_ROTOR_COUNT>
1

> <PUBCHEM_PHARMACOPHORE_FEATURES>
7
1 2 acceptor
1 4 cation
1 4 donor
3 2 3 16 cation
5 1 5 6 8 9 rings
6 2 3 6 8 10 16 rings
6 7 11 12 13 14 15 rings

> <PUBCHEM_HEAVY_ATOM_COUNT>
16

> <PUBCHEM_ATOM_DEF_STEREO_COUNT>
0

> <PUBCHEM_ATOM_UDEF_STEREO_COUNT>
0

> <PUBCHEM_BOND_DEF_STEREO_COUNT>
0

> <PUBCHEM_BOND_UDEF_STEREO_COUNT>
0

> <PUBCHEM_ISOTOPIC_ATOM_COUNT>
0

> <PUBCHEM_COMPONENT_COUNT>
1

> <PUBCHEM_CACTVS_TAUTO_COUNT>
4

> <PUBCHEM_CONFORMER_ID>
00E9AF0400000001

> <PUBCHEM_MMFF94_ENERGY>
44.7215

> <PUBCHEM_FEATURE_SELFOVERLAP>
35.601

> <PUBCHEM_SHAPE_FINGERPRINT>
10219947 1 18410576192896607552
10967382 1 18410855507758060324
11471102 20 18409727378399207317
11471102 22 18335993024865550417
12236239 1 17703792535351115817
12553582 1 18340209587723621686
13140716 1 18194679504666737784
13296908 3 18335417928850045901
13862211 1 18410570665965073354
14251717 144 18411416232707347831
15219456 202 18040996288843433829
15375462 189 18131915970327120993
16945 1 18410856585789622340
1813 80 18058185946426486196
18175812 5 17749107841721743085
18186145 218 18343023340820925853
19049666 15 17896027776723250461
19422 9 17846218894883269423
200 152 18272926133724805141
20201158 50 18187365415468322523
20279233 1 17822008718286569963
20361792 2 18342452608529078637
204376 136 18050002495977027976
20645477 70 18409439311069573791
20871998 22 18127701439284219934
21061003 4 18336552637803514233
21639500 275 18339635767086706877
21730867 7 18334295396055086477
22112679 90 17274825787451514953
221490 88 18263930010558204979
22445834 79 18202287987428113433
2255824 54 18270402814341943484
232386 152 16702014314213994413
2334 1 17834113426564810536
23388829 49 18272370845355035217
23402539 116 18341890732787031526
23419403 2 14931469537035631683
23559900 14 16805597049903893114
23728640 28 15958075551252149563
2748010 2 18195237815981645660
350125 39 17544483410591897200
474 4 17629185298102481408
581208 293 18412539950776150336
77492 1 17703793647631724357
81228 2 17761207718035558544
8272917 22 18341621399777558869

> <PUBCHEM_SHAPE_MULTIPOLES>
318.18
6.49
2.1
0.98
2.49
0.33
0
-1.42
0
-2.01
0
1.04
0.02
0

> <PUBCHEM_SHAPE_SELFOVERLAP>
700.024

> <PUBCHEM_SHAPE_VOLUME>
173.7

> <PUBCHEM_COORDINATE_TYPE>
2
5
10

$$$$
