44186879
  -OEChem-10052120443D

 31 33  0     0  0  0  0  0  0999 V2000
   -3.9686    2.0197   -0.0379 O   0  0  0  0  0  0  0  0  0  0  0  0
   -0.6293   -0.5420    0.0018 N   0  0  0  0  0  0  0  0  0  0  0  0
   -2.5893   -1.4284   -0.0014 N   0  0  0  0  0  0  0  0  0  0  0  0
   -1.2911   -1.7105    0.0003 N   0  0  0  0  0  0  0  0  0  0  0  0
    4.8290   -0.0672   -0.0010 N   0  0  0  0  0  0  0  0  0  0  0  0
    5.0407    1.2594   -0.0019 N   0  0  0  0  0  0  0  0  0  0  0  0
   -4.0475    0.5678   -0.0005 C   0  0  0  0  0  0  0  0  0  0  0  0
   -2.7237   -0.0679   -0.0007 C   0  0  0  0  0  0  0  0  0  0  0  0
    0.7536   -0.4944    0.0015 C   0  0  0  0  0  0  0  0  0  0  0  0
   -4.9037    0.1867   -1.2431 C   0  0  0  0  0  0  0  0  0  0  0  0
   -4.8733    0.2502    1.2799 C   0  0  0  0  0  0  0  0  0  0  0  0
   -1.4828    0.5180    0.0013 C   0  0  0  0  0  0  0  0  0  0  0  0
    2.8041    0.7745   -0.0005 C   0  0  0  0  0  0  0  0  0  0  0  0
    1.3995    0.7483    0.0001 C   0  0  0  0  0  0  0  0  0  0  0  0
    3.5077   -0.4247    0.0002 C   0  0  0  0  0  0  0  0  0  0  0  0
    1.4848   -1.6837    0.0021 C   0  0  0  0  0  0  0  0  0  0  0  0
    2.8834   -1.6741    0.0015 C   0  0  0  0  0  0  0  0  0  0  0  0
    3.8065    1.7681   -0.0018 C   0  0  0  0  0  0  0  0  0  0  0  0
   -5.8698    0.7040   -1.2353 H   0  0  0  0  0  0  0  0  0  0  0  0
   -5.0852   -0.8925   -1.2871 H   0  0  0  0  0  0  0  0  0  0  0  0
   -4.3916    0.4854   -2.1654 H   0  0  0  0  0  0  0  0  0  0  0  0
   -5.8409    0.7646    1.2681 H   0  0  0  0  0  0  0  0  0  0  0  0
   -4.3406    0.5969    2.1732 H   0  0  0  0  0  0  0  0  0  0  0  0
   -5.0499   -0.8257    1.3836 H   0  0  0  0  0  0  0  0  0  0  0  0
   -1.1927    1.5586    0.0028 H   0  0  0  0  0  0  0  0  0  0  0  0
    0.8779    1.6976   -0.0005 H   0  0  0  0  0  0  0  0  0  0  0  0
    0.9992   -2.6573    0.0030 H   0  0  0  0  0  0  0  0  0  0  0  0
    3.4534   -2.5964    0.0020 H   0  0  0  0  0  0  0  0  0  0  0  0
   -4.8743    2.3737   -0.0355 H   0  0  0  0  0  0  0  0  0  0  0  0
    3.6870    2.8424   -0.0026 H   0  0  0  0  0  0  0  0  0  0  0  0
    5.6351   -0.6797   -0.0010 H   0  0  0  0  0  0  0  0  0  0  0  0
  1  7  1  0  0  0  0
  1 29  1  0  0  0  0
  2  4  1  0  0  0  0
  2  9  1  0  0  0  0
  2 12  1  0  0  0  0
  3  4  2  0  0  0  0
  3  8  1  0  0  0  0
  5  6  1  0  0  0  0
  5 15  1  0  0  0  0
  5 31  1  0  0  0  0
  6 18  2  0  0  0  0
  7  8  1  0  0  0  0
  7 10  1  0  0  0  0
  7 11  1  0  0  0  0
  8 12  2  0  0  0  0
  9 14  2  0  0  0  0
  9 16  1  0  0  0  0
 10 19  1  0  0  0  0
 10 20  1  0  0  0  0
 10 21  1  0  0  0  0
 11 22  1  0  0  0  0
 11 23  1  0  0  0  0
 11 24  1  0  0  0  0
 12 25  1  0  0  0  0
 13 14  1  0  0  0  0
 13 15  2  0  0  0  0
 13 18  1  0  0  0  0
 14 26  1  0  0  0  0
 15 17  1  0  0  0  0
 16 17  2  0  0  0  0
 16 27  1  0  0  0  0
 17 28  1  0  0  0  0
 18 30  1  0  0  0  0
M  END
> <PUBCHEM_COMPOUND_CID>
44186879

> <PUBCHEM_CONFORMER_RMSD>
0.6

> <PUBCHEM_CONFORMER_DIVERSEORDER>
1
4
13
10
5
15
9
3
14
6
16
11
12
8
7
2

> <PUBCHEM_MMFF94_PARTIAL_CHARGES>
22
1 -0.68
12 -0.3
14 -0.15
15 -0.15
16 -0.15
17 -0.15
18 0.14
2 0.59
25 0.15
26 0.15
27 0.15
28 0.15
29 0.4
3 -0.23
30 0.15
31 0.27
4 -0.42
5 0.3
6 -0.71
7 0.46
8 0.05
9 -0.02

> <PUBCHEM_EFFECTIVE_ROTOR_COUNT>
2

> <PUBCHEM_PHARMACOPHORE_FEATURES>
8
1 1 acceptor
1 1 donor
1 5 donor
1 6 acceptor
3 7 10 11 hydrophobe
5 2 3 4 8 12 rings
5 5 6 13 15 18 rings
6 9 13 14 15 16 17 rings

> <PUBCHEM_HEAVY_ATOM_COUNT>
18

> <PUBCHEM_ATOM_DEF_STEREO_COUNT>
0

> <PUBCHEM_ATOM_UDEF_STEREO_COUNT>
0

> <PUBCHEM_BOND_DEF_STEREO_COUNT>
0

> <PUBCHEM_BOND_UDEF_STEREO_COUNT>
0

> <PUBCHEM_ISOTOPIC_ATOM_COUNT>
0

> <PUBCHEM_COMPONENT_COUNT>
1

> <PUBCHEM_CACTVS_TAUTO_COUNT>
2

> <PUBCHEM_CONFORMER_ID>
02A23CFF00000001

> <PUBCHEM_MMFF94_ENERGY>
36.6697

> <PUBCHEM_FEATURE_SELFOVERLAP>
40.687

> <PUBCHEM_SHAPE_FINGERPRINT>
10014705 185 18260542342724459263
10608611 8 18409728465083916412
10912923 1 18060697269591760331
11089746 13 17774996908413544504
11471102 20 18411697673624948550
12107183 9 17764027961023164947
12236239 1 17703790310056890140
12507557 5 17603307068340920901
12507560 40 18260272919389129219
12596602 18 15213021574308540116
12916748 109 18410580574016437625
13675066 3 17821733827420864419
13760787 5 18271806787785140239
14528608 73 18343578564154425669
14897335 6 18411698794142122263
15188451 53 15647341904843410003
15196674 1 18410575076073157318
15239154 128 18410294709303724941
15375358 24 18334576841009458066
15536298 74 18341333314456036390
17834072 33 18272927250052454831
18186145 218 18341619187205003511
19784866 9 18409727348893521338
200 152 17775281673008013135
20300324 65 17846776317572645613
20645477 56 18261110789972268757
20645477 70 18343021043356625862
21033648 29 18114166537225537069
21267235 1 18411428292907144562
21652331 79 18409167697153482849
21709351 56 18337668723926207996
22646028 28 8574715697535596952
231179 274 17968088711950056302
23402539 116 17847057770584084845
23402655 69 18272369797810010166
23559900 14 18342739590266175470
3268164 11 15051736348381370745
335352 9 18410573977532441622
3545911 37 18410015446150606802
4047638 21 18409452479476291226
4214541 1 18410573981093971109
449060 50 18408045117198000031
474 4 18040719207597116036
4990 188 17775010093857407990
5104073 3 18409447020335748418
542803 24 17489872635187616657
543358 83 18341898433462764330
602551 16 15936706954797515608
633830 44 18198625437124145671
69090 78 18411978057537814119
7364860 26 18341051801131042910
77779 3 18410576184206556603
8272917 22 18201445722793107278
90127 26 18262809458243822417
9709674 26 18412268328365246231

> <PUBCHEM_SHAPE_MULTIPOLES>
339.66
11.27
1.75
0.78
2.77
0.09
0.01
-4
-0.01
-0.82
0
0.95
-0.04
-0.02

> <PUBCHEM_SHAPE_SELFOVERLAP>
747.854

> <PUBCHEM_SHAPE_VOLUME>
187

> <PUBCHEM_COORDINATE_TYPE>
2
5
10

$$$$
