2831603
  -OEChem-10052115183D

 26 27  0     0  0  0  0  0  0999 V2000
    1.8730    1.0194    0.6729 S   0  0  0  0  0  0  0  0  0  0  0  0
    4.5509    2.4035    1.0728 S   0  0  0  0  0  0  0  0  0  0  0  0
   -3.5409    0.9046   -1.3736 O   0  0  0  0  0  0  0  0  0  0  0  0
   -4.5394    0.0165    1.0637 O   0  0  0  0  0  0  0  0  0  0  0  0
    3.4367   -1.9031   -1.2377 O   0  0  0  0  0  0  0  0  0  0  0  0
    4.0855    0.0757   -0.1976 N   0  0  0  0  0  0  0  0  0  0  0  0
   -0.6391   -0.8772   -0.0443 C   0  0  0  0  0  0  0  0  0  0  0  0
    0.7278   -1.1925   -0.4283 C   0  0  0  0  0  0  0  0  0  0  0  0
   -1.4489   -0.1292   -0.8989 C   0  0  0  0  0  0  0  0  0  0  0  0
    1.8230   -0.4770   -0.1796 C   0  0  0  0  0  0  0  0  0  0  0  0
   -2.7597    0.1734   -0.5306 C   0  0  0  0  0  0  0  0  0  0  0  0
   -1.1402   -1.3225    1.1790 C   0  0  0  0  0  0  0  0  0  0  0  0
   -3.2608   -0.2721    0.6927 C   0  0  0  0  0  0  0  0  0  0  0  0
   -2.4510   -1.0199    1.5474 C   0  0  0  0  0  0  0  0  0  0  0  0
    3.1810   -0.8834   -0.6146 C   0  0  0  0  0  0  0  0  0  0  0  0
    3.6118    1.1616    0.4971 C   0  0  0  0  0  0  0  0  0  0  0  0
   -3.5096    2.3223   -1.2203 C   0  0  0  0  0  0  0  0  0  0  0  0
    0.8170   -2.1275   -0.9789 H   0  0  0  0  0  0  0  0  0  0  0  0
   -1.0663    0.2210   -1.8554 H   0  0  0  0  0  0  0  0  0  0  0  0
   -0.5216   -1.9068    1.8560 H   0  0  0  0  0  0  0  0  0  0  0  0
   -2.8287   -1.3732    2.5032 H   0  0  0  0  0  0  0  0  0  0  0  0
    5.0751   -0.0217   -0.4001 H   0  0  0  0  0  0  0  0  0  0  0  0
   -2.5000    2.7050   -1.4003 H   0  0  0  0  0  0  0  0  0  0  0  0
   -3.8476    2.6095   -0.2196 H   0  0  0  0  0  0  0  0  0  0  0  0
   -4.1869    2.7617   -1.9576 H   0  0  0  0  0  0  0  0  0  0  0  0
   -4.7105   -0.3716    1.9390 H   0  0  0  0  0  0  0  0  0  0  0  0
  1 10  1  0  0  0  0
  1 16  1  0  0  0  0
  2 16  2  0  0  0  0
  3 11  1  0  0  0  0
  3 17  1  0  0  0  0
  4 13  1  0  0  0  0
  4 26  1  0  0  0  0
  5 15  2  0  0  0  0
  6 15  1  0  0  0  0
  6 16  1  0  0  0  0
  6 22  1  0  0  0  0
  7  8  1  0  0  0  0
  7  9  2  0  0  0  0
  7 12  1  0  0  0  0
  8 10  2  3  0  0  0
  8 18  1  0  0  0  0
  9 11  1  0  0  0  0
  9 19  1  0  0  0  0
 10 15  1  0  0  0  0
 11 13  2  0  0  0  0
 12 14  2  0  0  0  0
 12 20  1  0  0  0  0
 13 14  1  0  0  0  0
 14 21  1  0  0  0  0
 17 23  1  0  0  0  0
 17 24  1  0  0  0  0
 17 25  1  0  0  0  0
M  END
> <PUBCHEM_COMPOUND_CID>
2831603

> <PUBCHEM_CONFORMER_RMSD>
0.6

> <PUBCHEM_CONFORMER_DIVERSEORDER>
2
3
6
1
5
4

> <PUBCHEM_MMFF94_PARTIAL_CHARGES>
23
1 -0.24
10 0.12
11 0.08
12 -0.15
13 0.08
14 -0.15
15 0.62
16 0.58
17 0.28
18 0.15
19 0.15
2 -0.38
20 0.15
21 0.15
22 0.37
26 0.45
3 -0.36
4 -0.53
5 -0.57
6 -0.49
7 0.03
8 -0.18
9 -0.15

> <PUBCHEM_EFFECTIVE_ROTOR_COUNT>
2.4

> <PUBCHEM_PHARMACOPHORE_FEATURES>
7
1 2 acceptor
1 3 acceptor
1 4 donor
1 5 acceptor
1 6 donor
5 1 6 10 15 16 rings
6 7 9 11 12 13 14 rings

> <PUBCHEM_HEAVY_ATOM_COUNT>
17

> <PUBCHEM_ATOM_DEF_STEREO_COUNT>
0

> <PUBCHEM_ATOM_UDEF_STEREO_COUNT>
0

> <PUBCHEM_BOND_DEF_STEREO_COUNT>
0

> <PUBCHEM_BOND_UDEF_STEREO_COUNT>
1

> <PUBCHEM_ISOTOPIC_ATOM_COUNT>
0

> <PUBCHEM_COMPONENT_COUNT>
1

> <PUBCHEM_CACTVS_TAUTO_COUNT>
9

> <PUBCHEM_CONFORMER_ID>
002B34F300000002

> <PUBCHEM_MMFF94_ENERGY>
48.3903

> <PUBCHEM_FEATURE_SELFOVERLAP>
35.522

> <PUBCHEM_SHAPE_FINGERPRINT>
10608611 8 18408039619576635644
10646746 165 18113334198164012036
11132069 177 18040438823600153259
11543360 7 17988345036349268743
12236239 1 16415485930306402306
12403259 415 18335988596828088573
14178342 30 17313099787029781618
15219456 202 18409167718559481230
15342168 16 18130233781792568320
15375358 24 18337381721300472904
1813 80 16842507569692217414
18186145 218 18202285788231044494
19049666 15 18261395481737319082
19433438 15 16558756671908484307
19784866 34 17702383039022926008
20510252 161 17968101893679577817
20645477 56 18409452513387766667
20645477 70 17988369191435609158
21033648 29 18335137587702821624
21065201 7 17675930884664826442
212916 134 17385994045086668233
21639500 275 17774999115773312594
22943178 12 18335991921265060194
231179 274 18341327890344890760
23402539 116 17676768760429286163
23503958 25 18187653491609501940
23557571 272 18113346318366484292
23559900 14 17895476921577284310
268830 7 18059583455300688187
27216 239 18261948665051147337
3082319 5 16056880251514265438
341906 21 17603579725158883604
474 4 17916866962486044752
495365 180 18264471923919987978
57096353 35 15985098634921257188
573450 72 15936405662978850499
6049 1 18335436663560798486
633830 44 17346053202654407142
7615 1 16558753382164222994
77492 1 16415484830763164962
90316 7 15719384023518194951

> <PUBCHEM_SHAPE_MULTIPOLES>
334.96
9.27
2.07
1.39
2.53
0.94
0.12
4.47
0.66
1.12
-0.27
-0.83
0.02
2.59

> <PUBCHEM_SHAPE_SELFOVERLAP>
693.986

> <PUBCHEM_SHAPE_VOLUME>
193.5

> <PUBCHEM_COORDINATE_TYPE>
2
5
10

$$$$
