44364084
  -OEChem-10062121593D

 60 68  0     1  0  0  0  0  0999 V2000
    0.8617   -1.2101   -3.0887 O   0  0  0  0  0  0  0  0  0  0  0  0
   -5.3288    0.0928    1.2201 O   0  0  0  0  0  0  0  0  0  0  0  0
   -3.1497    4.1088    0.6885 O   0  0  0  0  0  0  0  0  0  0  0  0
    1.8484   -1.3733   -0.3506 N   0  0  0  0  0  0  0  0  0  0  0  0
   -0.4585   -1.8398   -0.4393 N   0  0  0  0  0  0  0  0  0  0  0  0
    0.9497    0.7585   -0.7889 N   0  0  0  0  0  0  0  0  0  0  0  0
   -4.5512    2.2848    1.0658 N   0  0  0  0  0  0  0  0  0  0  0  0
    0.8491   -2.2826   -0.9015 C   0  0  1  0  0  0  0  0  0  0  0  0
    1.9853   -0.1846   -1.1854 C   0  0  2  0  0  0  0  0  0  0  0  0
   -1.0234   -0.6144   -0.2106 C   0  0  0  0  0  0  0  0  0  0  0  0
   -0.3493    0.6293   -0.3774 C   0  0  0  0  0  0  0  0  0  0  0  0
   -2.4007   -0.5178    0.2424 C   0  0  0  0  0  0  0  0  0  0  0  0
   -1.1389    1.8094   -0.0688 C   0  0  0  0  0  0  0  0  0  0  0  0
    0.8813   -2.4680   -2.4225 C   0  0  0  0  0  0  0  0  0  0  0  0
    1.9846   -0.4268   -2.6988 C   0  0  0  0  0  0  0  0  0  0  0  0
   -1.5240   -2.7022   -0.1469 C   0  0  0  0  0  0  0  0  0  0  0  0
    1.1069    2.1511   -0.7977 C   0  0  0  0  0  0  0  0  0  0  0  0
   -2.6704   -1.9587    0.2637 C   0  0  0  0  0  0  0  0  0  0  0  0
   -0.0945    2.7925   -0.3723 C   0  0  0  0  0  0  0  0  0  0  0  0
   -3.1122    0.6425    0.5254 C   0  0  0  0  0  0  0  0  0  0  0  0
   -2.4590    1.8467    0.3651 C   0  0  0  0  0  0  0  0  0  0  0  0
    3.1391   -2.0505   -0.1873 C   0  0  0  0  0  0  0  0  0  0  0  0
   -1.5671   -4.1116   -0.2217 C   0  0  0  0  0  0  0  0  0  0  0  0
    2.2396    2.9109   -1.1634 C   0  0  0  0  0  0  0  0  0  0  0  0
   -4.4686    0.9153    0.9782 C   0  0  0  0  0  0  0  0  0  0  0  0
   -3.3825    2.9170    0.7126 C   0  0  0  0  0  0  0  0  0  0  0  0
   -3.8346   -2.6947    0.6038 C   0  0  0  0  0  0  0  0  0  0  0  0
   -0.0910    4.2103   -0.3204 C   0  0  0  0  0  0  0  0  0  0  0  0
    4.0289   -1.3327    0.7924 C   0  0  0  0  0  0  0  0  0  0  0  0
   -2.7369   -4.7885    0.1213 C   0  0  0  0  0  0  0  0  0  0  0  0
    2.1915    4.3029   -1.0972 C   0  0  0  0  0  0  0  0  0  0  0  0
   -3.8582   -4.0899    0.5321 C   0  0  0  0  0  0  0  0  0  0  0  0
    1.0409    4.9471   -0.6784 C   0  0  0  0  0  0  0  0  0  0  0  0
    5.4150   -1.3910    0.6476 C   0  0  0  0  0  0  0  0  0  0  0  0
    3.4674   -0.6094    1.8445 C   0  0  0  0  0  0  0  0  0  0  0  0
    6.2398   -0.7260    1.5551 C   0  0  0  0  0  0  0  0  0  0  0  0
    4.2919    0.0556    2.7520 C   0  0  0  0  0  0  0  0  0  0  0  0
    5.6782   -0.0027    2.6073 C   0  0  0  0  0  0  0  0  0  0  0  0
    0.9832   -3.2674   -0.4395 H   0  0  0  0  0  0  0  0  0  0  0  0
    2.9255    0.3206   -0.9399 H   0  0  0  0  0  0  0  0  0  0  0  0
    1.7757   -3.0225   -2.7318 H   0  0  0  0  0  0  0  0  0  0  0  0
    0.0121   -3.0363   -2.7704 H   0  0  0  0  0  0  0  0  0  0  0  0
    2.9026   -0.9325   -3.0215 H   0  0  0  0  0  0  0  0  0  0  0  0
    1.9292    0.5186   -3.2491 H   0  0  0  0  0  0  0  0  0  0  0  0
    2.9955   -3.0530    0.2379 H   0  0  0  0  0  0  0  0  0  0  0  0
    3.6473   -2.1872   -1.1501 H   0  0  0  0  0  0  0  0  0  0  0  0
   -0.7031   -4.6844   -0.5458 H   0  0  0  0  0  0  0  0  0  0  0  0
    3.1541    2.4314   -1.5003 H   0  0  0  0  0  0  0  0  0  0  0  0
   -4.7379   -2.1888    0.9257 H   0  0  0  0  0  0  0  0  0  0  0  0
   -0.9718    4.7573   -0.0034 H   0  0  0  0  0  0  0  0  0  0  0  0
   -5.3873    2.7775    1.3593 H   0  0  0  0  0  0  0  0  0  0  0  0
   -2.7659   -5.8732    0.0640 H   0  0  0  0  0  0  0  0  0  0  0  0
    3.0656    4.8842   -1.3779 H   0  0  0  0  0  0  0  0  0  0  0  0
   -4.7649   -4.6266    0.7976 H   0  0  0  0  0  0  0  0  0  0  0  0
    1.0136    6.0322   -0.6300 H   0  0  0  0  0  0  0  0  0  0  0  0
    5.8645   -1.9523   -0.1672 H   0  0  0  0  0  0  0  0  0  0  0  0
    2.3934   -0.5583    1.9996 H   0  0  0  0  0  0  0  0  0  0  0  0
    7.3191   -0.7718    1.4428 H   0  0  0  0  0  0  0  0  0  0  0  0
    3.8551    0.6154    3.5738 H   0  0  0  0  0  0  0  0  0  0  0  0
    6.3201    0.5142    3.3146 H   0  0  0  0  0  0  0  0  0  0  0  0
  1 14  1  0  0  0  0
  1 15  1  0  0  0  0
  2 25  2  0  0  0  0
  3 26  2  0  0  0  0
  4  8  1  0  0  0  0
  4  9  1  0  0  0  0
  4 22  1  0  0  0  0
  5  8  1  0  0  0  0
  5 10  1  0  0  0  0
  5 16  1  0  0  0  0
  6  9  1  0  0  0  0
  6 11  1  0  0  0  0
  6 17  1  0  0  0  0
  7 25  1  0  0  0  0
  7 26  1  0  0  0  0
  7 51  1  0  0  0  0
  8 14  1  0  0  0  0
  8 39  1  0  0  0  0
  9 15  1  0  0  0  0
  9 40  1  0  0  0  0
 10 11  2  0  0  0  0
 10 12  1  0  0  0  0
 11 13  1  0  0  0  0
 12 18  1  0  0  0  0
 12 20  2  0  0  0  0
 13 19  1  0  0  0  0
 13 21  2  0  0  0  0
 14 41  1  0  0  0  0
 14 42  1  0  0  0  0
 15 43  1  0  0  0  0
 15 44  1  0  0  0  0
 16 18  1  0  0  0  0
 16 23  2  0  0  0  0
 17 19  1  0  0  0  0
 17 24  2  0  0  0  0
 18 27  2  0  0  0  0
 19 28  2  0  0  0  0
 20 21  1  0  0  0  0
 20 25  1  0  0  0  0
 21 26  1  0  0  0  0
 22 29  1  0  0  0  0
 22 45  1  0  0  0  0
 22 46  1  0  0  0  0
 23 30  1  0  0  0  0
 23 47  1  0  0  0  0
 24 31  1  0  0  0  0
 24 48  1  0  0  0  0
 27 32  1  0  0  0  0
 27 49  1  0  0  0  0
 28 33  1  0  0  0  0
 28 50  1  0  0  0  0
 29 34  2  0  0  0  0
 29 35  1  0  0  0  0
 30 32  2  0  0  0  0
 30 52  1  0  0  0  0
 31 33  2  0  0  0  0
 31 53  1  0  0  0  0
 32 54  1  0  0  0  0
 33 55  1  0  0  0  0
 34 36  1  0  0  0  0
 34 56  1  0  0  0  0
 35 37  2  0  0  0  0
 35 57  1  0  0  0  0
 36 38  2  0  0  0  0
 36 58  1  0  0  0  0
 37 38  1  0  0  0  0
 37 59  1  0  0  0  0
 38 60  1  0  0  0  0
M  END
> <PUBCHEM_COMPOUND_CID>
44364084

> <PUBCHEM_CONFORMER_RMSD>
0.8

> <PUBCHEM_CONFORMER_DIVERSEORDER>
2
1

> <PUBCHEM_MMFF94_PARTIAL_CHARGES>
50
1 -0.56
10 -0.05
11 -0.05
12 -0.01
13 -0.01
14 0.28
15 0.28
16 -0.15
17 -0.15
2 -0.57
20 0.09
21 0.09
22 0.41
23 -0.15
24 -0.15
25 0.54
26 0.54
27 -0.15
28 -0.15
29 -0.14
3 -0.57
30 -0.15
31 -0.15
32 -0.15
33 -0.15
34 -0.15
35 -0.15
36 -0.15
37 -0.15
38 -0.15
4 -0.81
47 0.15
48 0.15
49 0.15
5 -0.04
50 0.15
51 0.37
52 0.15
53 0.15
54 0.15
55 0.15
56 0.15
57 0.15
58 0.15
59 0.15
6 -0.04
60 0.15
7 -0.49
8 0.53
9 0.53

> <PUBCHEM_EFFECTIVE_ROTOR_COUNT>
3

> <PUBCHEM_PHARMACOPHORE_FEATURES>
16
1 1 acceptor
1 2 acceptor
1 3 acceptor
1 4 cation
1 5 cation
1 6 cation
1 7 donor
5 5 10 12 16 18 rings
5 6 11 13 17 19 rings
5 7 20 21 25 26 rings
6 1 4 8 9 14 15 rings
6 10 11 12 13 20 21 rings
6 16 18 23 27 30 32 rings
6 17 19 24 28 31 33 rings
6 29 34 35 36 37 38 rings
7 4 5 6 8 9 10 11 rings

> <PUBCHEM_HEAVY_ATOM_COUNT>
38

> <PUBCHEM_ATOM_DEF_STEREO_COUNT>
2

> <PUBCHEM_ATOM_UDEF_STEREO_COUNT>
0

> <PUBCHEM_BOND_DEF_STEREO_COUNT>
0

> <PUBCHEM_BOND_UDEF_STEREO_COUNT>
0

> <PUBCHEM_ISOTOPIC_ATOM_COUNT>
0

> <PUBCHEM_COMPONENT_COUNT>
1

> <PUBCHEM_CACTVS_TAUTO_COUNT>
2

> <PUBCHEM_CONFORMER_ID>
02A4F13400000002

> <PUBCHEM_MMFF94_ENERGY>
153.1671

> <PUBCHEM_FEATURE_SELFOVERLAP>
82.638

> <PUBCHEM_SHAPE_FINGERPRINT>
10006869 2 17981609582826311415
10074138 170 18193810714091866730
10290309 65 17976252435826623098
10675989 125 18337394946122326295
1100329 8 18409174320282904907
11115154 58 17268582816632870215
11578080 2 16702310048656759867
12422481 6 18343021120528387082
12608794 3 18334849499067364813
12758862 11 17766874670513262758
13140716 1 18411984701556522965
140371 6 18339634637642612303
14705955 166 17845366657207621696
14856354 85 18334848421415980938
15297060 5 17548735908998054197
15324884 4 17702406003438150447
15950262 2 15840705150271429265
16114785 44 17761728989980001248
17980427 23 18272642476298105453
18681886 176 17756180836930689670
20600515 1 18412829058004736988
20764821 26 18267599064370989559
21033648 29 18128524977582845776
21421861 104 18119541082957834827
23559900 14 18129685022542916830
24771293 8 18200312092256679961
3882209 13 18054768836186874343
3886686 26 18412536605213191040
5265222 85 17400661328839664334
6004065 56 18339911611942093701

> <PUBCHEM_SHAPE_MULTIPOLES>
744.49
9.73
6.56
2.07
6
3.66
-0.44
-4.18
8.32
-4.45
-1.07
2.81
-0.57
-1.83

> <PUBCHEM_SHAPE_SELFOVERLAP>
1737.808

> <PUBCHEM_SHAPE_VOLUME>
375.3

> <PUBCHEM_COORDINATE_TYPE>
2
5
10

$$$$
