49830386
  -OEChem-10052120443D

 43 46  0     0  0  0  0  0  0999 V2000
    8.0681   -1.3391    1.5108 S   0  0  0  0  0  0  0  0  0  0  0  0
   -7.5761   -1.7023   -0.8734 F   0  0  0  0  0  0  0  0  0  0  0  0
   -7.2052    1.7898    1.3866 F   0  0  0  0  0  0  0  0  0  0  0  0
   -8.3636    1.0572   -0.3014 F   0  0  0  0  0  0  0  0  0  0  0  0
   -8.2209   -0.1288    1.5088 F   0  0  0  0  0  0  0  0  0  0  0  0
   -1.1455   -1.0014   -0.9250 O   0  0  0  0  0  0  0  0  0  0  0  0
   -0.3085    0.8582    0.2287 N   0  0  0  0  0  0  0  0  0  0  0  0
   -2.5868    0.4829    0.1650 N   0  0  0  0  0  0  0  0  0  0  0  0
    6.6402   -1.6142    2.3031 N   0  0  0  0  0  0  0  0  0  0  0  0
    5.2557    0.4192   -0.5054 C   0  0  0  0  0  0  0  0  0  0  0  0
    3.8277    0.5319   -0.3169 C   0  0  0  0  0  0  0  0  0  0  0  0
    6.0226   -0.3087    0.4308 C   0  0  0  0  0  0  0  0  0  0  0  0
    7.4012   -0.4052    0.2288 C   0  0  0  0  0  0  0  0  0  0  0  0
    5.8835    1.0210   -1.6006 C   0  0  0  0  0  0  0  0  0  0  0  0
    2.9735   -0.4202   -0.8734 C   0  0  0  0  0  0  0  0  0  0  0  0
    3.3032    1.5925    0.4217 C   0  0  0  0  0  0  0  0  0  0  0  0
    1.0704    0.7493    0.0468 C   0  0  0  0  0  0  0  0  0  0  0  0
    1.5950   -0.3116   -0.6916 C   0  0  0  0  0  0  0  0  0  0  0  0
    1.9245    1.7014    0.6034 C   0  0  0  0  0  0  0  0  0  0  0  0
    8.0413    0.1943   -0.8669 C   0  0  0  0  0  0  0  0  0  0  0  0
    7.2584    0.9084   -1.7771 C   0  0  0  0  0  0  0  0  0  0  0  0
    5.6665   -1.0174    1.6235 C   0  0  0  0  0  0  0  0  0  0  0  0
   -3.8610   -0.0731   -0.0980 C   0  0  0  0  0  0  0  0  0  0  0  0
   -6.2644   -0.0020    0.1387 C   0  0  0  0  0  0  0  0  0  0  0  0
   -5.0082    0.5458    0.3987 C   0  0  0  0  0  0  0  0  0  0  0  0
   -1.3332    0.0051   -0.2492 C   0  0  0  0  0  0  0  0  0  0  0  0
   -3.9701   -1.2399   -0.8545 C   0  0  0  0  0  0  0  0  0  0  0  0
   -6.3733   -1.1687   -0.6180 C   0  0  0  0  0  0  0  0  0  0  0  0
   -5.2262   -1.7877   -1.1146 C   0  0  0  0  0  0  0  0  0  0  0  0
   -7.4888    0.6630    0.6707 C   0  0  0  0  0  0  0  0  0  0  0  0
    5.3037    1.5845   -2.3285 H   0  0  0  0  0  0  0  0  0  0  0  0
    3.3674   -1.2530   -1.4515 H   0  0  0  0  0  0  0  0  0  0  0  0
    3.9551    2.3432    0.8625 H   0  0  0  0  0  0  0  0  0  0  0  0
    1.0020   -1.0879   -1.1535 H   0  0  0  0  0  0  0  0  0  0  0  0
    1.5296    2.5331    1.1812 H   0  0  0  0  0  0  0  0  0  0  0  0
    9.1141    0.1095   -1.0092 H   0  0  0  0  0  0  0  0  0  0  0  0
    7.7315    1.3816   -2.6336 H   0  0  0  0  0  0  0  0  0  0  0  0
    4.6669   -1.1127    2.0269 H   0  0  0  0  0  0  0  0  0  0  0  0
   -0.6150    1.6574    0.7779 H   0  0  0  0  0  0  0  0  0  0  0  0
   -4.9149    1.4551    0.9875 H   0  0  0  0  0  0  0  0  0  0  0  0
   -2.5894    1.3331    0.7228 H   0  0  0  0  0  0  0  0  0  0  0  0
   -3.1319   -1.7778   -1.2735 H   0  0  0  0  0  0  0  0  0  0  0  0
   -5.3129   -2.6961   -1.7037 H   0  0  0  0  0  0  0  0  0  0  0  0
  1  9  1  0  0  0  0
  1 13  1  0  0  0  0
  2 28  1  0  0  0  0
  3 30  1  0  0  0  0
  4 30  1  0  0  0  0
  5 30  1  0  0  0  0
  6 26  2  0  0  0  0
  7 17  1  0  0  0  0
  7 26  1  0  0  0  0
  7 39  1  0  0  0  0
  8 23  1  0  0  0  0
  8 26  1  0  0  0  0
  8 41  1  0  0  0  0
  9 22  2  0  0  0  0
 10 11  1  0  0  0  0
 10 12  2  0  0  0  0
 10 14  1  0  0  0  0
 11 15  2  0  0  0  0
 11 16  1  0  0  0  0
 12 13  1  0  0  0  0
 12 22  1  0  0  0  0
 13 20  2  0  0  0  0
 14 21  2  0  0  0  0
 14 31  1  0  0  0  0
 15 18  1  0  0  0  0
 15 32  1  0  0  0  0
 16 19  2  0  0  0  0
 16 33  1  0  0  0  0
 17 18  2  0  0  0  0
 17 19  1  0  0  0  0
 18 34  1  0  0  0  0
 19 35  1  0  0  0  0
 20 21  1  0  0  0  0
 20 36  1  0  0  0  0
 21 37  1  0  0  0  0
 22 38  1  0  0  0  0
 23 25  2  0  0  0  0
 23 27  1  0  0  0  0
 24 25  1  0  0  0  0
 24 28  2  0  0  0  0
 24 30  1  0  0  0  0
 25 40  1  0  0  0  0
 27 29  2  0  0  0  0
 27 42  1  0  0  0  0
 28 29  1  0  0  0  0
 29 43  1  0  0  0  0
M  END
> <PUBCHEM_COMPOUND_CID>
49830386

> <PUBCHEM_CONFORMER_RMSD>
0.8

> <PUBCHEM_CONFORMER_DIVERSEORDER>
1
14
38
32
17
24
31
42
15
4
25
13
9
18
37
46
6
16
12
23
47
36
34
3
20
11
40
19
30
27
21
5
35
22
39
2
45
7
33
26
10
41
8
29
43
44
28

> <PUBCHEM_MMFF94_PARTIAL_CHARGES>
40
1 0.18
13 0.04
14 -0.15
15 -0.15
16 -0.15
17 0.12
18 -0.15
19 -0.15
2 -0.19
20 -0.15
21 -0.15
22 0.14
23 0.12
24 -0.14
25 -0.15
26 0.69
27 -0.15
28 0.19
29 -0.15
3 -0.34
30 1.16
31 0.15
32 0.15
33 0.15
34 0.15
35 0.15
36 0.15
37 0.15
38 0.15
39 0.37
4 -0.34
40 0.15
41 0.37
42 0.15
43 0.15
5 -0.34
6 -0.57
7 -0.55
8 -0.55
9 -0.51

> <PUBCHEM_EFFECTIVE_ROTOR_COUNT>
6

> <PUBCHEM_PHARMACOPHORE_FEATURES>
8
1 6 acceptor
1 7 donor
1 8 donor
1 9 acceptor
5 1 9 12 13 22 rings
6 10 12 13 14 20 21 rings
6 11 15 16 17 18 19 rings
6 23 24 25 27 28 29 rings

> <PUBCHEM_HEAVY_ATOM_COUNT>
30

> <PUBCHEM_ATOM_DEF_STEREO_COUNT>
0

> <PUBCHEM_ATOM_UDEF_STEREO_COUNT>
0

> <PUBCHEM_BOND_DEF_STEREO_COUNT>
0

> <PUBCHEM_BOND_UDEF_STEREO_COUNT>
0

> <PUBCHEM_ISOTOPIC_ATOM_COUNT>
0

> <PUBCHEM_COMPONENT_COUNT>
1

> <PUBCHEM_CACTVS_TAUTO_COUNT>
9

> <PUBCHEM_CONFORMER_ID>
02F859F200000001

> <PUBCHEM_MMFF94_ENERGY>
81.425

> <PUBCHEM_FEATURE_SELFOVERLAP>
40.703

> <PUBCHEM_SHAPE_FINGERPRINT>
100830 39 18130511847430890233
10299344 5 18333450949787300654
11135926 11 18272081678651301239
11181472 205 18188215295118112804
11315181 36 11024105461300944389
11719270 70 17704356571947412886
12082328 90 17022902337827028301
12089408 11 18411138052197341814
12144603 126 18411136974825305628
12838862 33 17632285749399357949
13533116 47 17894625947301547648
13885169 127 17703795808243029809
14040222 383 18342739667264772695
14068700 675 18343023306504132632
14251764 18 18408323293534377823
14251764 46 16773801393989605188
14294032 229 18127988424435940056
14344974 52 14907892770712972281
15119646 104 18261671493869297650
15183329 4 18411983572096136198
15301273 46 16845575305553553204
15328684 2 18266739091189963216
15352257 5 17313386746490000866
15419008 47 16487253253348529656
15419008 91 16845280627378390344
15461852 350 14764340549248329805
15510794 2 16200433576168571934
1577012 14 18408603690521874222
15849732 13 16200434671438310988
17093844 174 16415477160811183719
19301679 30 18267582395924758106
20105231 36 14779550067303227993
20157964 124 13039189213292451948
2026 5 17169535326243228914
21095086 128 17240484723933354867
21150785 3 9439400237737682179
21344244 181 16225766286203718480
22224240 67 14836403635916348876
22956985 138 17910397187594072142
23081809 10 18260267447542966772
23516275 137 18042702619326874866
23522609 53 18191048788207440716
249057 3 17988926691186073949
2835820 82 17677885735426257002
3004659 81 18272936059326018212
3383291 50 17489305334427829903
34797466 226 15574716911350344196
397638 26 16917067784816781335
397830 11 15625646354046792998
4073 2 18339082721391303523
4098825 35 17313657157947117052
44389302 135 18341039715747732922
5219985 9 18408040714788723084
59755656 520 18114178670639990883

> <PUBCHEM_SHAPE_MULTIPOLES>
571.33
30.73
1.58
1.48
22.82
0.45
-0.01
5.28
2.22
-3
0.28
1.09
0.13
-3.59

> <PUBCHEM_SHAPE_SELFOVERLAP>
1258.459

> <PUBCHEM_SHAPE_VOLUME>
312.8

> <PUBCHEM_COORDINATE_TYPE>
2
5
10

$$$$
