70789756
  -OEChem-10062121573D

 68 71  0     0  0  0  0  0  0999 V2000
   -3.8373   -0.6837    1.3400 O   0  0  0  0  0  0  0  0  0  0  0  0
   -2.8643    0.1195   -1.4365 O   0  0  0  0  0  0  0  0  0  0  0  0
    5.7806   -0.0135   -1.5496 O   0  0  0  0  0  0  0  0  0  0  0  0
   -0.9629   -1.2364   -0.1179 N   0  0  0  0  0  0  0  0  0  0  0  0
   -5.5994    0.8307    0.9612 N   0  0  0  0  0  0  0  0  0  0  0  0
    1.1186   -0.1678   -0.0119 N   0  0  0  0  0  0  0  0  0  0  0  0
   -2.8635    2.3698   -0.8771 N   0  0  0  0  0  0  0  0  0  0  0  0
    1.3125    2.1506   -0.6401 N   0  0  0  0  0  0  0  0  0  0  0  0
    3.1865    0.9368    0.0813 N   0  0  0  0  0  0  0  0  0  0  0  0
   -0.4259   -2.4962    0.3508 C   0  0  0  0  0  0  0  0  0  0  0  0
   -1.5439   -3.4148    0.8279 C   0  0  0  0  0  0  0  0  0  0  0  0
    0.1861   -3.2834   -0.8016 C   0  0  0  0  0  0  0  0  0  0  0  0
   -2.1120   -4.0350   -0.4465 C   0  0  0  0  0  0  0  0  0  0  0  0
   -0.9988   -3.9563   -1.4912 C   0  0  0  0  0  0  0  0  0  0  0  0
   -0.1988   -0.0956   -0.2938 C   0  0  0  0  0  0  0  0  0  0  0  0
   -7.0056    0.7480    0.6446 C   0  0  0  0  0  0  0  0  0  0  0  0
   -7.1402   -0.6330    0.0348 C   0  0  0  0  0  0  0  0  0  0  0  0
   -4.9694    2.0909    1.2900 C   0  0  0  0  0  0  0  0  0  0  0  0
   -6.0558   -1.4474    0.7301 C   0  0  0  0  0  0  0  0  0  0  0  0
   -4.9917   -0.4203    1.0381 C   0  0  0  0  0  0  0  0  0  0  0  0
   -5.0057    3.0846    0.1308 C   0  0  0  0  0  0  0  0  0  0  0  0
   -0.8245    1.0479   -0.7467 C   0  0  0  0  0  0  0  0  0  0  0  0
   -4.2695    2.6029   -1.1175 C   0  0  0  0  0  0  0  0  0  0  0  0
   -2.2435    1.1274   -1.0543 C   0  0  0  0  0  0  0  0  0  0  0  0
   -0.0110    2.1515   -0.9028 C   0  0  0  0  0  0  0  0  0  0  0  0
    1.8043    0.9751   -0.2045 C   0  0  0  0  0  0  0  0  0  0  0  0
    3.8487   -0.2397    0.5510 C   0  0  0  0  0  0  0  0  0  0  0  0
    5.3052    0.0387    0.7993 C   0  0  0  0  0  0  0  0  0  0  0  0
    6.2032    0.1388   -0.2632 C   0  0  0  0  0  0  0  0  0  0  0  0
    5.7553    0.1969    2.1101 C   0  0  0  0  0  0  0  0  0  0  0  0
    7.5512    0.3972   -0.0152 C   0  0  0  0  0  0  0  0  0  0  0  0
    7.1034    0.4553    2.3582 C   0  0  0  0  0  0  0  0  0  0  0  0
    8.0015    0.5555    1.2956 C   0  0  0  0  0  0  0  0  0  0  0  0
    6.7665    0.1048   -2.5734 C   0  0  0  0  0  0  0  0  0  0  0  0
    0.2920   -2.3315    1.1623 H   0  0  0  0  0  0  0  0  0  0  0  0
   -1.1235   -4.2100    1.4562 H   0  0  0  0  0  0  0  0  0  0  0  0
   -2.3137   -2.9024    1.4117 H   0  0  0  0  0  0  0  0  0  0  0  0
    0.7672   -2.6731   -1.4999 H   0  0  0  0  0  0  0  0  0  0  0  0
    0.8540   -4.0568   -0.4020 H   0  0  0  0  0  0  0  0  0  0  0  0
   -2.9863   -3.4700   -0.7904 H   0  0  0  0  0  0  0  0  0  0  0  0
   -2.4372   -5.0662   -0.2756 H   0  0  0  0  0  0  0  0  0  0  0  0
   -0.7271   -4.9462   -1.8716 H   0  0  0  0  0  0  0  0  0  0  0  0
   -1.3339   -3.3576   -2.3461 H   0  0  0  0  0  0  0  0  0  0  0  0
   -1.8504   -1.2802   -0.6060 H   0  0  0  0  0  0  0  0  0  0  0  0
   -7.3149    1.5254   -0.0571 H   0  0  0  0  0  0  0  0  0  0  0  0
   -7.5740    0.8392    1.5760 H   0  0  0  0  0  0  0  0  0  0  0  0
   -6.9254   -0.5858   -1.0403 H   0  0  0  0  0  0  0  0  0  0  0  0
   -8.1399   -1.0582    0.1597 H   0  0  0  0  0  0  0  0  0  0  0  0
   -3.9379    1.9062    1.6088 H   0  0  0  0  0  0  0  0  0  0  0  0
   -5.5031    2.5078    2.1516 H   0  0  0  0  0  0  0  0  0  0  0  0
   -5.6628   -2.2371    0.0851 H   0  0  0  0  0  0  0  0  0  0  0  0
   -6.4162   -1.8737    1.6714 H   0  0  0  0  0  0  0  0  0  0  0  0
   -4.5478    4.0212    0.4738 H   0  0  0  0  0  0  0  0  0  0  0  0
   -6.0394    3.3294   -0.1367 H   0  0  0  0  0  0  0  0  0  0  0  0
   -4.3265    3.3786   -1.8889 H   0  0  0  0  0  0  0  0  0  0  0  0
   -4.7410    1.7034   -1.5258 H   0  0  0  0  0  0  0  0  0  0  0  0
   -2.3252    3.1629   -0.5444 H   0  0  0  0  0  0  0  0  0  0  0  0
   -0.3733    3.1026   -1.2786 H   0  0  0  0  0  0  0  0  0  0  0  0
    3.6987    1.7997   -0.0644 H   0  0  0  0  0  0  0  0  0  0  0  0
    3.3783   -0.5974    1.4760 H   0  0  0  0  0  0  0  0  0  0  0  0
    3.7570   -1.0575   -0.1754 H   0  0  0  0  0  0  0  0  0  0  0  0
    5.0678    0.1240    2.9486 H   0  0  0  0  0  0  0  0  0  0  0  0
    8.3060    0.4885   -0.7886 H   0  0  0  0  0  0  0  0  0  0  0  0
    7.4539    0.5790    3.3787 H   0  0  0  0  0  0  0  0  0  0  0  0
    9.0510    0.7569    1.4901 H   0  0  0  0  0  0  0  0  0  0  0  0
    6.2556   -0.0439   -3.5305 H   0  0  0  0  0  0  0  0  0  0  0  0
    7.5269   -0.6796   -2.4948 H   0  0  0  0  0  0  0  0  0  0  0  0
    7.2029    1.1092   -2.5998 H   0  0  0  0  0  0  0  0  0  0  0  0
  1 20  2  0  0  0  0
  2 24  2  0  0  0  0
  3 29  1  0  0  0  0
  3 34  1  0  0  0  0
  4 10  1  0  0  0  0
  4 15  1  0  0  0  0
  4 44  1  0  0  0  0
  5 16  1  0  0  0  0
  5 18  1  0  0  0  0
  5 20  1  0  0  0  0
  6 15  2  0  0  0  0
  6 26  1  0  0  0  0
  7 23  1  0  0  0  0
  7 24  1  0  0  0  0
  7 57  1  0  0  0  0
  8 25  1  0  0  0  0
  8 26  2  0  0  0  0
  9 26  1  0  0  0  0
  9 27  1  0  0  0  0
  9 59  1  0  0  0  0
 10 11  1  0  0  0  0
 10 12  1  0  0  0  0
 10 35  1  0  0  0  0
 11 13  1  0  0  0  0
 11 36  1  0  0  0  0
 11 37  1  0  0  0  0
 12 14  1  0  0  0  0
 12 38  1  0  0  0  0
 12 39  1  0  0  0  0
 13 14  1  0  0  0  0
 13 40  1  0  0  0  0
 13 41  1  0  0  0  0
 14 42  1  0  0  0  0
 14 43  1  0  0  0  0
 15 22  1  0  0  0  0
 16 17  1  0  0  0  0
 16 45  1  0  0  0  0
 16 46  1  0  0  0  0
 17 19  1  0  0  0  0
 17 47  1  0  0  0  0
 17 48  1  0  0  0  0
 18 21  1  0  0  0  0
 18 49  1  0  0  0  0
 18 50  1  0  0  0  0
 19 20  1  0  0  0  0
 19 51  1  0  0  0  0
 19 52  1  0  0  0  0
 21 23  1  0  0  0  0
 21 53  1  0  0  0  0
 21 54  1  0  0  0  0
 22 24  1  0  0  0  0
 22 25  2  0  0  0  0
 23 55  1  0  0  0  0
 23 56  1  0  0  0  0
 25 58  1  0  0  0  0
 27 28  1  0  0  0  0
 27 60  1  0  0  0  0
 27 61  1  0  0  0  0
 28 29  1  0  0  0  0
 28 30  2  0  0  0  0
 29 31  2  0  0  0  0
 30 32  1  0  0  0  0
 30 62  1  0  0  0  0
 31 33  1  0  0  0  0
 31 63  1  0  0  0  0
 32 33  2  0  0  0  0
 32 64  1  0  0  0  0
 33 65  1  0  0  0  0
 34 66  1  0  0  0  0
 34 67  1  0  0  0  0
 34 68  1  0  0  0  0
M  END
> <PUBCHEM_COMPOUND_CID>
70789756

> <PUBCHEM_CONFORMER_RMSD>
1.4

> <PUBCHEM_CONFORMER_DIVERSEORDER>
1
146
67
143
107
93
17
83
175
166
63
163
48
138
105
170
134
81
80
171
162
141
65
176
49
53
66
144
46
34
155
117
179
36
58
61
79
89
97
56
136
112
24
99
29
50
161
169
174
147
139
140
158
52
160
100
4
151
159
106
82
131
116
18
71
69
87
76
110
7
33
153
41
70
132
32
173
19
130
54
148
115
31
109
121
128
177
178
127
137
135
74
45
25
167
68
103
92
129
165
21
15
6
40
123
119
47
104
94
172
118
113
98
95
102
91
156
78
9
84
149
152
44
51
90
26
11
72
23
16
126
120
38
27
150
86
75
14
10
145
77
114
42
8
85
59
88
96
37
55
154
12
142
164
157
125
60
101
62
3
13
35
64
73
133
111
108
39
5
124
168
20
57
122
30
43
28
2
22

> <PUBCHEM_MMFF94_PARTIAL_CHARGES>
36
1 -0.57
10 0.37
15 0.41
16 0.3
18 0.3
19 0.06
2 -0.57
20 0.57
22 0.09
23 0.3
24 0.54
25 0.16
26 0.72
27 0.51
28 -0.14
29 0.08
3 -0.36
30 -0.15
31 -0.15
32 -0.15
33 -0.15
34 0.28
4 -0.87
44 0.4
5 -0.66
57 0.37
58 0.15
59 0.4
6 -0.62
62 0.15
63 0.15
64 0.15
65 0.15
7 -0.73
8 -0.62
9 -0.87

> <PUBCHEM_EFFECTIVE_ROTOR_COUNT>
13.8

> <PUBCHEM_PHARMACOPHORE_FEATURES>
11
1 1 acceptor
1 2 acceptor
1 3 acceptor
1 4 donor
1 7 donor
1 9 donor
4 6 8 9 26 cation
5 10 11 12 13 14 rings
5 5 16 17 19 20 rings
6 28 29 30 31 32 33 rings
6 6 8 15 22 25 26 rings

> <PUBCHEM_HEAVY_ATOM_COUNT>
34

> <PUBCHEM_ATOM_DEF_STEREO_COUNT>
0

> <PUBCHEM_ATOM_UDEF_STEREO_COUNT>
0

> <PUBCHEM_BOND_DEF_STEREO_COUNT>
0

> <PUBCHEM_BOND_UDEF_STEREO_COUNT>
0

> <PUBCHEM_ISOTOPIC_ATOM_COUNT>
0

> <PUBCHEM_COMPONENT_COUNT>
1

> <PUBCHEM_CACTVS_TAUTO_COUNT>
42

> <PUBCHEM_CONFORMER_ID>
04382A7C00000001

> <PUBCHEM_MMFF94_ENERGY>
94.6187

> <PUBCHEM_FEATURE_SELFOVERLAP>
55.823

> <PUBCHEM_SHAPE_FINGERPRINT>
10010297 198 17751064830533102363
10815517 723 18340198696018895015
11007060 377 18130771383139100605
11136131 41 18189329070401467715
11524674 6 18272932734736481703
12838863 1 18262232357154662299
13540713 5 18046346611181962468
14117953 113 18408039633416138293
14294032 229 18260830376105889684
14856354 85 17749114391562804289
14866123 147 18336259154098789739
15021287 119 17312821593323598124
15328829 1 17241344567606110838
16112460 7 18265334082854487912
17913733 40 18271807870048314443
21795232 338 18339355392491809120
23522609 53 17314818237963568172
255183 313 18412254047572074183
3383291 50 18413105086773200579
4017518 198 18059868272211342254
437795 51 17632580426942149030
4403749 210 18336816537969670185
5265222 85 18338247075764292932
6669772 16 18130228151080368782
6691757 9 18340187653615505550
9896288 288 18200601268173107809

> <PUBCHEM_SHAPE_MULTIPOLES>
652.21
21.4
3.87
1.75
23.2
3.99
0.04
-7.93
-7.35
-6.25
1.12
2.77
-0.11
0.61

> <PUBCHEM_SHAPE_SELFOVERLAP>
1378.118

> <PUBCHEM_SHAPE_VOLUME>
363.9

> <PUBCHEM_COORDINATE_TYPE>
2
5
10

$$$$
