5360741
  -OEChem-10062122023D

 32 34  0     0  0  0  0  0  0999 V2000
   -1.2379    2.1006    0.0002 O   0  0  0  0  0  0  0  0  0  0  0  0
    3.4427   -2.2706   -0.0007 O   0  0  0  0  0  0  0  0  0  0  0  0
    2.9746    2.4337   -0.0005 O   0  0  0  0  0  0  0  0  0  0  0  0
   -5.2784   -0.4282   -0.0002 O   0  0  0  0  0  0  0  0  0  0  0  0
    0.6058    3.4165   -0.0005 O   0  0  0  0  0  0  0  0  0  0  0  0
   -1.0837   -0.3375    0.0004 C   0  0  0  0  0  0  0  0  0  0  0  0
    0.3797   -0.2192    0.0008 C   0  0  0  0  0  0  0  0  0  0  0  0
    0.9686    1.0576    0.0006 C   0  0  0  0  0  0  0  0  0  0  0  0
   -1.7885   -1.5525    0.0000 C   0  0  0  0  0  0  0  0  0  0  0  0
   -1.8512    0.8296    0.0001 C   0  0  0  0  0  0  0  0  0  0  0  0
    1.2449   -1.3296    0.0007 C   0  0  0  0  0  0  0  0  0  0  0  0
    2.3642    1.2136    0.0005 C   0  0  0  0  0  0  0  0  0  0  0  0
    0.1379    2.2857    0.0000 C   0  0  0  0  0  0  0  0  0  0  0  0
   -3.1894   -1.5817   -0.0009 C   0  0  0  0  0  0  0  0  0  0  0  0
   -3.2486    0.8207   -0.0002 C   0  0  0  0  0  0  0  0  0  0  0  0
    2.6344   -1.1744    0.0002 C   0  0  0  0  0  0  0  0  0  0  0  0
   -3.9187   -0.3960   -0.0007 C   0  0  0  0  0  0  0  0  0  0  0  0
    3.1937    0.0967    0.0002 C   0  0  0  0  0  0  0  0  0  0  0  0
   -1.2000   -2.9267    0.0009 C   0  0  0  0  0  0  0  0  0  0  0  0
    4.8501   -2.0385   -0.0011 C   0  0  0  0  0  0  0  0  0  0  0  0
    0.9505   -2.3602    0.0005 H   0  0  0  0  0  0  0  0  0  0  0  0
   -3.7985    1.7578   -0.0001 H   0  0  0  0  0  0  0  0  0  0  0  0
   -3.7380   -2.5213   -0.0011 H   0  0  0  0  0  0  0  0  0  0  0  0
    4.2644    0.2705   -0.0003 H   0  0  0  0  0  0  0  0  0  0  0  0
   -0.6329   -3.1149   -0.9161 H   0  0  0  0  0  0  0  0  0  0  0  0
   -0.6331   -3.1137    0.9183 H   0  0  0  0  0  0  0  0  0  0  0  0
   -1.9719   -3.7080    0.0015 H   0  0  0  0  0  0  0  0  0  0  0  0
    3.9404    2.3224   -0.0006 H   0  0  0  0  0  0  0  0  0  0  0  0
   -5.6155    0.4842    0.0002 H   0  0  0  0  0  0  0  0  0  0  0  0
    5.1742   -1.5225    0.9092 H   0  0  0  0  0  0  0  0  0  0  0  0
    5.1736   -1.5219   -0.9112 H   0  0  0  0  0  0  0  0  0  0  0  0
    5.3383   -3.0186   -0.0015 H   0  0  0  0  0  0  0  0  0  0  0  0
  1 10  1  0  0  0  0
  1 13  1  0  0  0  0
  2 16  1  0  0  0  0
  2 20  1  0  0  0  0
  3 12  1  0  0  0  0
  3 28  1  0  0  0  0
  4 17  1  0  0  0  0
  4 29  1  0  0  0  0
  5 13  2  0  0  0  0
  6  7  1  0  0  0  0
  6  9  1  0  0  0  0
  6 10  2  0  0  0  0
  7  8  2  0  0  0  0
  7 11  1  0  0  0  0
  8 12  1  0  0  0  0
  8 13  1  0  0  0  0
  9 14  2  0  0  0  0
  9 19  1  0  0  0  0
 10 15  1  0  0  0  0
 11 16  2  0  0  0  0
 11 21  1  0  0  0  0
 12 18  2  0  0  0  0
 14 17  1  0  0  0  0
 14 23  1  0  0  0  0
 15 17  2  0  0  0  0
 15 22  1  0  0  0  0
 16 18  1  0  0  0  0
 18 24  1  0  0  0  0
 19 25  1  0  0  0  0
 19 26  1  0  0  0  0
 19 27  1  0  0  0  0
 20 30  1  0  0  0  0
 20 31  1  0  0  0  0
 20 32  1  0  0  0  0
M  END
> <PUBCHEM_COMPOUND_CID>
5360741

> <PUBCHEM_CONFORMER_RMSD>
0.6

> <PUBCHEM_CONFORMER_DIVERSEORDER>
1

> <PUBCHEM_MMFF94_PARTIAL_CHARGES>
24
1 -0.23
10 0.08
11 -0.15
12 0.08
13 0.63
14 -0.15
15 -0.15
16 0.08
17 0.08
18 -0.15
19 0.14
2 -0.36
20 0.28
21 0.15
22 0.15
23 0.15
24 0.15
28 0.45
29 0.45
3 -0.53
4 -0.53
5 -0.57
8 0.09
9 -0.14

> <PUBCHEM_EFFECTIVE_ROTOR_COUNT>
1

> <PUBCHEM_PHARMACOPHORE_FEATURES>
7
1 2 acceptor
1 3 donor
1 4 donor
1 5 acceptor
6 1 6 7 8 10 13 rings
6 6 9 10 14 15 17 rings
6 7 8 11 12 16 18 rings

> <PUBCHEM_HEAVY_ATOM_COUNT>
20

> <PUBCHEM_ATOM_DEF_STEREO_COUNT>
0

> <PUBCHEM_ATOM_UDEF_STEREO_COUNT>
0

> <PUBCHEM_BOND_DEF_STEREO_COUNT>
0

> <PUBCHEM_BOND_UDEF_STEREO_COUNT>
0

> <PUBCHEM_ISOTOPIC_ATOM_COUNT>
0

> <PUBCHEM_COMPONENT_COUNT>
1

> <PUBCHEM_CACTVS_TAUTO_COUNT>
67

> <PUBCHEM_CONFORMER_ID>
0051CC6500000001

> <PUBCHEM_MMFF94_ENERGY>
91.3358

> <PUBCHEM_FEATURE_SELFOVERLAP>
35.568

> <PUBCHEM_SHAPE_FINGERPRINT>
10319926 262 17907833143662937378
10411042 1 18338517439212559718
10616163 171 18050852413848201375
10693767 8 18128511861507636927
10967382 1 18338797917629841415
1100329 8 18125444107305439337
11471102 20 18338513148830082685
11680986 33 18336550537596194179
116883 192 18269560446700802150
12403259 226 18408317813710041661
12507560 14 18343584031932629863
12553582 1 18337662019398498970
13140716 1 18268995280391756121
138480 1 18410856594416830976
13862211 1 18410851023823259527
14115302 16 17895486881010383790
14178342 30 17909531089234635826
14790565 3 17403466169848283976
14866123 147 17764311639244336067
15042514 8 17833265325443788962
15196674 1 18410573994237244903
15442244 35 18412266120756798073
15536298 74 18341894116714637714
16945 1 18194402414440146789
17492 89 18267302230206892415
17804303 29 18340208488227727230
18186145 218 17676480661964048131
19591789 44 18409729517620026731
20028762 73 18202279230476172463
20510252 161 18055067658335383930
20645477 70 18409443717532218775
20739085 24 18192458332154460201
21029758 11 18411696552195340099
21267235 1 18410582764239145227
21501502 16 18412547642898891199
221490 88 18335427927476259106
22182313 1 18263060189470666668
2297311 6 18269846311472160782
2334 1 18410856581114632550
23366157 5 18113616837498937548
23402539 116 18271235011405101991
23463225 33 18411419513893453022
23557571 272 17985271777481664566
23559900 14 18412820292197934562
2748010 2 18337946805594164581
3091708 16 9139455669046611160
335352 9 18338798893051752125
34934 24 18268424809823452996
350125 39 18338239258554912377
5104073 3 18411703214132930155
7364860 26 18340205305593676800
7832392 63 18268428116916888758
8809292 202 18334861593130832498
9709674 26 18264772240960619195
9981440 41 17473255951927565016

> <PUBCHEM_SHAPE_MULTIPOLES>
382.24
7.61
3.27
0.59
0.83
1
0
-3.72
0
-1.61
0
0
-0.03
0

> <PUBCHEM_SHAPE_SELFOVERLAP>
853.51

> <PUBCHEM_SHAPE_VOLUME>
202.9

> <PUBCHEM_COORDINATE_TYPE>
2
5
10

$$$$
