49830672
  -OEChem-10062121533D

 46 49  0     0  0  0  0  0  0999 V2000
   -2.2679   -0.3820    2.0297 F   0  0  0  0  0  0  0  0  0  0  0  0
    8.7432    0.4424    1.3277 F   0  0  0  0  0  0  0  0  0  0  0  0
    2.3024   -0.1047    1.0794 O   0  0  0  0  0  0  0  0  0  0  0  0
   -6.7942    1.5766    0.1726 N   0  0  0  0  0  0  0  0  0  0  0  0
   -5.8658    2.5099   -0.0958 N   0  0  0  0  0  0  0  0  0  0  0  0
    1.3797   -0.3893   -1.0553 N   0  0  0  0  0  0  0  0  0  0  0  0
   -3.5197    2.3312   -0.4869 N   0  0  0  0  0  0  0  0  0  0  0  0
    3.6679   -0.1799   -0.8175 N   0  0  0  0  0  0  0  0  0  0  0  0
   -4.9432    0.4170   -0.0202 C   0  0  0  0  0  0  0  0  0  0  0  0
   -4.1431   -0.7377   -0.0295 C   0  0  0  0  0  0  0  0  0  0  0  0
   -6.3054    0.2994    0.2318 C   0  0  0  0  0  0  0  0  0  0  0  0
   -2.7262   -0.6479   -0.2889 C   0  0  0  0  0  0  0  0  0  0  0  0
   -4.7409    1.8007   -0.2122 C   0  0  0  0  0  0  0  0  0  0  0  0
   -4.7511   -1.9749    0.2172 C   0  0  0  0  0  0  0  0  0  0  0  0
   -6.9313   -0.9240    0.4802 C   0  0  0  0  0  0  0  0  0  0  0  0
   -1.8297   -0.4711    0.7651 C   0  0  0  0  0  0  0  0  0  0  0  0
   -2.2540   -0.7387   -1.5983 C   0  0  0  0  0  0  0  0  0  0  0  0
   -6.1216   -2.0645    0.4674 C   0  0  0  0  0  0  0  0  0  0  0  0
    0.0110   -0.4754   -0.7999 C   0  0  0  0  0  0  0  0  0  0  0  0
   -0.4612   -0.3849    0.5096 C   0  0  0  0  0  0  0  0  0  0  0  0
   -0.8855   -0.6523   -1.8539 C   0  0  0  0  0  0  0  0  0  0  0  0
    4.9641   -0.0211   -0.2728 C   0  0  0  0  0  0  0  0  0  0  0  0
    2.4415   -0.2126   -0.1347 C   0  0  0  0  0  0  0  0  0  0  0  0
    7.3555    0.1431   -0.5752 C   0  0  0  0  0  0  0  0  0  0  0  0
    6.0778   -0.0131   -1.1127 C   0  0  0  0  0  0  0  0  0  0  0  0
    5.1281    0.1274    1.1045 C   0  0  0  0  0  0  0  0  0  0  0  0
    7.5195    0.2913    0.8021 C   0  0  0  0  0  0  0  0  0  0  0  0
    6.4057    0.2834    1.6420 C   0  0  0  0  0  0  0  0  0  0  0  0
    8.5445    0.1517   -1.4757 C   0  0  0  0  0  0  0  0  0  0  0  0
   -4.1591   -2.8882    0.2169 H   0  0  0  0  0  0  0  0  0  0  0  0
   -7.9959   -0.9915    0.6744 H   0  0  0  0  0  0  0  0  0  0  0  0
   -2.9391   -0.8761   -2.4316 H   0  0  0  0  0  0  0  0  0  0  0  0
   -6.5686   -3.0374    0.6560 H   0  0  0  0  0  0  0  0  0  0  0  0
   -7.7511    1.8791    0.3059 H   0  0  0  0  0  0  0  0  0  0  0  0
    0.1664   -0.2480    1.3783 H   0  0  0  0  0  0  0  0  0  0  0  0
   -0.5316   -0.7242   -2.8792 H   0  0  0  0  0  0  0  0  0  0  0  0
    1.6470   -0.4638   -2.0337 H   0  0  0  0  0  0  0  0  0  0  0  0
   -3.4029    3.3311   -0.6209 H   0  0  0  0  0  0  0  0  0  0  0  0
   -2.6637    1.7989   -0.5771 H   0  0  0  0  0  0  0  0  0  0  0  0
    5.9481   -0.1274   -2.1866 H   0  0  0  0  0  0  0  0  0  0  0  0
    3.6301   -0.2823   -1.8285 H   0  0  0  0  0  0  0  0  0  0  0  0
    4.3185    0.1321    1.8200 H   0  0  0  0  0  0  0  0  0  0  0  0
    6.5352    0.3990    2.7142 H   0  0  0  0  0  0  0  0  0  0  0  0
    8.2921   -0.1869   -2.4862 H   0  0  0  0  0  0  0  0  0  0  0  0
    9.3205   -0.5200   -1.0934 H   0  0  0  0  0  0  0  0  0  0  0  0
    8.9540    1.1643   -1.5484 H   0  0  0  0  0  0  0  0  0  0  0  0
  1 16  1  0  0  0  0
  2 27  1  0  0  0  0
  3 23  2  0  0  0  0
  4  5  1  0  0  0  0
  4 11  1  0  0  0  0
  4 34  1  0  0  0  0
  5 13  2  0  0  0  0
  6 19  1  0  0  0  0
  6 23  1  0  0  0  0
  6 37  1  0  0  0  0
  7 13  1  0  0  0  0
  7 38  1  0  0  0  0
  7 39  1  0  0  0  0
  8 22  1  0  0  0  0
  8 23  1  0  0  0  0
  8 41  1  0  0  0  0
  9 10  2  0  0  0  0
  9 11  1  0  0  0  0
  9 13  1  0  0  0  0
 10 12  1  0  0  0  0
 10 14  1  0  0  0  0
 11 15  2  0  0  0  0
 12 16  2  0  0  0  0
 12 17  1  0  0  0  0
 14 18  2  0  0  0  0
 14 30  1  0  0  0  0
 15 18  1  0  0  0  0
 15 31  1  0  0  0  0
 16 20  1  0  0  0  0
 17 21  2  0  0  0  0
 17 32  1  0  0  0  0
 18 33  1  0  0  0  0
 19 20  2  0  0  0  0
 19 21  1  0  0  0  0
 20 35  1  0  0  0  0
 21 36  1  0  0  0  0
 22 25  2  0  0  0  0
 22 26  1  0  0  0  0
 24 25  1  0  0  0  0
 24 27  2  0  0  0  0
 24 29  1  0  0  0  0
 25 40  1  0  0  0  0
 26 28  2  0  0  0  0
 26 42  1  0  0  0  0
 27 28  1  0  0  0  0
 28 43  1  0  0  0  0
 29 44  1  0  0  0  0
 29 45  1  0  0  0  0
 29 46  1  0  0  0  0
M  END
> <PUBCHEM_COMPOUND_CID>
49830672

> <PUBCHEM_CONFORMER_RMSD>
0.8

> <PUBCHEM_CONFORMER_DIVERSEORDER>
2
27
50
30
14
44
35
23
29
52
16
26
56
24
25
5
36
7
28
55
12
31
54
22
33
32
47
15
34
1
43
17
39
6
42
38
11
4
37
46
19
40
9
53
21
41
13
49
3
51
20
8
48
45
10
18

> <PUBCHEM_MMFF94_PARTIAL_CHARGES>
40
1 -0.19
11 -0.15
13 0.37
14 -0.15
15 -0.15
16 0.19
17 -0.15
18 -0.15
19 0.12
2 -0.19
20 -0.15
21 -0.15
22 0.12
23 0.69
24 -0.14
25 -0.15
26 -0.15
27 0.19
28 -0.15
29 0.14
3 -0.57
30 0.15
31 0.15
32 0.15
33 0.15
34 0.27
35 0.15
36 0.15
37 0.37
38 0.4
39 0.4
4 0.3
40 0.15
41 0.37
42 0.15
43 0.15
5 -0.71
6 -0.55
7 -0.88
8 -0.55

> <PUBCHEM_EFFECTIVE_ROTOR_COUNT>
5

> <PUBCHEM_PHARMACOPHORE_FEATURES>
10
1 3 acceptor
1 4 donor
1 6 donor
1 7 donor
1 8 donor
3 5 7 13 cation
5 4 5 9 11 13 rings
6 12 16 17 19 20 21 rings
6 22 24 25 26 27 28 rings
6 9 10 11 14 15 18 rings

> <PUBCHEM_HEAVY_ATOM_COUNT>
29

> <PUBCHEM_ATOM_DEF_STEREO_COUNT>
0

> <PUBCHEM_ATOM_UDEF_STEREO_COUNT>
0

> <PUBCHEM_BOND_DEF_STEREO_COUNT>
0

> <PUBCHEM_BOND_UDEF_STEREO_COUNT>
0

> <PUBCHEM_ISOTOPIC_ATOM_COUNT>
0

> <PUBCHEM_COMPONENT_COUNT>
1

> <PUBCHEM_CACTVS_TAUTO_COUNT>
150

> <PUBCHEM_CONFORMER_ID>
02F85B1000000002

> <PUBCHEM_MMFF94_ENERGY>
83.7386

> <PUBCHEM_FEATURE_SELFOVERLAP>
50.887

> <PUBCHEM_SHAPE_FINGERPRINT>
10 15 18202280312131878790
10299344 5 17530964692137861666
10411042 1 18048883185563003691
11315181 36 17675927625317158095
12082328 90 18408886234840154294
12104220 1 16950285109523934349
13885169 127 18408606950539149622
13911987 19 16630521792344472749
14028597 1 17386280991878614544
14251764 18 17385444332391134902
14849402 71 17604439612435979788
14856354 85 18261114114625745679
14933364 13 18413390938600797020
15183329 4 16443342092093170306
15301273 46 18272373062386094934
15328684 2 17822560604510544752
15352257 5 8286203859746413344
15419008 47 17988639692607764456
15461852 350 18335147513440736510
15716309 27 16442780219796835902
1577012 14 17748826302383787448
15849732 13 17989208161625113980
21130935 74 18186516579923945338
21150785 3 11527944574048172400
21315759 40 17167863084176907030
21792961 116 17704078352793061494
23522609 53 17168730564634065708
23559900 14 15482092977531243370
249057 3 16486974021088142230
2838139 119 15195567905027079506
34797466 226 17167583787735215190
3663271 9 18113613465506447034
4073 2 18113626672246773211
4339292 15 17988073522125164167
44280117 145 17774999159335104167
504843 32 15984813887126766405
5758199 1 17530966891145338754
58083652 198 16298386898350275765
58260988 114 15358559574298024051
636775 72 18201157651369713545
6691757 9 18186526514810723579
9953998 17 18131356332664247515
9962374 69 15068907529004883334

> <PUBCHEM_SHAPE_MULTIPOLES>
551.48
26.19
1.57
1.44
38.04
0.67
0.02
4.04
3.03
-4.61
-0.1
1.84
-0.15
1.1

> <PUBCHEM_SHAPE_SELFOVERLAP>
1230.659

> <PUBCHEM_SHAPE_VOLUME>
294.2

> <PUBCHEM_COORDINATE_TYPE>
2
5
10

$$$$
