44328786
  -OEChem-10062122043D

 64 70  0     0  0  0  0  0  0999 V2000
    6.8494    1.7444   -0.4440 O   0  0  0  0  0  0  0  0  0  0  0  0
   -2.5361    1.4141   -0.2260 O   0  0  0  0  0  0  0  0  0  0  0  0
   -7.5366    2.1744    0.4099 O   0  0  0  0  0  0  0  0  0  0  0  0
   -9.0626    0.4658    0.1843 O   0  0  0  0  0  0  0  0  0  0  0  0
    1.0852   -1.2602    0.4211 N   0  0  0  0  0  0  0  0  0  0  0  0
    1.4272    1.5060    0.3382 N   0  0  0  0  0  0  0  0  0  0  0  0
    7.0113   -0.5969   -0.4380 N   0  0  0  0  0  0  0  0  0  0  0  0
   -3.2393   -0.7967   -0.6010 N   0  0  0  0  0  0  0  0  0  0  0  0
   -6.7871   -1.2959   -0.3907 N   0  0  0  0  0  0  0  0  0  0  0  0
    2.3092   -0.7132    0.2385 C   0  0  0  0  0  0  0  0  0  0  0  0
    3.4915   -1.5039    0.0782 C   0  0  0  0  0  0  0  0  0  0  0  0
    4.7978   -1.0549   -0.1149 C   0  0  0  0  0  0  0  0  0  0  0  0
    2.4815    0.6724    0.1967 C   0  0  0  0  0  0  0  0  0  0  0  0
    3.8226    1.1402   -0.0017 C   0  0  0  0  0  0  0  0  0  0  0  0
    4.9516    0.3344   -0.1541 C   0  0  0  0  0  0  0  0  0  0  0  0
    2.8049   -2.7947    0.1927 C   0  0  0  0  0  0  0  0  0  0  0  0
    1.3969   -2.6124    0.3927 C   0  0  0  0  0  0  0  0  0  0  0  0
    6.1155   -1.7295   -0.2956 C   0  0  0  0  0  0  0  0  0  0  0  0
    3.4664    2.5670    0.0326 C   0  0  0  0  0  0  0  0  0  0  0  0
   -0.2393   -0.7251    0.6059 C   0  0  0  0  0  0  0  0  0  0  0  0
    2.0546    2.7383    0.2336 C   0  0  0  0  0  0  0  0  0  0  0  0
    6.3638    0.6331   -0.3605 C   0  0  0  0  0  0  0  0  0  0  0  0
    3.2949   -4.1212    0.1387 C   0  0  0  0  0  0  0  0  0  0  0  0
    0.5280   -3.7050    0.5308 C   0  0  0  0  0  0  0  0  0  0  0  0
   -0.8908   -0.2531   -0.6952 C   0  0  0  0  0  0  0  0  0  0  0  0
    4.2462    3.7421   -0.0932 C   0  0  0  0  0  0  0  0  0  0  0  0
    1.4669    4.0106    0.3036 C   0  0  0  0  0  0  0  0  0  0  0  0
    2.4195   -5.2027    0.2774 C   0  0  0  0  0  0  0  0  0  0  0  0
    1.0586   -4.9955    0.4703 C   0  0  0  0  0  0  0  0  0  0  0  0
    3.6499    5.0058   -0.0217 C   0  0  0  0  0  0  0  0  0  0  0  0
    2.2814    5.1360    0.1738 C   0  0  0  0  0  0  0  0  0  0  0  0
   -2.3142    0.2307   -0.4665 C   0  0  0  0  0  0  0  0  0  0  0  0
   -4.6442   -0.7165   -0.4590 C   0  0  0  0  0  0  0  0  0  0  0  0
   -5.5192   -1.7706   -0.6037 C   0  0  0  0  0  0  0  0  0  0  0  0
   -5.4130    0.4320   -0.1482 C   0  0  0  0  0  0  0  0  0  0  0  0
   -6.7345    0.0450   -0.1123 C   0  0  0  0  0  0  0  0  0  0  0  0
   -7.9868   -2.1012   -0.4541 C   0  0  0  0  0  0  0  0  0  0  0  0
   -7.8761    0.8631    0.1625 C   0  0  0  0  0  0  0  0  0  0  0  0
   -8.5951    3.0941    0.6990 C   0  0  0  0  0  0  0  0  0  0  0  0
    6.4109   -2.3094    0.5820 H   0  0  0  0  0  0  0  0  0  0  0  0
    6.1544   -2.3313   -1.2067 H   0  0  0  0  0  0  0  0  0  0  0  0
   -0.2427   -0.0002    1.4253 H   0  0  0  0  0  0  0  0  0  0  0  0
   -0.8699   -1.5199    1.0203 H   0  0  0  0  0  0  0  0  0  0  0  0
    0.4470    1.3824    0.4903 H   0  0  0  0  0  0  0  0  0  0  0  0
    8.0119   -0.6908   -0.5804 H   0  0  0  0  0  0  0  0  0  0  0  0
    4.3550   -4.3089   -0.0114 H   0  0  0  0  0  0  0  0  0  0  0  0
   -0.5403   -3.5809    0.6735 H   0  0  0  0  0  0  0  0  0  0  0  0
   -0.3412    0.5429   -1.2053 H   0  0  0  0  0  0  0  0  0  0  0  0
   -0.9072   -1.0829   -1.4147 H   0  0  0  0  0  0  0  0  0  0  0  0
    5.3188    3.6828   -0.2468 H   0  0  0  0  0  0  0  0  0  0  0  0
    0.3974    4.1223    0.4559 H   0  0  0  0  0  0  0  0  0  0  0  0
    2.8095   -6.2162    0.2332 H   0  0  0  0  0  0  0  0  0  0  0  0
    0.3953   -5.8506    0.5737 H   0  0  0  0  0  0  0  0  0  0  0  0
    4.2672    5.8948   -0.1206 H   0  0  0  0  0  0  0  0  0  0  0  0
    1.8373    6.1265    0.2265 H   0  0  0  0  0  0  0  0  0  0  0  0
   -2.8969   -1.7303   -0.8165 H   0  0  0  0  0  0  0  0  0  0  0  0
   -5.3427   -2.8119   -0.8392 H   0  0  0  0  0  0  0  0  0  0  0  0
   -5.0500    1.4344    0.0314 H   0  0  0  0  0  0  0  0  0  0  0  0
   -8.4779   -2.0760    0.5217 H   0  0  0  0  0  0  0  0  0  0  0  0
   -8.6347   -1.7037   -1.2391 H   0  0  0  0  0  0  0  0  0  0  0  0
   -7.7181   -3.1332   -0.6963 H   0  0  0  0  0  0  0  0  0  0  0  0
   -8.1539    4.0797    0.8682 H   0  0  0  0  0  0  0  0  0  0  0  0
   -9.1257    2.7838    1.6038 H   0  0  0  0  0  0  0  0  0  0  0  0
   -9.2822    3.1550   -0.1500 H   0  0  0  0  0  0  0  0  0  0  0  0
  1 22  2  0  0  0  0
  2 32  2  0  0  0  0
  3 38  1  0  0  0  0
  3 39  1  0  0  0  0
  4 38  2  0  0  0  0
  5 10  1  0  0  0  0
  5 17  1  0  0  0  0
  5 20  1  0  0  0  0
  6 13  1  0  0  0  0
  6 21  1  0  0  0  0
  6 44  1  0  0  0  0
  7 18  1  0  0  0  0
  7 22  1  0  0  0  0
  7 45  1  0  0  0  0
  8 32  1  0  0  0  0
  8 33  1  0  0  0  0
  8 56  1  0  0  0  0
  9 34  1  0  0  0  0
  9 36  1  0  0  0  0
  9 37  1  0  0  0  0
 10 11  1  0  0  0  0
 10 13  2  0  0  0  0
 11 12  2  0  0  0  0
 11 16  1  0  0  0  0
 12 15  1  0  0  0  0
 12 18  1  0  0  0  0
 13 14  1  0  0  0  0
 14 15  2  0  0  0  0
 14 19  1  0  0  0  0
 15 22  1  0  0  0  0
 16 17  1  0  0  0  0
 16 23  2  0  0  0  0
 17 24  2  0  0  0  0
 18 40  1  0  0  0  0
 18 41  1  0  0  0  0
 19 21  1  0  0  0  0
 19 26  2  0  0  0  0
 20 25  1  0  0  0  0
 20 42  1  0  0  0  0
 20 43  1  0  0  0  0
 21 27  2  0  0  0  0
 23 28  1  0  0  0  0
 23 46  1  0  0  0  0
 24 29  1  0  0  0  0
 24 47  1  0  0  0  0
 25 32  1  0  0  0  0
 25 48  1  0  0  0  0
 25 49  1  0  0  0  0
 26 30  1  0  0  0  0
 26 50  1  0  0  0  0
 27 31  1  0  0  0  0
 27 51  1  0  0  0  0
 28 29  2  0  0  0  0
 28 52  1  0  0  0  0
 29 53  1  0  0  0  0
 30 31  2  0  0  0  0
 30 54  1  0  0  0  0
 31 55  1  0  0  0  0
 33 34  2  0  0  0  0
 33 35  1  0  0  0  0
 34 57  1  0  0  0  0
 35 36  2  0  0  0  0
 35 58  1  0  0  0  0
 36 38  1  0  0  0  0
 37 59  1  0  0  0  0
 37 60  1  0  0  0  0
 37 61  1  0  0  0  0
 39 62  1  0  0  0  0
 39 63  1  0  0  0  0
 39 64  1  0  0  0  0
M  END
> <PUBCHEM_COMPOUND_CID>
44328786

> <PUBCHEM_CONFORMER_RMSD>
1

> <PUBCHEM_CONFORMER_DIVERSEORDER>
6
14
9
4
23
20
15
1
18
17
5
25
10
13
7
19
11
16
21
12
2
8
22
24
3
26

> <PUBCHEM_MMFF94_PARTIAL_CHARGES>
50
1 -0.57
10 -0.05
11 -0.01
12 -0.14
13 -0.05
14 -0.01
15 0.09
17 -0.15
18 0.44
2 -0.57
20 0.26
21 -0.15
22 0.54
23 -0.15
24 -0.15
25 0.06
26 -0.15
27 -0.15
28 -0.15
29 -0.15
3 -0.43
30 -0.15
31 -0.15
32 0.57
33 0.06
34 -0.3
35 -0.15
36 -0.24
37 0.26
38 0.81
39 0.28
4 -0.57
44 0.27
45 0.37
46 0.15
47 0.15
5 -0.04
50 0.15
51 0.15
52 0.15
53 0.15
54 0.15
55 0.15
56 0.37
57 0.15
58 0.15
6 -0.05
7 -0.73
8 -0.49
9 0.05

> <PUBCHEM_EFFECTIVE_ROTOR_COUNT>
7.4

> <PUBCHEM_PHARMACOPHORE_FEATURES>
16
1 1 acceptor
1 2 acceptor
1 4 acceptor
1 5 cation
1 6 cation
1 6 donor
1 7 donor
1 8 donor
1 9 cation
5 5 10 11 16 17 rings
5 6 13 14 19 21 rings
5 7 12 15 18 22 rings
5 9 33 34 35 36 rings
6 10 11 12 13 14 15 rings
6 16 17 23 24 28 29 rings
6 19 21 26 27 30 31 rings

> <PUBCHEM_HEAVY_ATOM_COUNT>
39

> <PUBCHEM_ATOM_DEF_STEREO_COUNT>
0

> <PUBCHEM_ATOM_UDEF_STEREO_COUNT>
0

> <PUBCHEM_BOND_DEF_STEREO_COUNT>
0

> <PUBCHEM_BOND_UDEF_STEREO_COUNT>
0

> <PUBCHEM_ISOTOPIC_ATOM_COUNT>
0

> <PUBCHEM_COMPONENT_COUNT>
1

> <PUBCHEM_CACTVS_TAUTO_COUNT>
14

> <PUBCHEM_CONFORMER_ID>
02A4675200000006

> <PUBCHEM_MMFF94_ENERGY>
132.4686

> <PUBCHEM_FEATURE_SELFOVERLAP>
81.665

> <PUBCHEM_SHAPE_FINGERPRINT>
10165383 225 18186523237475960854
10411042 1 17977664204784441362
10580692 12 18411699881855596413
10675989 125 18411417340846113080
11456790 92 18187362108391133912
11621639 336 18197219152809461680
13165053 371 18343294843532903024
1361 2 18337388348039131579
13785724 45 18055076450149906247
14790565 3 18194681703389578967
14849402 71 18336829783263695893
15276724 80 18264483997927528461
15320467 1 18410290306867080205
15328829 1 17775569732385860187
15400415 2 18121496019280941589
15439362 3 18195243558580520592
15448158 6 18267866073191589156
15483637 11 17833269006040909362
15484559 13 18341621421437713910
15773879 134 18340197605334624357
15890870 6 18335144220049763606
15927050 60 17979916343577873878
16087824 20 18410857647095086876
17899979 129 18336833086083022889
19427546 62 18193273211729807842
20028762 73 18343865520052776782
22311459 1 18409446981443301194
22899556 105 18052834546574634334
24771293 8 18057019498171563648
255183 451 18056765317090228614
3178227 256 18408602569799192754
335352 9 18409172130614715606
335507 130 18343301509680718687
4073 2 18261116279553195539
5776283 40 18264214776218082988
99344 41 18340201990042669105

> <PUBCHEM_SHAPE_MULTIPOLES>
754.22
22.39
6.96
0.73
57.77
0.67
0
7.62
1.43
-8.56
-1.19
0.19
-0.06
-1.41

> <PUBCHEM_SHAPE_SELFOVERLAP>
1713.04

> <PUBCHEM_SHAPE_VOLUME>
395.4

> <PUBCHEM_COORDINATE_TYPE>
2
5
10

$$$$
