53232451
  -OEChem-10052115173D

 41 43  0     1  0  0  0  0  0999 V2000
   -0.3312    4.1031    1.5063 F   0  0  0  0  0  0  0  0  0  0  0  0
    0.2109   -4.7068    2.3433 F   0  0  0  0  0  0  0  0  0  0  0  0
    2.2645    0.0263   -1.0886 N   0  0  0  0  0  0  0  0  0  0  0  0
    0.2561    1.0251   -0.3342 N   0  0  0  0  0  0  0  0  0  0  0  0
   -1.7651    2.0311    0.4211 N   0  0  0  0  0  0  0  0  0  0  0  0
    2.0076   -2.1806    0.4598 N   0  0  0  0  0  0  0  0  0  0  0  0
   -3.7468   -0.5056   -0.8808 N   0  0  0  0  0  0  0  0  0  0  0  0
   -2.5128   -0.0063   -0.6958 N   0  0  0  0  0  0  0  0  0  0  0  0
    4.9516    2.1727   -0.0705 N   0  0  0  0  0  0  0  0  0  0  0  0
    1.5638   -1.0727   -1.6677 C   0  0  2  0  0  0  0  0  0  0  0  0
    1.1703   -2.0657   -0.5953 C   0  0  0  0  0  0  0  0  0  0  0  0
    2.4162   -1.6945   -2.7719 C   0  0  0  0  0  0  0  0  0  0  0  0
    1.6042    1.0850   -0.4154 C   0  0  0  0  0  0  0  0  0  0  0  0
    2.3682    2.1115    0.1161 C   0  0  0  0  0  0  0  0  0  0  0  0
   -0.3526    2.0449    0.3116 C   0  0  0  0  0  0  0  0  0  0  0  0
    0.0002   -2.7935   -0.7399 C   0  0  0  0  0  0  0  0  0  0  0  0
    1.7061    3.1426    0.7733 C   0  0  0  0  0  0  0  0  0  0  0  0
    0.3198    3.1162    0.8773 C   0  0  0  0  0  0  0  0  0  0  0  0
   -2.7410    1.1247   -0.0231 C   0  0  0  0  0  0  0  0  0  0  0  0
   -4.7388    0.2667   -0.3516 C   0  0  0  0  0  0  0  0  0  0  0  0
   -4.1100    1.3460    0.2197 C   0  0  0  0  0  0  0  0  0  0  0  0
   -0.3321   -3.6972    0.2631 C   0  0  0  0  0  0  0  0  0  0  0  0
    1.6518   -3.0689    1.4147 C   0  0  0  0  0  0  0  0  0  0  0  0
    0.5041   -3.8435    1.3644 C   0  0  0  0  0  0  0  0  0  0  0  0
   -6.1592   -0.1060   -0.4492 C   0  0  0  0  0  0  0  0  0  0  0  0
    3.7944    2.1453    0.0131 C   0  0  0  0  0  0  0  0  0  0  0  0
    0.6529   -0.7031   -2.1583 H   0  0  0  0  0  0  0  0  0  0  0  0
    3.2375   -0.1243   -0.8418 H   0  0  0  0  0  0  0  0  0  0  0  0
    3.3548   -2.0972   -2.3731 H   0  0  0  0  0  0  0  0  0  0  0  0
    1.8853   -2.5171   -3.2633 H   0  0  0  0  0  0  0  0  0  0  0  0
    2.6722   -0.9506   -3.5345 H   0  0  0  0  0  0  0  0  0  0  0  0
   -0.6454   -2.6737   -1.6032 H   0  0  0  0  0  0  0  0  0  0  0  0
   -2.1056    2.8496    0.9246 H   0  0  0  0  0  0  0  0  0  0  0  0
    2.2549    3.9736    1.2095 H   0  0  0  0  0  0  0  0  0  0  0  0
   -4.5800    2.1710    0.7362 H   0  0  0  0  0  0  0  0  0  0  0  0
   -1.2407   -4.2866    0.1870 H   0  0  0  0  0  0  0  0  0  0  0  0
    2.3371   -3.1458    2.2522 H   0  0  0  0  0  0  0  0  0  0  0  0
   -3.8382   -1.3822   -1.3793 H   0  0  0  0  0  0  0  0  0  0  0  0
   -6.7970    0.6395    0.0366 H   0  0  0  0  0  0  0  0  0  0  0  0
   -6.3412   -1.0708    0.0351 H   0  0  0  0  0  0  0  0  0  0  0  0
   -6.4691   -0.1824   -1.4964 H   0  0  0  0  0  0  0  0  0  0  0  0
  1 18  1  0  0  0  0
  2 24  1  0  0  0  0
  3 10  1  0  0  0  0
  3 13  1  0  0  0  0
  3 28  1  0  0  0  0
  4 13  2  0  0  0  0
  4 15  1  0  0  0  0
  5 15  1  0  0  0  0
  5 19  1  0  0  0  0
  5 33  1  0  0  0  0
  6 11  2  0  0  0  0
  6 23  1  0  0  0  0
  7  8  1  0  0  0  0
  7 20  1  0  0  0  0
  7 38  1  0  0  0  0
  8 19  2  0  0  0  0
  9 26  3  0  0  0  0
 10 11  1  0  0  0  0
 10 12  1  0  0  0  0
 10 27  1  0  0  0  0
 11 16  1  0  0  0  0
 12 29  1  0  0  0  0
 12 30  1  0  0  0  0
 12 31  1  0  0  0  0
 13 14  1  0  0  0  0
 14 17  2  0  0  0  0
 14 26  1  0  0  0  0
 15 18  2  0  0  0  0
 16 22  2  0  0  0  0
 16 32  1  0  0  0  0
 17 18  1  0  0  0  0
 17 34  1  0  0  0  0
 19 21  1  0  0  0  0
 20 21  2  0  0  0  0
 20 25  1  0  0  0  0
 21 35  1  0  0  0  0
 22 24  1  0  0  0  0
 22 36  1  0  0  0  0
 23 24  2  0  0  0  0
 23 37  1  0  0  0  0
 25 39  1  0  0  0  0
 25 40  1  0  0  0  0
 25 41  1  0  0  0  0
M  END
> <PUBCHEM_COMPOUND_CID>
53232451

> <PUBCHEM_CONFORMER_RMSD>
0.8

> <PUBCHEM_CONFORMER_DIVERSEORDER>
1
231
202
73
228
30
47
244
302
147
273
146
184
272
290
199
289
183
102
299
296
153
177
258
260
246
288
58
291
204
83
219
300
229
297
134
151
201
194
89
281
149
186
179
139
169
294
240
252
182
301
203
250
43
271
92
254
275
71
253
255
128
130
93
56
44
268
159
198
242
18
173
263
292
157
259
55
13
269
4
283
97
208
121
215
232
129
39
116
28
284
33
214
45
267
16
195
282
298
104
264
66
172
19
293
191
230
262
75
213
100
145
251
287
62
227
117
125
261
111
165
78
122
174
10
144
276
87
239
274
84
209
135
226
224
80
279
110
14
120
6
136
150
94
90
127
278
164
123
233
115
303
196
112
222
205
114
49
34
70
156
82
277
36
286
69
206
176
103
53
216
256
248
50
48
52
109
91
64
236
207
57
95
140
168
17
133
185
88
60
266
270
61
245
285
124
187
234
189
175
148
188
132
211
163
247
142
74
107
280
85
51
235
79
113
167
161
5
40
171
137
27
65
180
152
141
304
68
20
25
166
223
3
162
54
106
197
2
108
96
143
35
238
249
212
155
41
63
210
7
99
158
295
181
200
101
98
32
243
265
46
31
77
11
42
154
26
8
220
118
12
225
178
29
67
131
241
24
119
105
37
38
15
72
22
59
217
237
170
257
192
190
86
81
160
218
221
21
193
138
76
9
126
23

> <PUBCHEM_MMFF94_PARTIAL_CHARGES>
33
1 -0.19
10 0.51
11 0.17
13 0.41
14 0.07
15 0.41
16 -0.15
17 -0.15
18 0.19
19 0.37
2 -0.19
20 -0.33
21 -0.15
22 -0.15
23 0.16
24 0.19
25 0.18
26 0.48
28 0.4
3 -0.87
32 0.15
33 0.4
34 0.15
35 0.15
36 0.15
37 0.15
38 0.27
4 -0.62
5 -0.58
6 -0.62
7 0.3
8 -0.71
9 -0.56

> <PUBCHEM_EFFECTIVE_ROTOR_COUNT>
5

> <PUBCHEM_PHARMACOPHORE_FEATURES>
10
1 3 donor
1 5 donor
1 6 acceptor
1 7 donor
1 9 acceptor
3 3 4 13 cation
3 5 8 19 cation
5 7 8 19 20 21 rings
6 4 13 14 15 17 18 rings
6 6 11 16 22 23 24 rings

> <PUBCHEM_HEAVY_ATOM_COUNT>
26

> <PUBCHEM_ATOM_DEF_STEREO_COUNT>
1

> <PUBCHEM_ATOM_UDEF_STEREO_COUNT>
0

> <PUBCHEM_BOND_DEF_STEREO_COUNT>
0

> <PUBCHEM_BOND_UDEF_STEREO_COUNT>
0

> <PUBCHEM_ISOTOPIC_ATOM_COUNT>
0

> <PUBCHEM_COMPONENT_COUNT>
1

> <PUBCHEM_CACTVS_TAUTO_COUNT>
66

> <PUBCHEM_CONFORMER_ID>
032C434300000001

> <PUBCHEM_MMFF94_ENERGY>
63.4028

> <PUBCHEM_FEATURE_SELFOVERLAP>
50.746

> <PUBCHEM_SHAPE_FINGERPRINT>
10119406 146 18341060679460953332
108634 29 18122636203768657822
10906281 52 18057344965881614948
1100329 8 18409438198805413002
11387372 6 18121746605480062416
114674 6 18410859893141111817
12156800 1 17696440229528888403
12553582 1 17910402684481251445
12788726 201 17619647782361204113
13009979 54 17180817250902951403
13052359 8 18118967133782883872
13083527 12 18193262014750138832
13140716 1 18339655442384332227
14787075 74 18192443970058096734
14866123 147 18191858132229073858
17909252 39 17416426289587197204
19026451 147 18267573629553849339
20567600 347 18334292093425709123
20642791 35 17984436139384843381
21197605 99 17695350665731483439
21421861 104 18196098733238424753
23558518 356 17619054470925362253
352729 6 17983027931298818132
392239 28 18050274883034887114
4058900 60 18336272313973640733
4409770 3 17831345814327918558
70251023 43 17985566454549396783

> <PUBCHEM_SHAPE_MULTIPOLES>
485.65
7.65
5.99
1.62
11.62
3.42
-0.3
-3.98
-2.08
-3.88
3.98
-1.12
1.72
0.02

> <PUBCHEM_SHAPE_SELFOVERLAP>
1051.115

> <PUBCHEM_SHAPE_VOLUME>
266

> <PUBCHEM_COORDINATE_TYPE>
2
5
10

$$$$
