49830424
  -OEChem-10052120433D

 41 44  0     0  0  0  0  0  0999 V2000
   -8.8557   -0.8475    0.2694 F   0  0  0  0  0  0  0  0  0  0  0  0
   -2.5763    1.1305   -0.2500 O   0  0  0  0  0  0  0  0  0  0  0  0
    6.6295    1.9220    0.4991 N   0  0  0  0  0  0  0  0  0  0  0  0
   -1.7864   -1.0365    0.1618 N   0  0  0  0  0  0  0  0  0  0  0  0
    7.9251    1.6290    0.2980 N   0  0  0  0  0  0  0  0  0  0  0  0
   -4.0611   -0.6359    0.1299 N   0  0  0  0  0  0  0  0  0  0  0  0
    3.8080   -0.4245   -0.0755 C   0  0  0  0  0  0  0  0  0  0  0  0
    2.3700   -0.5818   -0.0145 C   0  0  0  0  0  0  0  0  0  0  0  0
    5.7713    0.8935    0.2176 C   0  0  0  0  0  0  0  0  0  0  0  0
    6.5821   -0.1552   -0.2018 C   0  0  0  0  0  0  0  0  0  0  0  0
    4.3801    0.7972    0.2940 C   0  0  0  0  0  0  0  0  0  0  0  0
    4.5987   -1.4939   -0.5002 C   0  0  0  0  0  0  0  0  0  0  0  0
    5.9926   -1.3763   -0.5696 C   0  0  0  0  0  0  0  0  0  0  0  0
    1.8158   -1.8355    0.2448 C   0  0  0  0  0  0  0  0  0  0  0  0
    1.5387    0.5202   -0.2147 C   0  0  0  0  0  0  0  0  0  0  0  0
   -0.4007   -0.8849    0.1030 C   0  0  0  0  0  0  0  0  0  0  0  0
    0.4305   -1.9870    0.3035 C   0  0  0  0  0  0  0  0  0  0  0  0
    0.1533    0.3687   -0.1560 C   0  0  0  0  0  0  0  0  0  0  0  0
    7.8923    0.3645   -0.1284 C   0  0  0  0  0  0  0  0  0  0  0  0
   -2.7912   -0.0536   -0.0115 C   0  0  0  0  0  0  0  0  0  0  0  0
   -5.3240   -0.0058    0.0316 C   0  0  0  0  0  0  0  0  0  0  0  0
   -6.4901   -0.7520    0.2024 C   0  0  0  0  0  0  0  0  0  0  0  0
   -5.4033    1.3607   -0.2373 C   0  0  0  0  0  0  0  0  0  0  0  0
   -7.7355   -0.1316    0.1043 C   0  0  0  0  0  0  0  0  0  0  0  0
   -6.6488    1.9809   -0.3353 C   0  0  0  0  0  0  0  0  0  0  0  0
   -7.8149    1.2347   -0.1646 C   0  0  0  0  0  0  0  0  0  0  0  0
    3.8073    1.6428    0.6581 H   0  0  0  0  0  0  0  0  0  0  0  0
    4.1721   -2.4404   -0.8235 H   0  0  0  0  0  0  0  0  0  0  0  0
    6.5973   -2.2120   -0.9083 H   0  0  0  0  0  0  0  0  0  0  0  0
    2.4220   -2.7158    0.4399 H   0  0  0  0  0  0  0  0  0  0  0  0
    1.9242    1.5084   -0.4507 H   0  0  0  0  0  0  0  0  0  0  0  0
    0.0118   -2.9681    0.5134 H   0  0  0  0  0  0  0  0  0  0  0  0
   -0.4214    1.2672   -0.3294 H   0  0  0  0  0  0  0  0  0  0  0  0
    6.3954    2.8490    0.8319 H   0  0  0  0  0  0  0  0  0  0  0  0
    8.8242   -0.1276   -0.3684 H   0  0  0  0  0  0  0  0  0  0  0  0
   -2.1149   -1.9794    0.3548 H   0  0  0  0  0  0  0  0  0  0  0  0
   -4.0864   -1.6331    0.3274 H   0  0  0  0  0  0  0  0  0  0  0  0
   -6.4427   -1.8174    0.4123 H   0  0  0  0  0  0  0  0  0  0  0  0
   -4.5490    2.0061   -0.3820 H   0  0  0  0  0  0  0  0  0  0  0  0
   -6.7123    3.0449   -0.5446 H   0  0  0  0  0  0  0  0  0  0  0  0
   -8.7848    1.7174   -0.2408 H   0  0  0  0  0  0  0  0  0  0  0  0
  1 24  1  0  0  0  0
  2 20  2  0  0  0  0
  3  5  1  0  0  0  0
  3  9  1  0  0  0  0
  3 34  1  0  0  0  0
  4 16  1  0  0  0  0
  4 20  1  0  0  0  0
  4 36  1  0  0  0  0
  5 19  2  0  0  0  0
  6 20  1  0  0  0  0
  6 21  1  0  0  0  0
  6 37  1  0  0  0  0
  7  8  1  0  0  0  0
  7 11  2  0  0  0  0
  7 12  1  0  0  0  0
  8 14  2  0  0  0  0
  8 15  1  0  0  0  0
  9 10  2  0  0  0  0
  9 11  1  0  0  0  0
 10 13  1  0  0  0  0
 10 19  1  0  0  0  0
 11 27  1  0  0  0  0
 12 13  2  0  0  0  0
 12 28  1  0  0  0  0
 13 29  1  0  0  0  0
 14 17  1  0  0  0  0
 14 30  1  0  0  0  0
 15 18  2  0  0  0  0
 15 31  1  0  0  0  0
 16 17  2  0  0  0  0
 16 18  1  0  0  0  0
 17 32  1  0  0  0  0
 18 33  1  0  0  0  0
 19 35  1  0  0  0  0
 21 22  2  0  0  0  0
 21 23  1  0  0  0  0
 22 24  1  0  0  0  0
 22 38  1  0  0  0  0
 23 25  2  0  0  0  0
 23 39  1  0  0  0  0
 24 26  2  0  0  0  0
 25 26  1  0  0  0  0
 25 40  1  0  0  0  0
 26 41  1  0  0  0  0
M  END
> <PUBCHEM_COMPOUND_CID>
49830424

> <PUBCHEM_CONFORMER_RMSD>
0.8

> <PUBCHEM_CONFORMER_DIVERSEORDER>
1
9
23
11
22
24
27
17
4
25
8
20
12
15
6
26
2
10
19
7
14
16
5
3
13
18
21

> <PUBCHEM_MMFF94_PARTIAL_CHARGES>
38
1 -0.19
11 -0.15
12 -0.15
13 -0.15
14 -0.15
15 -0.15
16 0.12
17 -0.15
18 -0.15
19 0.14
2 -0.57
20 0.69
21 0.12
22 -0.15
23 -0.15
24 0.19
25 -0.15
26 -0.15
27 0.15
28 0.15
29 0.15
3 0.3
30 0.15
31 0.15
32 0.15
33 0.15
34 0.27
35 0.15
36 0.37
37 0.37
38 0.15
39 0.15
4 -0.55
40 0.15
41 0.15
5 -0.71
6 -0.55
9 -0.15

> <PUBCHEM_EFFECTIVE_ROTOR_COUNT>
5

> <PUBCHEM_PHARMACOPHORE_FEATURES>
9
1 2 acceptor
1 3 donor
1 4 donor
1 5 acceptor
1 6 donor
5 3 5 9 10 19 rings
6 21 22 23 24 25 26 rings
6 7 9 10 11 12 13 rings
6 8 14 15 16 17 18 rings

> <PUBCHEM_HEAVY_ATOM_COUNT>
26

> <PUBCHEM_ATOM_DEF_STEREO_COUNT>
0

> <PUBCHEM_ATOM_UDEF_STEREO_COUNT>
0

> <PUBCHEM_BOND_DEF_STEREO_COUNT>
0

> <PUBCHEM_BOND_UDEF_STEREO_COUNT>
0

> <PUBCHEM_ISOTOPIC_ATOM_COUNT>
0

> <PUBCHEM_COMPONENT_COUNT>
1

> <PUBCHEM_CACTVS_TAUTO_COUNT>
18

> <PUBCHEM_CONFORMER_ID>
02F85A1800000001

> <PUBCHEM_MMFF94_ENERGY>
79.5715

> <PUBCHEM_FEATURE_SELFOVERLAP>
45.812

> <PUBCHEM_SHAPE_FINGERPRINT>
10 15 18186237342154904496
10162869 55 16877943880204478023
102385 1 15361395290992674953
10299344 5 17489869336779470415
10411042 1 17835804098320513574
11315181 36 18273216379652637801
11638347 137 16732977605793378786
11719270 70 18272930484100246166
11991303 11 16773787134603101605
125118 31 18259989271069802972
12838862 33 18335123302715350797
13533116 47 13973694875913688950
14170010 4 18334860528237165652
14251764 18 17748544840313097171
14251764 46 18334576849636218378
14849402 71 18341896333108608777
14856354 85 15841546389011092309
14933364 13 18412545396905334501
15183329 4 16128655245241238667
15461852 350 17632286892488471573
15510794 2 18408327687813968522
1577012 14 18272362083674772103
15840311 113 18040438819854040212
15849732 13 18411983563469298413
16120349 18 18340766030701564164
16989713 51 17487891427437200511
17093844 174 17894914023658939937
1754911 235 18343297055677923861
18335252 98 18342179968817307139
18608769 82 18408884049308085013
19611394 137 17896896528901710971
20157964 124 18273498953671653126
20281389 69 18186800253443213380
21033648 29 18268136721414836512
21130935 74 18115025204362226987
21150785 3 17203327814450504911
21792934 111 18341039737005083208
22224240 67 17894067407256516787
232437 2 18410857659267884182
23569943 247 10302723569850551444
23576562 1 15625360472111980793
246663 6 11743839174918752861
249057 3 16128369406767815264
34797466 226 17775008972960686038
395649 100 18335698412634518207
4073 2 18187088385609320362
4325135 7 18272933829715440381
4340502 62 16153425039514300130
444735 82 18335142033585330220
5385378 56 17530960242357130178
5758199 1 18186520994907179875
59682541 35 18113903779852789857
6201320 215 14346617338819421727
636775 72 18337108948746000101
6691757 9 15792023277247195169
67123 10 18341894108810615767

> <PUBCHEM_SHAPE_MULTIPOLES>
502
27.86
1.82
0.66
19.05
0.1
0.02
9.37
-0.05
-0.71
-0.06
-0.19
-0.01
1.15

> <PUBCHEM_SHAPE_SELFOVERLAP>
1120.6

> <PUBCHEM_SHAPE_VOLUME>
267.1

> <PUBCHEM_COORDINATE_TYPE>
2
5
10

$$$$
