3071991
  -OEChem-10052115183D

 24 26  0     0  0  0  0  0  0999 V2000
   -1.2710   -2.0048    0.2796 O   0  0  0  0  0  0  0  0  0  0  0  0
    3.7480    1.7250    0.2054 O   0  0  0  0  0  0  0  0  0  0  0  0
    0.5184    0.1600   -0.0790 N   0  0  0  0  0  0  0  0  0  0  0  0
    2.2600   -1.4735   -0.0732 N   0  0  0  0  0  0  0  0  0  0  0  0
    3.1564   -0.4706    0.0559 N   0  0  0  0  0  0  0  0  0  0  0  0
   -0.8703    0.3753   -0.0582 C   0  0  0  0  0  0  0  0  0  0  0  0
    1.0133   -1.1227   -0.1244 C   0  0  0  0  0  0  0  0  0  0  0  0
    1.4234    1.2951   -0.0613 C   0  0  0  0  0  0  0  0  0  0  0  0
   -0.0045   -2.2361   -0.3082 C   0  0  0  0  0  0  0  0  0  0  0  0
   -1.7332   -0.7228    0.1163 C   0  0  0  0  0  0  0  0  0  0  0  0
    2.8656    0.8712    0.0834 C   0  0  0  0  0  0  0  0  0  0  0  0
   -1.4607    1.6445   -0.1818 C   0  0  0  0  0  0  0  0  0  0  0  0
   -3.1200   -0.5589    0.1964 C   0  0  0  0  0  0  0  0  0  0  0  0
   -2.8484    1.8093   -0.1218 C   0  0  0  0  0  0  0  0  0  0  0  0
   -3.6771    0.7090    0.0708 C   0  0  0  0  0  0  0  0  0  0  0  0
    1.2000    1.9535    0.7869 H   0  0  0  0  0  0  0  0  0  0  0  0
    1.3441    1.8617   -0.9964 H   0  0  0  0  0  0  0  0  0  0  0  0
   -0.1347   -2.4093   -1.3837 H   0  0  0  0  0  0  0  0  0  0  0  0
    0.3974   -3.1596    0.1233 H   0  0  0  0  0  0  0  0  0  0  0  0
   -0.8557    2.5358   -0.3274 H   0  0  0  0  0  0  0  0  0  0  0  0
   -3.7682   -1.4174    0.3512 H   0  0  0  0  0  0  0  0  0  0  0  0
    4.1199   -0.7812    0.1318 H   0  0  0  0  0  0  0  0  0  0  0  0
   -3.2791    2.8018   -0.2204 H   0  0  0  0  0  0  0  0  0  0  0  0
   -4.7536    0.8397    0.1247 H   0  0  0  0  0  0  0  0  0  0  0  0
  1  9  1  0  0  0  0
  1 10  1  0  0  0  0
  2 11  2  0  0  0  0
  3  6  1  0  0  0  0
  3  7  1  0  0  0  0
  3  8  1  0  0  0  0
  4  5  1  0  0  0  0
  4  7  2  0  0  0  0
  5 11  1  0  0  0  0
  5 22  1  0  0  0  0
  6 10  1  0  0  0  0
  6 12  2  0  0  0  0
  7  9  1  0  0  0  0
  8 11  1  0  0  0  0
  8 16  1  0  0  0  0
  8 17  1  0  0  0  0
  9 18  1  0  0  0  0
  9 19  1  0  0  0  0
 10 13  2  0  0  0  0
 12 14  1  0  0  0  0
 12 20  1  0  0  0  0
 13 15  1  0  0  0  0
 13 21  1  0  0  0  0
 14 15  2  0  0  0  0
 14 23  1  0  0  0  0
 15 24  1  0  0  0  0
M  END
> <PUBCHEM_COMPOUND_CID>
3071991

> <PUBCHEM_CONFORMER_RMSD>
0.4

> <PUBCHEM_CONFORMER_DIVERSEORDER>
1

> <PUBCHEM_MMFF94_PARTIAL_CHARGES>
20
1 -0.36
10 0.08
11 0.57
12 -0.15
13 -0.15
14 -0.15
15 -0.15
2 -0.57
20 0.15
21 0.15
22 0.37
23 0.15
24 0.15
3 -0.52
4 -0.51
5 -0.37
6 0.1
7 0.44
8 0.43
9 0.34

> <PUBCHEM_EFFECTIVE_ROTOR_COUNT>
0.8

> <PUBCHEM_PHARMACOPHORE_FEATURES>
7
1 1 acceptor
1 2 acceptor
1 5 donor
3 3 4 7 cation
6 1 3 6 7 9 10 rings
6 3 4 5 7 8 11 rings
6 6 10 12 13 14 15 rings

> <PUBCHEM_HEAVY_ATOM_COUNT>
15

> <PUBCHEM_ATOM_DEF_STEREO_COUNT>
0

> <PUBCHEM_ATOM_UDEF_STEREO_COUNT>
0

> <PUBCHEM_BOND_DEF_STEREO_COUNT>
0

> <PUBCHEM_BOND_UDEF_STEREO_COUNT>
0

> <PUBCHEM_ISOTOPIC_ATOM_COUNT>
0

> <PUBCHEM_COMPONENT_COUNT>
1

> <PUBCHEM_CACTVS_TAUTO_COUNT>
2

> <PUBCHEM_CONFORMER_ID>
002EDFF700000001

> <PUBCHEM_MMFF94_ENERGY>
54.4835

> <PUBCHEM_FEATURE_SELFOVERLAP>
35.584

> <PUBCHEM_SHAPE_FINGERPRINT>
10608611 8 18410009892832090429
10967382 1 18410575067572984477
11132069 177 18410569600079740201
11471102 20 18339638928425138989
12251169 10 18334847295564168090
12382932 28 18410577330931007449
13140716 1 18265337209521802441
13380535 21 18410865377392290590
13380535 76 18411134736160965575
13897977 150 18338233748253971677
14144814 61 18409167705521683121
14325111 11 18410855443043491501
14897335 6 18411695504233895404
15196674 1 18410293605555015729
15219456 202 18410014308190060145
15309172 13 18411990147838818107
15442244 35 18122624959644009666
15536298 74 18342739594138591030
15775835 57 18343304790043520401
16945 1 18265057001380991783
18186145 218 18200038339045065621
193761 8 17474108082339689917
20510252 161 18343024414895085481
20528008 55 18410570691201828405
20871998 184 18198068164869745079
21501502 16 18411695487069973847
21524375 3 18412821378344807275
2334 1 18410293601181011645
23402539 116 18268983362252901775
23463225 33 18334856078402964528
23559900 14 18273496754890769622
25 1 18267022756520463029
2748010 2 18337677425155409463
5104073 3 18409731746491685537
528886 8 18411414007777041123
53812653 166 18343017821930414368
6333449 129 18410853308587027301
69090 78 18412539920906493103
7364860 26 18197780994476269030
9709674 26 18411986874852640622

> <PUBCHEM_SHAPE_MULTIPOLES>
282.01
5.77
2.26
0.61
0.91
0.44
0.01
-2.35
-0.37
0.16
0.07
-0.06
0.01
0.25

> <PUBCHEM_SHAPE_SELFOVERLAP>
622.251

> <PUBCHEM_SHAPE_VOLUME>
149.4

> <PUBCHEM_COORDINATE_TYPE>
2
5
10

$$$$
