11640390
  -OEChem-10052120443D

 55 60  0     0  0  0  0  0  0999 V2000
    6.8562    3.1467    0.4514 O   0  0  0  0  0  0  0  0  0  0  0  0
    3.5527   -1.0188   -0.5471 N   0  0  0  0  0  0  0  0  0  0  0  0
    2.4693    0.3087    0.8633 N   0  0  0  0  0  0  0  0  0  0  0  0
    2.8524   -3.3373   -1.9008 N   0  0  0  0  0  0  0  0  0  0  0  0
    0.7117   -3.3738   -1.0109 N   0  0  0  0  0  0  0  0  0  0  0  0
   -3.0546    0.2186   -0.0016 N   0  0  0  0  0  0  0  0  0  0  0  0
    5.4736    3.0362    0.0654 C   0  0  0  0  0  0  0  0  0  0  0  0
    4.8292    1.0312    0.3668 C   0  0  0  0  0  0  0  0  0  0  0  0
    4.5427    2.3614    1.0944 C   0  0  0  0  0  0  0  0  0  0  0  0
    5.1342    1.8731   -0.8898 C   0  0  0  0  0  0  0  0  0  0  0  0
    3.6058    0.1037    0.2303 C   0  0  0  0  0  0  0  0  0  0  0  0
    4.9885    4.3844   -0.4117 C   0  0  0  0  0  0  0  0  0  0  0  0
    2.2995   -1.5629   -0.3985 C   0  0  0  0  0  0  0  0  0  0  0  0
    1.6541   -0.7253    0.4749 C   0  0  0  0  0  0  0  0  0  0  0  0
    4.4760   -1.6241   -1.3737 C   0  0  0  0  0  0  0  0  0  0  0  0
    1.9489   -2.7795   -1.1162 C   0  0  0  0  0  0  0  0  0  0  0  0
    0.3074   -0.8596    0.9559 C   0  0  0  0  0  0  0  0  0  0  0  0
    4.1008   -2.7456   -2.0126 C   0  0  0  0  0  0  0  0  0  0  0  0
   -0.7455   -0.2618    0.2590 C   0  0  0  0  0  0  0  0  0  0  0  0
    0.0519   -1.5840    2.1136 C   0  0  0  0  0  0  0  0  0  0  0  0
   -2.0634   -0.3700    0.6941 C   0  0  0  0  0  0  0  0  0  0  0  0
   -1.2566   -1.7083    2.5716 C   0  0  0  0  0  0  0  0  0  0  0  0
   -2.3154   -1.1068    1.8705 C   0  0  0  0  0  0  0  0  0  0  0  0
   -3.6420   -1.2163    2.3088 C   0  0  0  0  0  0  0  0  0  0  0  0
   -4.3213    0.0891    0.4555 C   0  0  0  0  0  0  0  0  0  0  0  0
   -4.6655   -0.6108    1.5941 C   0  0  0  0  0  0  0  0  0  0  0  0
   -5.3261    0.7492   -0.3439 C   0  0  0  0  0  0  0  0  0  0  0  0
   -5.6776    2.0735   -0.0735 C   0  0  0  0  0  0  0  0  0  0  0  0
   -5.9494    0.0661   -1.3903 C   0  0  0  0  0  0  0  0  0  0  0  0
   -6.6482    2.7116   -0.8458 C   0  0  0  0  0  0  0  0  0  0  0  0
   -6.9200    0.7043   -2.1626 C   0  0  0  0  0  0  0  0  0  0  0  0
   -7.2692    2.0271   -1.8903 C   0  0  0  0  0  0  0  0  0  0  0  0
    5.7079    0.5070    0.7641 H   0  0  0  0  0  0  0  0  0  0  0  0
    4.8854    2.3977    2.1332 H   0  0  0  0  0  0  0  0  0  0  0  0
    3.5050    2.7148    1.0617 H   0  0  0  0  0  0  0  0  0  0  0  0
    5.9661    1.5059   -1.4987 H   0  0  0  0  0  0  0  0  0  0  0  0
    4.2769    2.0561   -1.5496 H   0  0  0  0  0  0  0  0  0  0  0  0
    3.9352    4.3593   -0.7127 H   0  0  0  0  0  0  0  0  0  0  0  0
    5.5684    4.7279   -1.2753 H   0  0  0  0  0  0  0  0  0  0  0  0
    5.0874    5.1373    0.3778 H   0  0  0  0  0  0  0  0  0  0  0  0
    7.3389    3.3405   -0.3704 H   0  0  0  0  0  0  0  0  0  0  0  0
    5.4586   -1.1825   -1.4768 H   0  0  0  0  0  0  0  0  0  0  0  0
    4.7980   -3.2526   -2.6711 H   0  0  0  0  0  0  0  0  0  0  0  0
   -0.5358    0.3046   -0.6484 H   0  0  0  0  0  0  0  0  0  0  0  0
    0.8572   -2.0570    2.6700 H   0  0  0  0  0  0  0  0  0  0  0  0
   -0.0303   -3.0035   -0.4298 H   0  0  0  0  0  0  0  0  0  0  0  0
    0.5034   -4.2220   -1.5271 H   0  0  0  0  0  0  0  0  0  0  0  0
   -1.4458   -2.2776    3.4789 H   0  0  0  0  0  0  0  0  0  0  0  0
   -3.8848   -1.7742    3.2102 H   0  0  0  0  0  0  0  0  0  0  0  0
   -5.6930   -0.6943    1.9324 H   0  0  0  0  0  0  0  0  0  0  0  0
   -5.2027    2.6220    0.7367 H   0  0  0  0  0  0  0  0  0  0  0  0
   -5.6885   -0.9652   -1.6164 H   0  0  0  0  0  0  0  0  0  0  0  0
   -6.9201    3.7416   -0.6341 H   0  0  0  0  0  0  0  0  0  0  0  0
   -7.4037    0.1715   -2.9761 H   0  0  0  0  0  0  0  0  0  0  0  0
   -8.0249    2.5240   -2.4918 H   0  0  0  0  0  0  0  0  0  0  0  0
  1  7  1  0  0  0  0
  1 41  1  0  0  0  0
  2 11  1  0  0  0  0
  2 13  1  0  0  0  0
  2 15  1  0  0  0  0
  3 11  2  0  0  0  0
  3 14  1  0  0  0  0
  4 16  2  0  0  0  0
  4 18  1  0  0  0  0
  5 16  1  0  0  0  0
  5 46  1  0  0  0  0
  5 47  1  0  0  0  0
  6 21  1  0  0  0  0
  6 25  2  0  0  0  0
  7  9  1  0  0  0  0
  7 10  1  0  0  0  0
  7 12  1  0  0  0  0
  8  9  1  0  0  0  0
  8 10  1  0  0  0  0
  8 11  1  0  0  0  0
  8 33  1  0  0  0  0
  9 34  1  0  0  0  0
  9 35  1  0  0  0  0
 10 36  1  0  0  0  0
 10 37  1  0  0  0  0
 12 38  1  0  0  0  0
 12 39  1  0  0  0  0
 12 40  1  0  0  0  0
 13 14  2  0  0  0  0
 13 16  1  0  0  0  0
 14 17  1  0  0  0  0
 15 18  2  0  0  0  0
 15 42  1  0  0  0  0
 17 19  2  0  0  0  0
 17 20  1  0  0  0  0
 18 43  1  0  0  0  0
 19 21  1  0  0  0  0
 19 44  1  0  0  0  0
 20 22  2  0  0  0  0
 20 45  1  0  0  0  0
 21 23  2  0  0  0  0
 22 23  1  0  0  0  0
 22 48  1  0  0  0  0
 23 24  1  0  0  0  0
 24 26  2  0  0  0  0
 24 49  1  0  0  0  0
 25 26  1  0  0  0  0
 25 27  1  0  0  0  0
 26 50  1  0  0  0  0
 27 28  2  0  0  0  0
 27 29  1  0  0  0  0
 28 30  1  0  0  0  0
 28 51  1  0  0  0  0
 29 31  2  0  0  0  0
 29 52  1  0  0  0  0
 30 32  2  0  0  0  0
 30 53  1  0  0  0  0
 31 32  1  0  0  0  0
 31 54  1  0  0  0  0
 32 55  1  0  0  0  0
M  END
> <PUBCHEM_COMPOUND_CID>
11640390

> <PUBCHEM_CONFORMER_RMSD>
0.8

> <PUBCHEM_CONFORMER_DIVERSEORDER>
1
9
6
10
7
8
5
2
3
4

> <PUBCHEM_MMFF94_PARTIAL_CHARGES>
42
1 -0.66
11 0.03
13 -0.24
14 0.17
15 -0.18
16 0.58
17 0.05
18 0.02
19 -0.15
2 0.33
20 -0.15
21 0.31
22 -0.15
24 -0.15
25 0.31
26 -0.15
28 -0.15
29 -0.15
3 -0.57
30 -0.15
31 -0.15
32 -0.15
4 -0.62
41 0.4
42 0.15
43 0.15
44 0.15
45 0.15
46 0.4
47 0.4
48 0.15
49 0.15
5 -0.85
50 0.15
51 0.15
52 0.15
53 0.15
54 0.15
55 0.15
6 -0.62
7 0.26
8 0.16

> <PUBCHEM_EFFECTIVE_ROTOR_COUNT>
3.8

> <PUBCHEM_PHARMACOPHORE_FEATURES>
12
1 1 acceptor
1 1 donor
1 5 donor
1 6 acceptor
3 2 3 11 cation
3 4 5 16 cation
4 7 8 9 10 rings
5 2 3 11 13 14 rings
6 17 19 20 21 22 23 rings
6 2 4 13 15 16 18 rings
6 27 28 29 30 31 32 rings
6 6 21 23 24 25 26 rings

> <PUBCHEM_HEAVY_ATOM_COUNT>
32

> <PUBCHEM_ATOM_DEF_STEREO_COUNT>
0

> <PUBCHEM_ATOM_UDEF_STEREO_COUNT>
0

> <PUBCHEM_BOND_DEF_STEREO_COUNT>
0

> <PUBCHEM_BOND_UDEF_STEREO_COUNT>
0

> <PUBCHEM_ISOTOPIC_ATOM_COUNT>
0

> <PUBCHEM_COMPONENT_COUNT>
1

> <PUBCHEM_CACTVS_TAUTO_COUNT>
2

> <PUBCHEM_CONFORMER_ID>
00B19E4600000001

> <PUBCHEM_MMFF94_ENERGY>
99.6843

> <PUBCHEM_FEATURE_SELFOVERLAP>
61.03

> <PUBCHEM_SHAPE_FINGERPRINT>
10554248 39 17988651744137387147
10985338 1 18272649000391462550
11720765 8 17902787457851795866
12440610 7 18187374271491251607
13911987 19 18058740246194824264
14251764 30 10807940383525176137
14556957 393 17346325864696473785
14739800 52 17677319529428052321
15082195 135 18130782348048494529
15183329 4 17915172422189576919
15238133 3 16298110886540153674
15274700 147 16967740148082701469
15324884 4 18045251372984069746
15350500 55 18188486990960964940
15530120 55 17917130746709111933
15950262 2 17533221006105548496
16989378 47 15554439730453331889
19246450 95 12974698440469216301
19304671 126 18336826373745270141
20505436 4 13263839221039894282
20715895 44 18113896078676436224
21033648 29 17821737143209405331
21223535 225 18049730620315384585
21585481 104 18057879148935242437
21968339 14 18201996625605687688
22033318 11 12685648842271596239
23522609 53 17059796446297044017
23559900 14 17750250126818790594
23929065 36 17387137666519335115
24893989 43 13683719681909287589
25269216 80 15123515860530282077
27425 322 18260820522987149743
2748736 6 17967802873598510709
2838139 119 18263360463967416944
3004659 81 17345745266716989111
3388396 114 17918001576555224400
3459 39 17022620862628738863
34797466 226 18412827967594629795
3504750 166 9583515444075302849
3862424 121 13613668743921300573
3918712 181 17750776780795248741
44249763 50 17967812769608927063
44317340 157 18340495461210976187
44880568 143 18339356363154983261
46194498 28 18271241608300496813
504579 68 17203613674773675125
5104073 3 16877939421864583785
5223283 242 17766294071915806367
5951187 136 18261387798151388856
59682541 52 18131065979193252447
60123966 16 18412832356834785950
6058803 2 16843063921805933522
6327066 14 18268988873002215684
636775 8 9510923500118821224
6376802 90 18334861666314536563
6677587 24 18196342897749345957
6697151 62 18122909733430916990

> <PUBCHEM_SHAPE_MULTIPOLES>
627.77
18.77
4.24
2.22
16.32
2.41
-0.16
19.89
8.33
-7.24
1.38
1.76
-1.62
5.06

> <PUBCHEM_SHAPE_SELFOVERLAP>
1419.472

> <PUBCHEM_SHAPE_VOLUME>
329.3

> <PUBCHEM_COORDINATE_TYPE>
2
5
10

$$$$
