9958125
  -OEChem-10062121573D

 69 75  0     0  0  0  0  0  0999 V2000
   -2.4982   -3.0461   -2.7864 O   0  0  0  0  0  0  0  0  0  0  0  0
   -4.8166    0.8827   -3.1678 O   0  0  0  0  0  0  0  0  0  0  0  0
    0.5312   -1.6847    0.3916 N   0  0  0  0  0  0  0  0  0  0  0  0
    4.7232   -1.0368   -0.2411 N   0  0  0  0  0  0  0  0  0  0  0  0
   -3.8463   -1.2237   -3.2924 N   0  0  0  0  0  0  0  0  0  0  0  0
   -2.4337    3.3138   -0.0512 N   0  0  0  0  0  0  0  0  0  0  0  0
    1.9853   -1.6578    0.5817 C   0  0  0  0  0  0  0  0  0  0  0  0
    2.7353   -2.4954   -0.4646 C   0  0  0  0  0  0  0  0  0  0  0  0
    2.5509   -0.2310    0.6313 C   0  0  0  0  0  0  0  0  0  0  0  0
    4.2479   -2.4275   -0.2396 C   0  0  0  0  0  0  0  0  0  0  0  0
    4.0704   -0.2496    0.8147 C   0  0  0  0  0  0  0  0  0  0  0  0
   -0.3834   -2.1909    1.2872 C   0  0  0  0  0  0  0  0  0  0  0  0
   -0.1104   -1.2007   -0.7165 C   0  0  0  0  0  0  0  0  0  0  0  0
    6.1770   -0.9939   -0.0846 C   0  0  0  0  0  0  0  0  0  0  0  0
   -1.4613   -1.3939   -0.5416 C   0  0  0  0  0  0  0  0  0  0  0  0
   -1.6491   -2.0198    0.7226 C   0  0  0  0  0  0  0  0  0  0  0  0
   -2.4600   -1.0150   -1.4922 C   0  0  0  0  0  0  0  0  0  0  0  0
   -0.1893   -2.7812    2.5411 C   0  0  0  0  0  0  0  0  0  0  0  0
    6.7087    0.4123   -0.1655 C   0  0  0  0  0  0  0  0  0  0  0  0
   -2.7780   -2.4587    1.4428 C   0  0  0  0  0  0  0  0  0  0  0  0
   -3.1332    0.1442   -1.6112 C   0  0  0  0  0  0  0  0  0  0  0  0
   -1.3236   -3.2088    3.2370 C   0  0  0  0  0  0  0  0  0  0  0  0
   -2.9107   -1.9167   -2.5829 C   0  0  0  0  0  0  0  0  0  0  0  0
   -2.5990   -3.0509    2.6981 C   0  0  0  0  0  0  0  0  0  0  0  0
   -3.0706    1.3206   -0.8006 C   0  0  0  0  0  0  0  0  0  0  0  0
   -4.0445    0.0231   -2.7779 C   0  0  0  0  0  0  0  0  0  0  0  0
    7.0824    0.9320   -1.3969 C   0  0  0  0  0  0  0  0  0  0  0  0
    6.8179    1.1691    0.9928 C   0  0  0  0  0  0  0  0  0  0  0  0
   -3.8484    1.6363    0.3509 C   0  0  0  0  0  0  0  0  0  0  0  0
   -2.2100    2.3736   -1.0208 C   0  0  0  0  0  0  0  0  0  0  0  0
   -3.4290    2.8903    0.8004 C   0  0  0  0  0  0  0  0  0  0  0  0
    7.5755    2.2348   -1.4716 C   0  0  0  0  0  0  0  0  0  0  0  0
    7.3108    2.4720    0.9180 C   0  0  0  0  0  0  0  0  0  0  0  0
   -4.8721    0.9712    1.0544 C   0  0  0  0  0  0  0  0  0  0  0  0
    7.6896    3.0047   -0.3143 C   0  0  0  0  0  0  0  0  0  0  0  0
   -3.9845    3.5148    1.9228 C   0  0  0  0  0  0  0  0  0  0  0  0
   -1.7187    4.5680    0.0486 C   0  0  0  0  0  0  0  0  0  0  0  0
   -5.4371    1.5837    2.1789 C   0  0  0  0  0  0  0  0  0  0  0  0
   -4.9986    2.8361    2.6047 C   0  0  0  0  0  0  0  0  0  0  0  0
    2.1865   -2.1136    1.5574 H   0  0  0  0  0  0  0  0  0  0  0  0
    2.4035   -3.5399   -0.4172 H   0  0  0  0  0  0  0  0  0  0  0  0
    2.5059   -2.1405   -1.4776 H   0  0  0  0  0  0  0  0  0  0  0  0
    2.0874    0.3271    1.4543 H   0  0  0  0  0  0  0  0  0  0  0  0
    2.3049    0.3114   -0.2910 H   0  0  0  0  0  0  0  0  0  0  0  0
    4.5025   -2.9272    0.7044 H   0  0  0  0  0  0  0  0  0  0  0  0
    4.7359   -2.9882   -1.0463 H   0  0  0  0  0  0  0  0  0  0  0  0
    4.3559    0.8044    0.7753 H   0  0  0  0  0  0  0  0  0  0  0  0
    4.3182   -0.6359    1.8120 H   0  0  0  0  0  0  0  0  0  0  0  0
    0.4407   -0.7592   -1.5368 H   0  0  0  0  0  0  0  0  0  0  0  0
    6.6552   -1.5901   -0.8736 H   0  0  0  0  0  0  0  0  0  0  0  0
    6.4915   -1.4525    0.8636 H   0  0  0  0  0  0  0  0  0  0  0  0
    0.7938   -2.9134    2.9784 H   0  0  0  0  0  0  0  0  0  0  0  0
   -3.7791   -2.3446    1.0367 H   0  0  0  0  0  0  0  0  0  0  0  0
   -1.2079   -3.6715    4.2138 H   0  0  0  0  0  0  0  0  0  0  0  0
   -3.4661   -3.3914    3.2580 H   0  0  0  0  0  0  0  0  0  0  0  0
    6.9958    0.3421   -2.3050 H   0  0  0  0  0  0  0  0  0  0  0  0
    6.5428    0.7633    1.9623 H   0  0  0  0  0  0  0  0  0  0  0  0
   -4.3345   -1.5904   -4.1015 H   0  0  0  0  0  0  0  0  0  0  0  0
   -1.4597    2.5281   -1.7857 H   0  0  0  0  0  0  0  0  0  0  0  0
    7.8701    2.6498   -2.4311 H   0  0  0  0  0  0  0  0  0  0  0  0
    7.4032    3.0703    1.8197 H   0  0  0  0  0  0  0  0  0  0  0  0
   -5.2265   -0.0048    0.7354 H   0  0  0  0  0  0  0  0  0  0  0  0
   -3.6476    4.4894    2.2595 H   0  0  0  0  0  0  0  0  0  0  0  0
    8.0741    4.0188   -0.3723 H   0  0  0  0  0  0  0  0  0  0  0  0
   -0.9863    4.6390   -0.7595 H   0  0  0  0  0  0  0  0  0  0  0  0
   -2.4410    5.3841   -0.0338 H   0  0  0  0  0  0  0  0  0  0  0  0
   -1.2077    4.5975    1.0143 H   0  0  0  0  0  0  0  0  0  0  0  0
   -6.2271    1.0753    2.7253 H   0  0  0  0  0  0  0  0  0  0  0  0
   -5.4514    3.2934    3.4807 H   0  0  0  0  0  0  0  0  0  0  0  0
  1 23  2  0  0  0  0
  2 26  2  0  0  0  0
  3  7  1  0  0  0  0
  3 12  1  0  0  0  0
  3 13  1  0  0  0  0
  4 10  1  0  0  0  0
  4 11  1  0  0  0  0
  4 14  1  0  0  0  0
  5 23  1  0  0  0  0
  5 26  1  0  0  0  0
  5 58  1  0  0  0  0
  6 30  1  0  0  0  0
  6 31  1  0  0  0  0
  6 37  1  0  0  0  0
  7  8  1  0  0  0  0
  7  9  1  0  0  0  0
  7 40  1  0  0  0  0
  8 10  1  0  0  0  0
  8 41  1  0  0  0  0
  8 42  1  0  0  0  0
  9 11  1  0  0  0  0
  9 43  1  0  0  0  0
  9 44  1  0  0  0  0
 10 45  1  0  0  0  0
 10 46  1  0  0  0  0
 11 47  1  0  0  0  0
 11 48  1  0  0  0  0
 12 16  1  0  0  0  0
 12 18  2  0  0  0  0
 13 15  2  0  0  0  0
 13 49  1  0  0  0  0
 14 19  1  0  0  0  0
 14 50  1  0  0  0  0
 14 51  1  0  0  0  0
 15 16  1  0  0  0  0
 15 17  1  0  0  0  0
 16 20  2  0  0  0  0
 17 21  2  0  0  0  0
 17 23  1  0  0  0  0
 18 22  1  0  0  0  0
 18 52  1  0  0  0  0
 19 27  2  0  0  0  0
 19 28  1  0  0  0  0
 20 24  1  0  0  0  0
 20 53  1  0  0  0  0
 21 25  1  0  0  0  0
 21 26  1  0  0  0  0
 22 24  2  0  0  0  0
 22 54  1  0  0  0  0
 24 55  1  0  0  0  0
 25 29  1  0  0  0  0
 25 30  2  0  0  0  0
 27 32  1  0  0  0  0
 27 56  1  0  0  0  0
 28 33  2  0  0  0  0
 28 57  1  0  0  0  0
 29 31  1  0  0  0  0
 29 34  2  0  0  0  0
 30 59  1  0  0  0  0
 31 36  2  0  0  0  0
 32 35  2  0  0  0  0
 32 60  1  0  0  0  0
 33 35  1  0  0  0  0
 33 61  1  0  0  0  0
 34 38  1  0  0  0  0
 34 62  1  0  0  0  0
 35 64  1  0  0  0  0
 36 39  1  0  0  0  0
 36 63  1  0  0  0  0
 37 65  1  0  0  0  0
 37 66  1  0  0  0  0
 37 67  1  0  0  0  0
 38 39  2  0  0  0  0
 38 68  1  0  0  0  0
 39 69  1  0  0  0  0
M  END
> <PUBCHEM_COMPOUND_CID>
9958125

> <PUBCHEM_CONFORMER_RMSD>
1

> <PUBCHEM_CONFORMER_DIVERSEORDER>
1
32
110
52
97
139
143
11
118
46
113
47
54
121
22
26
128
67
78
69
39
137
142
42
12
33
74
10
4
59
144
89
135
82
117
106
104
96
68
37
25
56
133
6
84
136
23
125
36
129
35
102
31
109
45
75
123
53
18
55
71
21
94
40
70
120
43
114
41
107
112
30
72
138
99
81
124
116
28
17
134
141
13
130
83
61
48
100
27
3
132
76
111
34
20
7
64
105
62
58
140
98
90
49
60
77
80
50
38
115
95
44
65
101
51
24
87
103
16
19
29
14
93
73
79
57
8
15
92
108
119
5
85
91
9
2
88
127
66
63
126
131
86
122

> <PUBCHEM_MMFF94_PARTIAL_CHARGES>
51
1 -0.57
10 0.27
11 0.27
12 -0.15
13 -0.3
14 0.41
15 -0.05
17 0.06
18 -0.15
19 -0.14
2 -0.57
20 -0.15
21 0.06
22 -0.15
23 0.62
24 -0.15
25 -0.05
26 0.62
27 -0.15
28 -0.15
3 0.05
30 -0.3
31 -0.15
32 -0.15
33 -0.15
34 -0.15
35 -0.15
36 -0.15
37 0.26
38 -0.15
39 -0.15
4 -0.81
49 0.15
5 -0.49
52 0.15
53 0.15
54 0.15
55 0.15
56 0.15
57 0.15
58 0.37
59 0.15
6 0.05
60 0.15
61 0.15
62 0.15
63 0.15
64 0.15
68 0.15
69 0.15
7 0.26

> <PUBCHEM_EFFECTIVE_ROTOR_COUNT>
6.4

> <PUBCHEM_PHARMACOPHORE_FEATURES>
13
1 1 acceptor
1 2 acceptor
1 3 cation
1 4 cation
1 5 donor
1 6 cation
5 3 12 13 15 16 rings
5 5 17 21 23 26 rings
5 6 25 29 30 31 rings
6 12 16 18 20 22 24 rings
6 19 27 28 32 33 35 rings
6 29 31 34 36 38 39 rings
6 4 7 8 9 10 11 rings

> <PUBCHEM_HEAVY_ATOM_COUNT>
39

> <PUBCHEM_ATOM_DEF_STEREO_COUNT>
0

> <PUBCHEM_ATOM_UDEF_STEREO_COUNT>
0

> <PUBCHEM_BOND_DEF_STEREO_COUNT>
0

> <PUBCHEM_BOND_UDEF_STEREO_COUNT>
0

> <PUBCHEM_ISOTOPIC_ATOM_COUNT>
0

> <PUBCHEM_COMPONENT_COUNT>
1

> <PUBCHEM_CACTVS_TAUTO_COUNT>
3

> <PUBCHEM_CONFORMER_ID>
0097F2ED00000001

> <PUBCHEM_MMFF94_ENERGY>
88.1913

> <PUBCHEM_FEATURE_SELFOVERLAP>
66.16

> <PUBCHEM_SHAPE_FINGERPRINT>
10816530 145 17386293210859507315
11007060 377 17967808353649278263
11578080 2 17131284458318873823
12655364 74 18126300867798389656
131258 38 11463839841407774528
131258 43 17056935667201785261
14150022 121 18189911974508435987
15082195 135 18200013111224599966
15119646 57 18343587325929803443
15338160 23 18262532475491680352
15351334 14 17845674602574153318
15513586 35 18410292467415680209
15968369 153 18270413792310091416
16114785 44 18341060682875589099
16708801 149 18336537232484168560
18393751 57 18115322072432420881
21033648 29 17385718041671459535
21756936 100 18265052436105478763
21772528 278 18262534605774548665
21792965 68 18040988519780300124
249057 25 18197755762107907274
27425 322 18049445846571110501
3610482 184 18131072606375529252
392239 28 18043271071538609297
4144715 1 17241048829660636458
4258327 124 18130220446615888357
437795 83 18341048644720431724
469060 322 16732991908061490723
50677037 204 18408879647088816316
5252454 2 16626566715996604361
57527585 103 17970614415235498787
5937810 71 17823715234339678276

> <PUBCHEM_SHAPE_MULTIPOLES>
770.94
18.12
5.19
3.16
45.65
2.28
-1.04
16.9
-0.97
-2.86
2.67
-6.26
-1.63
-1.93

> <PUBCHEM_SHAPE_SELFOVERLAP>
1735.567

> <PUBCHEM_SHAPE_VOLUME>
408.5

> <PUBCHEM_COORDINATE_TYPE>
2
5
10

$$$$
