21362689
  -OEChem-10062122043D

 34 37  0     0  0  0  0  0  0999 V2000
    1.3415   -4.6110   -0.0208 Cl  0  0  0  0  0  0  0  0  0  0  0  0
   -2.7972   -1.9891    0.0186 O   0  0  0  0  0  0  0  0  0  0  0  0
    1.3961    1.2302    0.0132 N   0  0  0  0  0  0  0  0  0  0  0  0
   -1.2659   -0.2047    0.0198 N   0  0  0  0  0  0  0  0  0  0  0  0
    4.7676    2.7262    0.0009 N   0  0  0  0  0  0  0  0  0  0  0  0
   -3.3469    1.4736   -0.0091 N   0  0  0  0  0  0  0  0  0  0  0  0
    1.1757   -0.1273    0.0069 C   0  0  0  0  0  0  0  0  0  0  0  0
    2.4249   -0.7490   -0.0031 C   0  0  0  0  0  0  0  0  0  0  0  0
    3.4157    0.2834   -0.0025 C   0  0  0  0  0  0  0  0  0  0  0  0
    2.7421    1.5043    0.0072 C   0  0  0  0  0  0  0  0  0  0  0  0
   -0.0265   -0.8441    0.0093 C   0  0  0  0  0  0  0  0  0  0  0  0
    2.4767   -2.1588   -0.0116 C   0  0  0  0  0  0  0  0  0  0  0  0
    0.0510   -2.2394    0.0012 C   0  0  0  0  0  0  0  0  0  0  0  0
    4.8193    0.2948   -0.0098 C   0  0  0  0  0  0  0  0  0  0  0  0
    1.2829   -2.8891   -0.0091 C   0  0  0  0  0  0  0  0  0  0  0  0
    3.4147    2.7194    0.0092 C   0  0  0  0  0  0  0  0  0  0  0  0
    5.4246    1.5444   -0.0076 C   0  0  0  0  0  0  0  0  0  0  0  0
   -2.5392   -0.7902    0.0237 C   0  0  0  0  0  0  0  0  0  0  0  0
   -3.6795    0.1633    0.0065 C   0  0  0  0  0  0  0  0  0  0  0  0
   -4.9831   -0.3062    0.0086 C   0  0  0  0  0  0  0  0  0  0  0  0
   -6.0117    0.6294   -0.0060 C   0  0  0  0  0  0  0  0  0  0  0  0
   -4.3734    2.3534   -0.0231 C   0  0  0  0  0  0  0  0  0  0  0  0
   -5.7095    1.9865   -0.0223 C   0  0  0  0  0  0  0  0  0  0  0  0
    0.6687    1.9317    0.0207 H   0  0  0  0  0  0  0  0  0  0  0  0
    3.4379   -2.6663   -0.0199 H   0  0  0  0  0  0  0  0  0  0  0  0
   -0.8243   -2.8754    0.0021 H   0  0  0  0  0  0  0  0  0  0  0  0
    5.4063   -0.6163   -0.0174 H   0  0  0  0  0  0  0  0  0  0  0  0
    2.9141    3.6787    0.0162 H   0  0  0  0  0  0  0  0  0  0  0  0
   -1.2347    0.8121    0.0212 H   0  0  0  0  0  0  0  0  0  0  0  0
    6.5074    1.6265   -0.0134 H   0  0  0  0  0  0  0  0  0  0  0  0
   -5.2218   -1.3640    0.0219 H   0  0  0  0  0  0  0  0  0  0  0  0
   -7.0469    0.3017   -0.0048 H   0  0  0  0  0  0  0  0  0  0  0  0
   -4.0846    3.3992   -0.0354 H   0  0  0  0  0  0  0  0  0  0  0  0
   -6.4950    2.7334   -0.0339 H   0  0  0  0  0  0  0  0  0  0  0  0
  1 15  1  0  0  0  0
  2 18  2  0  0  0  0
  3  7  1  0  0  0  0
  3 10  1  0  0  0  0
  3 24  1  0  0  0  0
  4 11  1  0  0  0  0
  4 18  1  0  0  0  0
  4 29  1  0  0  0  0
  5 16  2  0  0  0  0
  5 17  1  0  0  0  0
  6 19  1  0  0  0  0
  6 22  2  0  0  0  0
  7  8  2  0  0  0  0
  7 11  1  0  0  0  0
  8  9  1  0  0  0  0
  8 12  1  0  0  0  0
  9 10  2  0  0  0  0
  9 14  1  0  0  0  0
 10 16  1  0  0  0  0
 11 13  2  0  0  0  0
 12 15  2  0  0  0  0
 12 25  1  0  0  0  0
 13 15  1  0  0  0  0
 13 26  1  0  0  0  0
 14 17  2  0  0  0  0
 14 27  1  0  0  0  0
 16 28  1  0  0  0  0
 17 30  1  0  0  0  0
 18 19  1  0  0  0  0
 19 20  2  0  0  0  0
 20 21  1  0  0  0  0
 20 31  1  0  0  0  0
 21 23  2  0  0  0  0
 21 32  1  0  0  0  0
 22 23  1  0  0  0  0
 22 33  1  0  0  0  0
 23 34  1  0  0  0  0
M  END
> <PUBCHEM_COMPOUND_CID>
21362689

> <PUBCHEM_CONFORMER_RMSD>
0.6

> <PUBCHEM_CONFORMER_DIVERSEORDER>
1
8
13
7
11
2
5
12
4
3
6
10
9

> <PUBCHEM_MMFF94_PARTIAL_CHARGES>
32
1 -0.18
10 -0.15
11 0.12
12 -0.15
13 -0.15
14 -0.15
15 0.18
16 0.16
17 0.16
18 0.54
19 0.4
2 -0.57
20 -0.15
21 -0.15
22 0.16
23 -0.15
24 0.27
25 0.15
26 0.15
27 0.15
28 0.15
29 0.37
3 0.03
30 0.15
31 0.15
32 0.15
33 0.15
34 0.15
4 -0.55
5 -0.62
6 -0.62
7 -0.15

> <PUBCHEM_EFFECTIVE_ROTOR_COUNT>
3

> <PUBCHEM_PHARMACOPHORE_FEATURES>
10
1 2 acceptor
1 3 cation
1 3 donor
1 4 donor
1 5 acceptor
1 6 acceptor
5 3 7 8 9 10 rings
6 5 9 10 14 16 17 rings
6 6 19 20 21 22 23 rings
6 7 8 11 12 13 15 rings

> <PUBCHEM_HEAVY_ATOM_COUNT>
23

> <PUBCHEM_ATOM_DEF_STEREO_COUNT>
0

> <PUBCHEM_ATOM_UDEF_STEREO_COUNT>
0

> <PUBCHEM_BOND_DEF_STEREO_COUNT>
0

> <PUBCHEM_BOND_UDEF_STEREO_COUNT>
0

> <PUBCHEM_ISOTOPIC_ATOM_COUNT>
0

> <PUBCHEM_COMPONENT_COUNT>
1

> <PUBCHEM_CACTVS_TAUTO_COUNT>
4

> <PUBCHEM_CONFORMER_ID>
0145F80100000001

> <PUBCHEM_MMFF94_ENERGY>
59.7258

> <PUBCHEM_FEATURE_SELFOVERLAP>
50.933

> <PUBCHEM_SHAPE_FINGERPRINT>
10411042 1 17690280404908927598
10595046 47 18342452618010316301
10693767 8 17915746379854931278
10835480 77 18335134238593954949
12107183 9 17477489707950828105
12293681 160 17846223293003816200
12730499 353 18409176497546682419
12769317 202 18341040852710571417
12788726 201 17202770285263315929
12930653 34 18336552719635304883
13402501 40 18408884048928997957
13631057 29 18129094710165677271
13785724 45 17621321234284501735
138480 1 17978510828162400070
13878862 14 18046323281268179725
13955234 65 18264774263869201491
14466204 15 18411130334183828800
14528608 73 18413106165105111901
14790565 3 18337394958384644924
15196674 1 18410855473023619681
15475509 35 16371849530572379162
15664445 248 17840880581247804670
15927050 60 18411418458187196870
17844677 252 18196660601466215785
18335252 98 18408606977374628819
18608769 82 18339082722145535027
19427546 62 18409168813929583779
19611394 137 17824557481172050315
19784866 9 18412540998858817178
20157964 124 18338513046135937533
20739085 24 18186802448625228052
21033648 144 18114169865613565047
21033648 29 18269831089844332984
21065198 57 18266178323670510731
21279426 13 18342185466533279724
21307412 95 17985859045750997686
21421861 104 17896591787549379842
22393880 68 18272652367586831927
22950370 63 9222963585797268112
23558518 356 17540811033655288048
23559900 14 18267582395276288331
23845131 108 18261109699167529771
23929065 36 17553177206415378394
239999 70 18201443510858556806
244849 19 17896909589328189139
245318 6 17606416581086318325
335352 9 18410857668801694454
3411729 13 18334574616691321434
350125 39 18336263453946082796
3545911 37 18410014338513359017
38695281 34 18343019991026419222
4058900 60 18260842487860961986
4073 2 18041003976460484274
474 4 18410575080505359331
5104073 3 18260554373175788795
5385378 56 18339646641848662819
543358 83 18268995288928644115
59755656 215 18410579444487459884
633830 44 18342453768376107222
67856867 119 18338791213486917323
77188 2 17762055433164249494
7808743 9 18338794644875441553
8272917 22 18340488867866659606
9709674 26 18337395933727498819
9981440 41 18336546122370028843

> <PUBCHEM_SHAPE_MULTIPOLES>
449.41
12.84
4.1
0.6
12.27
3.51
0
-11.12
-0.06
-3.45
-0.03
-0.01
0.02
0.04

> <PUBCHEM_SHAPE_SELFOVERLAP>
1003.785

> <PUBCHEM_SHAPE_VOLUME>
239.3

> <PUBCHEM_COORDINATE_TYPE>
2
5
10

$$$$
