46872619
  -OEChem-10062121533D

 44 46  0     0  0  0  0  0  0999 V2000
   -7.3546   -1.3934   -1.0131 Cl  0  0  0  0  0  0  0  0  0  0  0  0
   -8.3920    1.0161    0.8818 Cl  0  0  0  0  0  0  0  0  0  0  0  0
    7.8629    2.1171    0.7599 O   0  0  0  0  0  0  0  0  0  0  0  0
    7.0595    1.6890   -1.3140 O   0  0  0  0  0  0  0  0  0  0  0  0
   -1.9815   -0.4707    0.1412 O   0  0  0  0  0  0  0  0  0  0  0  0
    4.3625   -0.7203    0.4592 N   0  0  0  0  0  0  0  0  0  0  0  0
    5.9931    0.5972    0.6286 C   0  0  0  0  0  0  0  0  0  0  0  0
    4.4980    0.7498    0.3150 C   0  0  0  0  0  0  0  0  0  0  0  0
    5.8050   -0.8447    0.1363 C   0  0  0  0  0  0  0  0  0  0  0  0
    3.5621   -1.2530   -0.6437 C   0  0  0  0  0  0  0  0  0  0  0  0
    7.0017    1.5057   -0.1003 C   0  0  0  0  0  0  0  0  0  0  0  0
    2.0972   -1.0615   -0.4251 C   0  0  0  0  0  0  0  0  0  0  0  0
    1.3921   -1.8718    0.4647 C   0  0  0  0  0  0  0  0  0  0  0  0
    1.4347   -0.0534   -1.1252 C   0  0  0  0  0  0  0  0  0  0  0  0
    0.0244   -1.6740    0.6546 C   0  0  0  0  0  0  0  0  0  0  0  0
    0.0670    0.1444   -0.9356 C   0  0  0  0  0  0  0  0  0  0  0  0
    2.0805   -2.9571    1.2256 C   0  0  0  0  0  0  0  0  0  0  0  0
   -0.6381   -0.6658   -0.0457 C   0  0  0  0  0  0  0  0  0  0  0  0
   -2.5866    0.5766   -0.6070 C   0  0  0  0  0  0  0  0  0  0  0  0
   -4.0308    0.6721   -0.2470 C   0  0  0  0  0  0  0  0  0  0  0  0
   -4.9341   -0.2761   -0.7272 C   0  0  0  0  0  0  0  0  0  0  0  0
   -4.4780    1.7100    0.5706 C   0  0  0  0  0  0  0  0  0  0  0  0
   -6.2846   -0.1867   -0.3896 C   0  0  0  0  0  0  0  0  0  0  0  0
   -5.8286    1.7996    0.9080 C   0  0  0  0  0  0  0  0  0  0  0  0
   -6.7318    0.8513    0.4279 C   0  0  0  0  0  0  0  0  0  0  0  0
    6.1681    0.6187    1.7169 H   0  0  0  0  0  0  0  0  0  0  0  0
    4.2972    1.1689   -0.6797 H   0  0  0  0  0  0  0  0  0  0  0  0
    3.9303    1.3279    1.0513 H   0  0  0  0  0  0  0  0  0  0  0  0
    6.3317   -1.6047    0.7223 H   0  0  0  0  0  0  0  0  0  0  0  0
    6.0535   -0.9944   -0.9227 H   0  0  0  0  0  0  0  0  0  0  0  0
    3.7703   -2.3246   -0.7592 H   0  0  0  0  0  0  0  0  0  0  0  0
    3.8506   -0.8236   -1.6149 H   0  0  0  0  0  0  0  0  0  0  0  0
    1.9696    0.5860   -1.8227 H   0  0  0  0  0  0  0  0  0  0  0  0
   -0.5355   -2.2991    1.3458 H   0  0  0  0  0  0  0  0  0  0  0  0
    8.5010    2.6937    0.2880 H   0  0  0  0  0  0  0  0  0  0  0  0
   -0.3810    0.9425   -1.5169 H   0  0  0  0  0  0  0  0  0  0  0  0
    1.3792   -3.5020    1.8679 H   0  0  0  0  0  0  0  0  0  0  0  0
    2.8551   -2.5489    1.8815 H   0  0  0  0  0  0  0  0  0  0  0  0
    2.5202   -3.6939    0.5460 H   0  0  0  0  0  0  0  0  0  0  0  0
   -2.1056    1.5381   -0.3848 H   0  0  0  0  0  0  0  0  0  0  0  0
   -2.5145    0.3786   -1.6849 H   0  0  0  0  0  0  0  0  0  0  0  0
   -4.5790   -1.0840   -1.3635 H   0  0  0  0  0  0  0  0  0  0  0  0
   -3.7863    2.4551    0.9546 H   0  0  0  0  0  0  0  0  0  0  0  0
   -6.1597    2.6146    1.5467 H   0  0  0  0  0  0  0  0  0  0  0  0
  1 23  1  0  0  0  0
  2 25  1  0  0  0  0
  3 11  1  0  0  0  0
  3 35  1  0  0  0  0
  4 11  2  0  0  0  0
  5 18  1  0  0  0  0
  5 19  1  0  0  0  0
  6  8  1  0  0  0  0
  6  9  1  0  0  0  0
  6 10  1  0  0  0  0
  7  8  1  0  0  0  0
  7  9  1  0  0  0  0
  7 11  1  0  0  0  0
  7 26  1  0  0  0  0
  8 27  1  0  0  0  0
  8 28  1  0  0  0  0
  9 29  1  0  0  0  0
  9 30  1  0  0  0  0
 10 12  1  0  0  0  0
 10 31  1  0  0  0  0
 10 32  1  0  0  0  0
 12 13  2  0  0  0  0
 12 14  1  0  0  0  0
 13 15  1  0  0  0  0
 13 17  1  0  0  0  0
 14 16  2  0  0  0  0
 14 33  1  0  0  0  0
 15 18  2  0  0  0  0
 15 34  1  0  0  0  0
 16 18  1  0  0  0  0
 16 36  1  0  0  0  0
 17 37  1  0  0  0  0
 17 38  1  0  0  0  0
 17 39  1  0  0  0  0
 19 20  1  0  0  0  0
 19 40  1  0  0  0  0
 19 41  1  0  0  0  0
 20 21  2  0  0  0  0
 20 22  1  0  0  0  0
 21 23  1  0  0  0  0
 21 42  1  0  0  0  0
 22 24  2  0  0  0  0
 22 43  1  0  0  0  0
 23 25  2  0  0  0  0
 24 25  1  0  0  0  0
 24 44  1  0  0  0  0
M  END
> <PUBCHEM_COMPOUND_CID>
46872619

> <PUBCHEM_CONFORMER_RMSD>
1

> <PUBCHEM_CONFORMER_DIVERSEORDER>
1
96
156
30
150
160
63
43
95
192
18
135
114
119
31
116
41
183
98
36
93
87
158
54
100
187
132
191
24
15
49
155
186
145
84
58
181
17
42
147
170
190
117
171
101
99
78
184
94
179
141
23
129
127
166
83
35
163
176
65
77
32
85
39
76
108
19
157
60
172
25
152
139
51
137
140
26
28
86
50
182
73
174
113
120
165
46
9
22
68
148
162
33
112
88
143
72
45
21
169
194
138
121
106
107
153
69
125
16
89
40
105
134
110
173
188
7
48
133
151
118
161
14
111
109
167
13
159
126
115
180
57
142
47
10
61
122
34
178
90
177
131
70
4
136
55
27
56
144
74
97
128
6
124
189
92
185
11
123
66
104
79
80
195
53
81
175
71
149
193
8
20
52
103
82
130
37
64
5
146
59
154
44
12
67
168
2
62
102
91
164
75
29
3
38

> <PUBCHEM_MMFF94_PARTIAL_CHARGES>
32
1 -0.18
10 0.41
11 0.67
12 -0.14
13 -0.14
14 -0.15
15 -0.15
16 -0.15
17 0.14
18 0.08
19 0.42
2 -0.18
20 -0.14
21 -0.15
22 -0.15
23 0.18
24 -0.15
25 0.18
3 -0.65
33 0.15
34 0.15
35 0.5
36 0.15
4 -0.57
42 0.15
43 0.15
44 0.15
5 -0.36
6 -0.69
7 0.05
8 0.21
9 0.21

> <PUBCHEM_EFFECTIVE_ROTOR_COUNT>
6.8

> <PUBCHEM_PHARMACOPHORE_FEATURES>
8
1 3 acceptor
1 4 acceptor
1 5 acceptor
1 6 cation
3 3 4 11 anion
4 6 7 8 9 rings
6 12 13 14 15 16 18 rings
6 20 21 22 23 24 25 rings

> <PUBCHEM_HEAVY_ATOM_COUNT>
25

> <PUBCHEM_ATOM_DEF_STEREO_COUNT>
0

> <PUBCHEM_ATOM_UDEF_STEREO_COUNT>
0

> <PUBCHEM_BOND_DEF_STEREO_COUNT>
0

> <PUBCHEM_BOND_UDEF_STEREO_COUNT>
0

> <PUBCHEM_ISOTOPIC_ATOM_COUNT>
0

> <PUBCHEM_COMPONENT_COUNT>
1

> <PUBCHEM_CACTVS_TAUTO_COUNT>
1

> <PUBCHEM_CONFORMER_ID>
02CB382B00000001

> <PUBCHEM_MMFF94_ENERGY>
74.1098

> <PUBCHEM_FEATURE_SELFOVERLAP>
40.656

> <PUBCHEM_SHAPE_FINGERPRINT>
10 15 16950286221720081884
10595046 47 18342454803758578563
106641 1 17458067083484224761
10670039 82 15338846334647157761
10693767 8 10519987028775642140
11315181 36 18343018896821887381
11524674 6 14779552288033493753
11638347 137 16805599244869493712
11719270 70 13767925706628148648
11724838 91 18335417997696103972
12236239 1 18342454799453159335
12539745 222 13262940902986096686
12539765 74 18131077008595792862
12596602 18 18271525299976333955
12925494 130 18120091951764825312
13073987 5 17969503706775486169
13533116 47 17896034348224050802
13540713 5 16662634300449143566
13685833 64 8430315736443928306
14216079 64 9511465515609603376
14251732 16 18343017796587787367
14251764 18 18335139812443068692
14394314 77 18337393747900316609
14565420 104 18186799171844905770
14849402 71 18339081591636050329
14933364 13 17917992763313116565
15183329 4 10807934851823622229
15188451 53 12035448337349218142
15475509 8 11240003373196060742
15690457 1 12396301478054077657
15706992 2 18340780311757928272
15728490 51 18340483474020946647
1577012 14 18272929410447254917
16989713 51 16486394617252167623
16992610 120 18335714871043064414
16994733 274 18201718431461882033
1768 124 12252176369068238952
17980427 23 17895478141195139622
18603816 31 12107792955689152337
19377110 9 18335697196720092307
19489759 90 12829496931274860119
20105231 36 13326854461641961933
20157964 124 18411981343725943550
2026 5 10665216060294887896
21033648 29 18337383968116768184
21130935 74 17968098552195483483
21307412 95 11383831614781548236
21521721 280 18409730664276146210
21637258 2 10881400954610980318
21641784 216 15339130017268830818
21792961 116 14907908145398218319
221357 26 12031784751684078810
22224240 67 17967811656632135674
23035841 295 9511462221300855837
23576562 1 14907312270959196865
24771293 8 18334295374570188301
28498 318 9655578500377454769
3004659 81 11743839162513853438
34797466 226 17988647354475310014
3663271 9 18341331098521950283
4073 2 18409733971522802971
4325135 7 18201717362647722101
4340502 62 18113620058049631202
445580 37 16630533908020096449
5219985 9 10303819783006304938
5265222 85 17274816999763844231
54076057 255 17561076999538675128
5470011 282 14404905847490235544
5758199 1 18408605859490823443
59682541 35 18040722485010578177
59682541 52 17060351687068732590
6438161 24 10879993528467765052
9689198 14 17346599690008920572

> <PUBCHEM_SHAPE_MULTIPOLES>
495.64
24.78
2.22
1.09
5.17
0.47
-0.05
-13.72
1.68
-1.94
0.63
0.11
0.08
-1.78

> <PUBCHEM_SHAPE_SELFOVERLAP>
1038.618

> <PUBCHEM_SHAPE_VOLUME>
283.6

> <PUBCHEM_COORDINATE_TYPE>
2
5
10

$$$$
