10478569
  -OEChem-10062121593D

 51 54  0     0  0  0  0  0  0999 V2000
   -1.9910    3.4946    1.2799 F   0  0  0  0  0  0  0  0  0  0  0  0
   -6.0372    1.9067   -0.5748 F   0  0  0  0  0  0  0  0  0  0  0  0
    5.1642   -0.6299   -1.4287 O   0  0  0  0  0  0  0  0  0  0  0  0
   -5.8505   -0.3468   -1.9132 O   0  0  0  0  0  0  0  0  0  0  0  0
   -5.3083   -2.9284   -1.4294 O   0  0  0  0  0  0  0  0  0  0  0  0
    1.7023   -1.6820    1.2892 N   0  0  0  0  0  0  0  0  0  0  0  0
   -0.7344    1.0598    0.7897 N   0  0  0  0  0  0  0  0  0  0  0  0
    0.9479   -2.6203    1.9106 N   0  0  0  0  0  0  0  0  0  0  0  0
   -0.8749   -1.0519    1.7484 N   0  0  0  0  0  0  0  0  0  0  0  0
    5.6973    0.2265    0.5680 N   0  0  0  0  0  0  0  0  0  0  0  0
    6.8101    0.3183   -0.2469 N   0  0  0  0  0  0  0  0  0  0  0  0
   -4.5595   -1.9082   -0.8107 N   0  0  0  0  0  0  0  0  0  0  0  0
    2.2613    0.2314    0.3003 C   0  0  0  0  0  0  0  0  0  0  0  0
    2.2188    1.5921   -0.2761 C   0  0  0  0  0  0  0  0  0  0  0  0
    1.2266   -0.4588    0.8932 C   0  0  0  0  0  0  0  0  0  0  0  0
    3.4016   -0.6100    0.3416 C   0  0  0  0  0  0  0  0  0  0  0  0
    3.0282   -1.7853    0.9579 C   0  0  0  0  0  0  0  0  0  0  0  0
    2.5143    1.6247   -1.7923 C   0  0  0  0  0  0  0  0  0  0  0  0
    3.1471    2.5936    0.4469 C   0  0  0  0  0  0  0  0  0  0  0  0
   -0.1572   -0.1361    1.1465 C   0  0  0  0  0  0  0  0  0  0  0  0
    4.7550   -0.3338   -0.1607 C   0  0  0  0  0  0  0  0  0  0  0  0
   -0.2877   -2.2530    2.1025 C   0  0  0  0  0  0  0  0  0  0  0  0
   -2.0666    1.2713    0.4464 C   0  0  0  0  0  0  0  0  0  0  0  0
   -2.8176    0.2524   -0.1615 C   0  0  0  0  0  0  0  0  0  0  0  0
    6.4531   -0.1935   -1.4017 C   0  0  0  0  0  0  0  0  0  0  0  0
   -2.6862    2.5055    0.7005 C   0  0  0  0  0  0  0  0  0  0  0  0
   -4.1529    0.4621   -0.5062 C   0  0  0  0  0  0  0  0  0  0  0  0
   -4.0213    2.7153    0.3557 C   0  0  0  0  0  0  0  0  0  0  0  0
   -4.7546    1.6935   -0.2476 C   0  0  0  0  0  0  0  0  0  0  0  0
    7.2330   -0.3546   -2.6351 C   0  0  0  0  0  0  0  0  0  0  0  0
   -4.9144   -0.6056   -1.1350 C   0  0  0  0  0  0  0  0  0  0  0  0
   -5.3462   -4.0496   -0.5573 C   0  0  0  0  0  0  0  0  0  0  0  0
    1.2231    2.0177   -0.2004 H   0  0  0  0  0  0  0  0  0  0  0  0
    3.5885   -2.6820    1.1885 H   0  0  0  0  0  0  0  0  0  0  0  0
    3.5591    1.3966   -2.0177 H   0  0  0  0  0  0  0  0  0  0  0  0
    2.3049    2.6208   -2.1983 H   0  0  0  0  0  0  0  0  0  0  0  0
    1.8853    0.9050   -2.3277 H   0  0  0  0  0  0  0  0  0  0  0  0
    4.2047    2.3916    0.2603 H   0  0  0  0  0  0  0  0  0  0  0  0
    2.9792    2.5694    1.5291 H   0  0  0  0  0  0  0  0  0  0  0  0
    2.9463    3.6134    0.0993 H   0  0  0  0  0  0  0  0  0  0  0  0
   -0.2119    1.9135    0.9511 H   0  0  0  0  0  0  0  0  0  0  0  0
   -0.9561   -2.9724    2.6036 H   0  0  0  0  0  0  0  0  0  0  0  0
   -2.3328   -0.6885   -0.4099 H   0  0  0  0  0  0  0  0  0  0  0  0
   -4.4898    3.6740    0.5570 H   0  0  0  0  0  0  0  0  0  0  0  0
    7.3004   -1.4107   -2.9127 H   0  0  0  0  0  0  0  0  0  0  0  0
    6.7656    0.1915   -3.4599 H   0  0  0  0  0  0  0  0  0  0  0  0
    8.2492    0.0292   -2.5046 H   0  0  0  0  0  0  0  0  0  0  0  0
   -3.8640   -2.1877   -0.1274 H   0  0  0  0  0  0  0  0  0  0  0  0
   -4.3392   -4.4511   -0.4052 H   0  0  0  0  0  0  0  0  0  0  0  0
   -5.9628   -4.8247   -1.0206 H   0  0  0  0  0  0  0  0  0  0  0  0
   -5.7947   -3.7756    0.4031 H   0  0  0  0  0  0  0  0  0  0  0  0
  1 26  1  0  0  0  0
  2 29  1  0  0  0  0
  3 21  1  0  0  0  0
  3 25  1  0  0  0  0
  4 31  2  0  0  0  0
  5 12  1  0  0  0  0
  5 32  1  0  0  0  0
  6  8  1  0  0  0  0
  6 15  1  0  0  0  0
  6 17  1  0  0  0  0
  7 20  1  0  0  0  0
  7 23  1  0  0  0  0
  7 41  1  0  0  0  0
  8 22  2  0  0  0  0
  9 20  2  0  0  0  0
  9 22  1  0  0  0  0
 10 11  1  0  0  0  0
 10 21  2  0  0  0  0
 11 25  2  0  0  0  0
 12 31  1  0  0  0  0
 12 48  1  0  0  0  0
 13 14  1  0  0  0  0
 13 15  2  0  0  0  0
 13 16  1  0  0  0  0
 14 18  1  0  0  0  0
 14 19  1  0  0  0  0
 14 33  1  0  0  0  0
 15 20  1  0  0  0  0
 16 17  2  0  0  0  0
 16 21  1  0  0  0  0
 17 34  1  0  0  0  0
 18 35  1  0  0  0  0
 18 36  1  0  0  0  0
 18 37  1  0  0  0  0
 19 38  1  0  0  0  0
 19 39  1  0  0  0  0
 19 40  1  0  0  0  0
 22 42  1  0  0  0  0
 23 24  1  0  0  0  0
 23 26  2  0  0  0  0
 24 27  2  0  0  0  0
 24 43  1  0  0  0  0
 25 30  1  0  0  0  0
 26 28  1  0  0  0  0
 27 29  1  0  0  0  0
 27 31  1  0  0  0  0
 28 29  2  0  0  0  0
 28 44  1  0  0  0  0
 30 45  1  0  0  0  0
 30 46  1  0  0  0  0
 30 47  1  0  0  0  0
 32 49  1  0  0  0  0
 32 50  1  0  0  0  0
 32 51  1  0  0  0  0
M  END
> <PUBCHEM_COMPOUND_CID>
10478569

> <PUBCHEM_CONFORMER_RMSD>
1

> <PUBCHEM_CONFORMER_DIVERSEORDER>
2
70
40
64
8
57
42
80
1
62
54
43
49
21
20
44
63
74
72
71
11
27
51
35
14
3
56
10
66
32
34
26
6
31
55
78
37
52
12
50
58
28
73
5
59
13
79
41
29
9
23
69
46
19
83
36
38
76
7
22
68
53
39
61
45
48
15
16
18
4
77
33
60
30
17
67
81
82
24
75
25
65
47

> <PUBCHEM_MMFF94_PARTIAL_CHARGES>
35
1 -0.19
10 -0.34
11 -0.34
12 -0.39
13 -0.18
14 0.18
15 -0.24
17 -0.3
2 -0.19
20 0.58
21 0.48
22 0.6
23 0.1
24 -0.15
25 0.3
26 0.19
27 0.09
28 -0.15
29 0.19
3 -0.28
30 0.18
31 0.54
32 0.28
34 0.15
4 -0.57
41 0.4
42 0.06
43 0.15
44 0.15
48 0.37
5 -0.32
6 0.51
7 -0.55
8 -0.65
9 -0.66

> <PUBCHEM_EFFECTIVE_ROTOR_COUNT>
7

> <PUBCHEM_PHARMACOPHORE_FEATURES>
10
1 12 donor
1 4 acceptor
1 7 donor
3 14 18 19 hydrophobe
3 7 9 20 cation
3 8 9 22 cation
5 3 10 11 21 25 rings
5 6 13 15 16 17 rings
6 23 24 26 27 28 29 rings
6 6 8 9 15 20 22 rings

> <PUBCHEM_HEAVY_ATOM_COUNT>
32

> <PUBCHEM_ATOM_DEF_STEREO_COUNT>
0

> <PUBCHEM_ATOM_UDEF_STEREO_COUNT>
0

> <PUBCHEM_BOND_DEF_STEREO_COUNT>
0

> <PUBCHEM_BOND_UDEF_STEREO_COUNT>
0

> <PUBCHEM_ISOTOPIC_ATOM_COUNT>
0

> <PUBCHEM_COMPONENT_COUNT>
1

> <PUBCHEM_CACTVS_TAUTO_COUNT>
6

> <PUBCHEM_CONFORMER_ID>
009FE3E900000002

> <PUBCHEM_MMFF94_ENERGY>
83.5357

> <PUBCHEM_FEATURE_SELFOVERLAP>
50.981

> <PUBCHEM_SHAPE_FINGERPRINT>
10554248 39 17240482486430025106
11315621 246 18342174466726395967
13583140 156 15430045365389524193
13631057 29 18337382834003133107
13690498 29 18337098082335712767
13782708 43 16630802214442409366
14767858 380 18261109664643351305
14931854 50 18335698304336416413
15183329 4 18129666292617663534
15461852 350 18342177787469585110
17909252 39 18200871893597835131
18681886 176 18059847372799524752
20775438 99 17407095026054524991
22393880 68 18411129243087730505
23559900 14 18130213913585476873
23569914 2 13265202812757892622
23569917 315 18041564642162036282
24771293 8 18408321108383325236
2838139 119 16660359281756828478
34797466 226 17346309385223066976
350125 39 17896344530455693192
465052 167 13110954311262080092
474 4 17895198753319144857
484989 97 17970075645742504979
504843 32 16732997447841218978
6009941 240 15625955192412900235
6058803 2 17830723267297015187
6608658 132 18261956249794925172

> <PUBCHEM_SHAPE_MULTIPOLES>
591.52
16.67
3.54
1.87
8.33
1
0.43
2.53
12.2
-6.22
-0.68
1.12
0.83
-1.94

> <PUBCHEM_SHAPE_SELFOVERLAP>
1292.326

> <PUBCHEM_SHAPE_VOLUME>
324.5

> <PUBCHEM_COORDINATE_TYPE>
2
5
10

$$$$
