24905285
  -OEChem-10052115153D

 29 31  0     0  0  0  0  0  0999 V2000
    3.7043    0.1866    2.0171 O   0  0  0  0  0  0  0  0  0  0  0  0
   -1.0141   -2.0343   -0.0110 N   0  0  0  0  0  0  0  0  0  0  0  0
   -2.3574   -2.1496    0.0819 N   0  0  0  0  0  0  0  0  0  0  0  0
   -4.0584   -0.4128    0.1501 N   0  0  0  0  0  0  0  0  0  0  0  0
   -3.0450    1.8749    0.0223 N   0  0  0  0  0  0  0  0  0  0  0  0
   -0.6762    2.2800   -0.1475 N   0  0  0  0  0  0  0  0  0  0  0  0
   -0.5554   -0.7455   -0.0755 C   0  0  0  0  0  0  0  0  0  0  0  0
    0.8518   -0.4460   -0.1775 C   0  0  0  0  0  0  0  0  0  0  0  0
   -1.6836    0.0210   -0.0203 C   0  0  0  0  0  0  0  0  0  0  0  0
   -2.7806   -0.8807    0.0767 C   0  0  0  0  0  0  0  0  0  0  0  0
    1.6132   -0.2701    0.9779 C   0  0  0  0  0  0  0  0  0  0  0  0
    1.4514   -0.3330   -1.4318 C   0  0  0  0  0  0  0  0  0  0  0  0
    3.5739    0.1317   -0.3752 C   0  0  0  0  0  0  0  0  0  0  0  0
   -1.7678    1.4040   -0.0509 C   0  0  0  0  0  0  0  0  0  0  0  0
    2.9743    0.0187    0.8791 C   0  0  0  0  0  0  0  0  0  0  0  0
    2.8124   -0.0440   -1.5307 C   0  0  0  0  0  0  0  0  0  0  0  0
    5.0296    0.4396   -0.4998 C   0  0  0  0  0  0  0  0  0  0  0  0
   -4.0723    0.9593    0.1150 C   0  0  0  0  0  0  0  0  0  0  0  0
    1.1470   -0.3575    1.9572 H   0  0  0  0  0  0  0  0  0  0  0  0
   -0.4672   -2.8862   -0.0251 H   0  0  0  0  0  0  0  0  0  0  0  0
    0.8715   -0.4667   -2.3420 H   0  0  0  0  0  0  0  0  0  0  0  0
    3.2642    0.0408   -2.5155 H   0  0  0  0  0  0  0  0  0  0  0  0
    5.2556    1.4040   -0.0330 H   0  0  0  0  0  0  0  0  0  0  0  0
    5.6262   -0.3418   -0.0175 H   0  0  0  0  0  0  0  0  0  0  0  0
    5.3474    0.4981   -1.5464 H   0  0  0  0  0  0  0  0  0  0  0  0
   -5.0632    1.4023    0.1697 H   0  0  0  0  0  0  0  0  0  0  0  0
    0.2756    1.9546   -0.2037 H   0  0  0  0  0  0  0  0  0  0  0  0
   -0.8589    3.2748   -0.1620 H   0  0  0  0  0  0  0  0  0  0  0  0
    3.1225    0.0718    2.7880 H   0  0  0  0  0  0  0  0  0  0  0  0
  1 15  1  0  0  0  0
  1 29  1  0  0  0  0
  2  3  1  0  0  0  0
  2  7  1  0  0  0  0
  2 20  1  0  0  0  0
  3 10  2  0  0  0  0
  4 10  1  0  0  0  0
  4 18  2  0  0  0  0
  5 14  2  0  0  0  0
  5 18  1  0  0  0  0
  6 14  1  0  0  0  0
  6 27  1  0  0  0  0
  6 28  1  0  0  0  0
  7  8  1  0  0  0  0
  7  9  2  0  0  0  0
  8 11  2  0  0  0  0
  8 12  1  0  0  0  0
  9 10  1  0  0  0  0
  9 14  1  0  0  0  0
 11 15  1  0  0  0  0
 11 19  1  0  0  0  0
 12 16  2  0  0  0  0
 12 21  1  0  0  0  0
 13 15  2  0  0  0  0
 13 16  1  0  0  0  0
 13 17  1  0  0  0  0
 16 22  1  0  0  0  0
 17 23  1  0  0  0  0
 17 24  1  0  0  0  0
 17 25  1  0  0  0  0
 18 26  1  0  0  0  0
M  END
> <PUBCHEM_COMPOUND_CID>
24905285

> <PUBCHEM_CONFORMER_RMSD>
0.6

> <PUBCHEM_CONFORMER_DIVERSEORDER>
1
2

> <PUBCHEM_MMFF94_PARTIAL_CHARGES>
25
1 -0.53
10 0.54
11 -0.15
12 -0.15
13 -0.14
14 0.41
15 0.08
16 -0.15
17 0.14
18 0.47
19 0.15
2 0.3
20 0.27
21 0.15
22 0.15
26 0.15
27 0.4
28 0.4
29 0.45
3 -0.71
4 -0.57
5 -0.62
6 -0.9
7 -0.2
8 0.05

> <PUBCHEM_EFFECTIVE_ROTOR_COUNT>
1

> <PUBCHEM_PHARMACOPHORE_FEATURES>
9
1 1 donor
1 2 donor
1 6 donor
3 3 4 10 cation
3 4 5 18 cation
3 5 6 14 cation
5 2 3 7 9 10 rings
6 4 5 9 10 14 18 rings
6 8 11 12 13 15 16 rings

> <PUBCHEM_HEAVY_ATOM_COUNT>
18

> <PUBCHEM_ATOM_DEF_STEREO_COUNT>
0

> <PUBCHEM_ATOM_UDEF_STEREO_COUNT>
0

> <PUBCHEM_BOND_DEF_STEREO_COUNT>
0

> <PUBCHEM_BOND_UDEF_STEREO_COUNT>
0

> <PUBCHEM_ISOTOPIC_ATOM_COUNT>
0

> <PUBCHEM_COMPONENT_COUNT>
1

> <PUBCHEM_CACTVS_TAUTO_COUNT>
72

> <PUBCHEM_CONFORMER_ID>
017C064500000001

> <PUBCHEM_MMFF94_ENERGY>
54.2387

> <PUBCHEM_FEATURE_SELFOVERLAP>
46.055

> <PUBCHEM_SHAPE_FINGERPRINT>
10498660 4 18338238158948475693
10646746 165 18413670206001279664
11132069 177 18412825772528770365
11471102 20 16128659656774051362
12236239 1 17675926508103376270
12500047 106 18343582953996455262
13140716 1 18194129740394783971
13538477 17 18040998470343896338
13581323 91 18334009488709166578
13764800 53 18339089206918105497
14739800 52 18264478667857815992
15219456 202 17704352169304954526
15375358 24 17989483026261923536
15669948 3 18335982051234898759
15775835 57 18113622257135787332
16945 1 18410015450999585495
17846911 113 18411415081888260025
18175812 5 17703791461319148174
18186145 218 17703515402211905643
19049666 15 17845101670705031982
200 152 15719390659400869979
20279233 1 17703795825011449030
20510252 161 18270687467610212617
20645477 56 18412831282528569549
20645477 70 15141223439339688594
20715895 44 17317870370857753357
21486144 27 16845285081570289634
21639500 275 15482660321425852562
23048698 100 17095242518789582548
23175994 123 16988293031493581896
23402539 116 18413385444984262943
23419403 2 17544713131307409837
23557571 272 18201446907929436454
23559900 14 18271251526023756270
2748010 2 18121792629842988743
350125 39 17833277423954730797
474 4 16879644897548771732
7097593 13 17824805768499023914
7364860 26 18054228726273544503
77492 1 17603586343771915382
90316 7 18041551455994725381

> <PUBCHEM_SHAPE_MULTIPOLES>
339.66
8.18
1.69
1.16
2.83
0.11
0.15
1.49
0.4
-1.93
-0.03
1.54
-0.01
0.07

> <PUBCHEM_SHAPE_SELFOVERLAP>
758.054

> <PUBCHEM_SHAPE_VOLUME>
179.4

> <PUBCHEM_COORDINATE_TYPE>
2
5
10

$$$$
