9890746
  -OEChem-10052115143D

 58 62  0     0  0  0  0  0  0999 V2000
   -2.1283   -2.7357    2.6969 S   0  0  0  0  0  0  0  0  0  0  0  0
    4.4906    2.8194    1.1720 O   0  0  0  0  0  0  0  0  0  0  0  0
    6.9928    2.4351    0.0264 O   0  0  0  0  0  0  0  0  0  0  0  0
   -7.3326    2.5741    0.2343 O   0  0  0  0  0  0  0  0  0  0  0  0
   -8.0609    1.6446   -1.8665 O   0  0  0  0  0  0  0  0  0  0  0  0
    1.7898   -1.3113   -0.0580 N   0  0  0  0  0  0  0  0  0  0  0  0
   -0.7697   -1.1430    1.0844 N   0  0  0  0  0  0  0  0  0  0  0  0
   -3.0942   -1.0055    0.9270 N   0  0  0  0  0  0  0  0  0  0  0  0
    3.3492   -2.5774   -1.3301 N   0  0  0  0  0  0  0  0  0  0  0  0
    5.5826   -1.7629   -1.7251 N   0  0  0  0  0  0  0  0  0  0  0  0
    0.6131   -1.3062   -0.9393 C   0  0  0  0  0  0  0  0  0  0  0  0
    1.5742   -1.8361    1.3010 C   0  0  0  0  0  0  0  0  0  0  0  0
   -0.5617   -0.6114   -0.2531 C   0  0  0  0  0  0  0  0  0  0  0  0
    0.3915   -1.1312    1.9606 C   0  0  0  0  0  0  0  0  0  0  0  0
    3.0679   -1.4480   -0.6113 C   0  0  0  0  0  0  0  0  0  0  0  0
   -1.9847   -1.5680    1.5075 C   0  0  0  0  0  0  0  0  0  0  0  0
    4.0503   -0.4444   -0.4343 C   0  0  0  0  0  0  0  0  0  0  0  0
    5.3104   -0.6514   -1.0191 C   0  0  0  0  0  0  0  0  0  0  0  0
   -4.4733   -1.3237    1.2384 C   0  0  0  0  0  0  0  0  0  0  0  0
    3.7772    0.7218    0.3016 C   0  0  0  0  0  0  0  0  0  0  0  0
   -5.4351   -0.5544    0.3799 C   0  0  0  0  0  0  0  0  0  0  0  0
    6.2775    0.3359   -0.8454 C   0  0  0  0  0  0  0  0  0  0  0  0
    4.7622    1.6918    0.4593 C   0  0  0  0  0  0  0  0  0  0  0  0
    4.5876   -2.6656   -1.8419 C   0  0  0  0  0  0  0  0  0  0  0  0
    6.0136    1.4983   -0.1150 C   0  0  0  0  0  0  0  0  0  0  0  0
   -5.8937    0.6879    0.8099 C   0  0  0  0  0  0  0  0  0  0  0  0
   -5.8543   -1.1014   -0.8406 C   0  0  0  0  0  0  0  0  0  0  0  0
   -6.7763    1.3569   -0.0130 C   0  0  0  0  0  0  0  0  0  0  0  0
   -7.1922    0.8262   -1.2126 C   0  0  0  0  0  0  0  0  0  0  0  0
   -6.7486   -0.4030   -1.6553 C   0  0  0  0  0  0  0  0  0  0  0  0
   -8.1449    2.7502   -0.9445 C   0  0  0  0  0  0  0  0  0  0  0  0
    4.7590    2.7824    2.5727 C   0  0  0  0  0  0  0  0  0  0  0  0
    7.0608    3.4563   -0.9667 C   0  0  0  0  0  0  0  0  0  0  0  0
    0.3467   -2.3412   -1.1872 H   0  0  0  0  0  0  0  0  0  0  0  0
    0.8378   -0.7847   -1.8774 H   0  0  0  0  0  0  0  0  0  0  0  0
    2.4657   -1.6886    1.9226 H   0  0  0  0  0  0  0  0  0  0  0  0
    1.3866   -2.9154    1.2417 H   0  0  0  0  0  0  0  0  0  0  0  0
   -1.4431   -0.7343   -0.8892 H   0  0  0  0  0  0  0  0  0  0  0  0
   -0.3641    0.4622   -0.1496 H   0  0  0  0  0  0  0  0  0  0  0  0
    0.2150   -1.5417    2.9567 H   0  0  0  0  0  0  0  0  0  0  0  0
    0.6438   -0.0735    2.1148 H   0  0  0  0  0  0  0  0  0  0  0  0
   -2.9492   -0.2133    0.3104 H   0  0  0  0  0  0  0  0  0  0  0  0
   -4.6319   -2.4008    1.1049 H   0  0  0  0  0  0  0  0  0  0  0  0
   -4.6557   -1.1017    2.2970 H   0  0  0  0  0  0  0  0  0  0  0  0
    2.8036    0.8945    0.7537 H   0  0  0  0  0  0  0  0  0  0  0  0
    7.2636    0.2012   -1.2874 H   0  0  0  0  0  0  0  0  0  0  0  0
    4.8130   -3.5587   -2.4117 H   0  0  0  0  0  0  0  0  0  0  0  0
   -5.5736    1.1196    1.7518 H   0  0  0  0  0  0  0  0  0  0  0  0
   -5.4873   -2.0715   -1.1666 H   0  0  0  0  0  0  0  0  0  0  0  0
   -7.0785   -0.8174   -2.6011 H   0  0  0  0  0  0  0  0  0  0  0  0
   -7.8223    3.6622   -1.4597 H   0  0  0  0  0  0  0  0  0  0  0  0
   -9.1896    2.8712   -0.6357 H   0  0  0  0  0  0  0  0  0  0  0  0
    5.8216    2.5949    2.7565 H   0  0  0  0  0  0  0  0  0  0  0  0
    4.4968    3.7552    2.9974 H   0  0  0  0  0  0  0  0  0  0  0  0
    4.1514    2.0124    3.0588 H   0  0  0  0  0  0  0  0  0  0  0  0
    6.1323    4.0356   -0.9883 H   0  0  0  0  0  0  0  0  0  0  0  0
    7.8856    4.1273   -0.7121 H   0  0  0  0  0  0  0  0  0  0  0  0
    7.2551    3.0207   -1.9519 H   0  0  0  0  0  0  0  0  0  0  0  0
  1 16  2  0  0  0  0
  2 23  1  0  0  0  0
  2 32  1  0  0  0  0
  3 25  1  0  0  0  0
  3 33  1  0  0  0  0
  4 28  1  0  0  0  0
  4 31  1  0  0  0  0
  5 29  1  0  0  0  0
  5 31  1  0  0  0  0
  6 11  1  0  0  0  0
  6 12  1  0  0  0  0
  6 15  1  0  0  0  0
  7 13  1  0  0  0  0
  7 14  1  0  0  0  0
  7 16  1  0  0  0  0
  8 16  1  0  0  0  0
  8 19  1  0  0  0  0
  8 42  1  0  0  0  0
  9 15  2  0  0  0  0
  9 24  1  0  0  0  0
 10 18  1  0  0  0  0
 10 24  2  0  0  0  0
 11 13  1  0  0  0  0
 11 34  1  0  0  0  0
 11 35  1  0  0  0  0
 12 14  1  0  0  0  0
 12 36  1  0  0  0  0
 12 37  1  0  0  0  0
 13 38  1  0  0  0  0
 13 39  1  0  0  0  0
 14 40  1  0  0  0  0
 14 41  1  0  0  0  0
 15 17  1  0  0  0  0
 17 18  1  0  0  0  0
 17 20  2  0  0  0  0
 18 22  2  0  0  0  0
 19 21  1  0  0  0  0
 19 43  1  0  0  0  0
 19 44  1  0  0  0  0
 20 23  1  0  0  0  0
 20 45  1  0  0  0  0
 21 26  2  0  0  0  0
 21 27  1  0  0  0  0
 22 25  1  0  0  0  0
 22 46  1  0  0  0  0
 23 25  2  0  0  0  0
 24 47  1  0  0  0  0
 26 28  1  0  0  0  0
 26 48  1  0  0  0  0
 27 30  2  0  0  0  0
 27 49  1  0  0  0  0
 28 29  2  0  0  0  0
 29 30  1  0  0  0  0
 30 50  1  0  0  0  0
 31 51  1  0  0  0  0
 31 52  1  0  0  0  0
 32 53  1  0  0  0  0
 32 54  1  0  0  0  0
 32 55  1  0  0  0  0
 33 56  1  0  0  0  0
 33 57  1  0  0  0  0
 33 58  1  0  0  0  0
M  END
> <PUBCHEM_COMPOUND_CID>
9890746

> <PUBCHEM_CONFORMER_RMSD>
1

> <PUBCHEM_CONFORMER_DIVERSEORDER>
5
156
23
38
117
112
188
144
212
55
43
67
31
160
6
94
169
158
99
100
71
179
133
134
197
104
231
157
114
220
167
97
216
22
142
40
108
191
186
45
107
196
35
177
12
194
149
209
230
105
119
42
141
52
138
93
178
163
183
59
110
126
135
172
121
184
57
213
171
37
58
174
13
185
224
11
193
36
154
102
19
146
68
115
84
192
62
65
15
130
18
168
122
159
87
30
199
103
106
20
198
64
101
78
10
74
32
201
86
210
48
132
189
205
29
56
95
98
120
69
182
143
70
91
217
2
28
109
219
180
123
79
229
1
82
63
136
26
89
124
80
77
165
111
155
175
128
140
116
161
206
215
204
73
187
176
200
75
39
118
49
90
225
50
129
46
9
17
21
164
181
221
66
127
85
60
150
228
81
41
218
195
47
76
4
54
83
208
152
147
139
88
148
16
53
203
125
34
166
25
113
51
27
173
222
3
211
202
14
162
61
131
145
190
8
153
214
33
24
151
207
44
92
137
227
226
96
72
7
223
170

> <PUBCHEM_MMFF94_PARTIAL_CHARGES>
39
1 -0.38
10 -0.62
11 0.37
12 0.37
13 0.3
14 0.3
15 0.41
16 0.5
18 0.31
19 0.44
2 -0.36
20 -0.15
21 -0.14
22 -0.15
23 0.08
24 0.47
25 0.08
26 -0.15
27 -0.15
28 0.08
29 0.08
3 -0.36
30 -0.15
31 0.56
32 0.28
33 0.28
4 -0.36
42 0.37
45 0.15
46 0.15
47 0.15
48 0.15
49 0.15
5 -0.36
50 0.15
6 -0.84
7 -0.66
8 -0.73
9 -0.62

> <PUBCHEM_EFFECTIVE_ROTOR_COUNT>
8.8

> <PUBCHEM_PHARMACOPHORE_FEATURES>
13
1 1 acceptor
1 2 acceptor
1 3 acceptor
1 4 acceptor
1 5 acceptor
1 8 donor
3 6 9 15 cation
3 9 10 24 cation
5 4 5 28 29 31 rings
6 17 18 20 22 23 25 rings
6 21 26 27 28 29 30 rings
6 6 7 11 12 13 14 rings
6 9 10 15 17 18 24 rings

> <PUBCHEM_HEAVY_ATOM_COUNT>
33

> <PUBCHEM_ATOM_DEF_STEREO_COUNT>
0

> <PUBCHEM_ATOM_UDEF_STEREO_COUNT>
0

> <PUBCHEM_BOND_DEF_STEREO_COUNT>
0

> <PUBCHEM_BOND_UDEF_STEREO_COUNT>
0

> <PUBCHEM_ISOTOPIC_ATOM_COUNT>
0

> <PUBCHEM_COMPONENT_COUNT>
1

> <PUBCHEM_CACTVS_TAUTO_COUNT>
2

> <PUBCHEM_CONFORMER_ID>
0096EBBA00000005

> <PUBCHEM_MMFF94_ENERGY>
139.37

> <PUBCHEM_FEATURE_SELFOVERLAP>
66.292

> <PUBCHEM_SHAPE_FINGERPRINT>
10 15 14490484054383919183
10835480 77 18412548716778034123
10883706 89 13190878867762073235
11386260 185 17917999373874849620
11409948 41 17059509431187217750
11475781 23 18260269650576417830
11991303 11 16630517475633212047
12342043 65 9799699172989982282
12522641 126 15697455316896666116
12539747 72 17968096468914890035
12717326 69 11458722585748885353
13782708 43 10591773051513887766
13878862 14 18201997738155165208
14344974 204 10231458732550018909
14556957 393 16486986080966283985
15082195 135 17917149407560920522
15183329 4 17917992746465647763
15276724 80 18267303132560942581
15350500 55 18263365940451730276
16994733 274 18337385036661589728
18335252 114 17989491823304485668
19304671 126 18338237055695411127
20028762 73 12751229286350827039
21033648 29 17967257519751347067
21424621 283 18040998419500666851
21781055 127 16588031187175057750
21814621 53 18261123958337659347
22033318 11 14129612186994227655
23081809 10 16630537197844141395
23516275 100 18263356039703950260
23522609 53 16055501490099017491
24771293 8 17895475924553833692
249057 25 16988013699758832306
2748736 6 17894907451831456129
3504750 166 9655576306419527251
3663271 9 12252192866005330799
3918712 181 18113613491108289997
4169191 19 18342187694983522513
44880568 143 18412268316144398189
504579 68 17132120155806842399
5104073 3 12179841663840254967
59682541 52 17846776295522835467
6376802 90 18263370342071146219
6712543 237 10737291226034994625
9555976 147 15937260060686122314
999808 66 9799696987167788985

> <PUBCHEM_SHAPE_MULTIPOLES>
634.59
25.8
3.66
2.14
28.77
1.87
-0.77
23.67
10.45
-2.78
-0.56
-0.33
-0.75
4.7

> <PUBCHEM_SHAPE_SELFOVERLAP>
1374.458

> <PUBCHEM_SHAPE_VOLUME>
352.7

> <PUBCHEM_COORDINATE_TYPE>
2
5
10

$$$$
