10363069
  -OEChem-10062121593D

 42 45  0     0  0  0  0  0  0999 V2000
   -0.9245   -1.8367   -2.5620 Cl  0  0  0  0  0  0  0  0  0  0  0  0
   -2.3971    3.6376    0.1551 O   0  0  0  0  0  0  0  0  0  0  0  0
   -5.3454    0.7193   -0.1098 O   0  0  0  0  0  0  0  0  0  0  0  0
   -0.4178   -5.8237    0.5331 O   0  0  0  0  0  0  0  0  0  0  0  0
   -1.3447   -0.3271    0.0628 N   0  0  0  0  0  0  0  0  0  0  0  0
   -4.8513    2.9737   -0.0358 N   0  0  0  0  0  0  0  0  0  0  0  0
    6.1398    0.2487   -0.0919 N   0  0  0  0  0  0  0  0  0  0  0  0
   -0.3108    0.6713    0.0794 C   0  0  0  0  0  0  0  0  0  0  0  0
   -0.6493    2.0421    0.1107 C   0  0  0  0  0  0  0  0  0  0  0  0
    1.0569    0.3443    0.0233 C   0  0  0  0  0  0  0  0  0  0  0  0
    2.0419    1.3364    0.0407 C   0  0  0  0  0  0  0  0  0  0  0  0
   -1.1042   -1.7369    0.1589 C   0  0  0  0  0  0  0  0  0  0  0  0
   -2.6647    0.1138   -0.0040 C   0  0  0  0  0  0  0  0  0  0  0  0
   -2.0734    2.4578    0.0987 C   0  0  0  0  0  0  0  0  0  0  0  0
   -3.0877    1.3832    0.0063 C   0  0  0  0  0  0  0  0  0  0  0  0
    0.3392    3.0359    0.1302 C   0  0  0  0  0  0  0  0  0  0  0  0
    1.6839    2.6787    0.1008 C   0  0  0  0  0  0  0  0  0  0  0  0
    3.4401    0.9650   -0.0042 C   0  0  0  0  0  0  0  0  0  0  0  0
   -0.8991   -2.5272   -0.9787 C   0  0  0  0  0  0  0  0  0  0  0  0
   -1.0759   -2.3370    1.4233 C   0  0  0  0  0  0  0  0  0  0  0  0
   -4.5283    1.6366   -0.0520 C   0  0  0  0  0  0  0  0  0  0  0  0
   -0.6689   -3.8972   -0.8532 C   0  0  0  0  0  0  0  0  0  0  0  0
   -0.8458   -3.7070    1.5488 C   0  0  0  0  0  0  0  0  0  0  0  0
    4.3948    1.7686    0.6082 C   0  0  0  0  0  0  0  0  0  0  0  0
    3.8323   -0.1960   -0.6603 C   0  0  0  0  0  0  0  0  0  0  0  0
   -0.6423   -4.4870    0.4105 C   0  0  0  0  0  0  0  0  0  0  0  0
    5.7198    1.3696    0.5365 C   0  0  0  0  0  0  0  0  0  0  0  0
    5.1825   -0.5070   -0.6753 C   0  0  0  0  0  0  0  0  0  0  0  0
    1.3362   -0.7060    0.0111 H   0  0  0  0  0  0  0  0  0  0  0  0
   -3.3684   -0.7131   -0.0539 H   0  0  0  0  0  0  0  0  0  0  0  0
    0.0789    4.0906    0.1534 H   0  0  0  0  0  0  0  0  0  0  0  0
    2.4148    3.4823    0.0862 H   0  0  0  0  0  0  0  0  0  0  0  0
   -1.2321   -1.7415    2.3197 H   0  0  0  0  0  0  0  0  0  0  0  0
   -0.5098   -4.5084   -1.7387 H   0  0  0  0  0  0  0  0  0  0  0  0
   -0.8260   -4.1607    2.5359 H   0  0  0  0  0  0  0  0  0  0  0  0
    4.1550    2.6705    1.1606 H   0  0  0  0  0  0  0  0  0  0  0  0
    3.1453   -0.8510   -1.1848 H   0  0  0  0  0  0  0  0  0  0  0  0
    6.5032    1.9571    1.0039 H   0  0  0  0  0  0  0  0  0  0  0  0
    5.5421   -1.3976   -1.1802 H   0  0  0  0  0  0  0  0  0  0  0  0
   -5.8248    3.2591   -0.0718 H   0  0  0  0  0  0  0  0  0  0  0  0
   -4.1801    3.7312    0.0068 H   0  0  0  0  0  0  0  0  0  0  0  0
   -0.2982   -6.2064   -0.3530 H   0  0  0  0  0  0  0  0  0  0  0  0
  1 19  1  0  0  0  0
  2 14  2  0  0  0  0
  3 21  2  0  0  0  0
  4 26  1  0  0  0  0
  4 42  1  0  0  0  0
  5  8  1  0  0  0  0
  5 12  1  0  0  0  0
  5 13  1  0  0  0  0
  6 21  1  0  0  0  0
  6 40  1  0  0  0  0
  6 41  1  0  0  0  0
  7 27  2  0  0  0  0
  7 28  1  0  0  0  0
  8  9  2  0  0  0  0
  8 10  1  0  0  0  0
  9 14  1  0  0  0  0
  9 16  1  0  0  0  0
 10 11  2  0  0  0  0
 10 29  1  0  0  0  0
 11 17  1  0  0  0  0
 11 18  1  0  0  0  0
 12 19  2  0  0  0  0
 12 20  1  0  0  0  0
 13 15  2  0  0  0  0
 13 30  1  0  0  0  0
 14 15  1  0  0  0  0
 15 21  1  0  0  0  0
 16 17  2  0  0  0  0
 16 31  1  0  0  0  0
 17 32  1  0  0  0  0
 18 24  2  0  0  0  0
 18 25  1  0  0  0  0
 19 22  1  0  0  0  0
 20 23  2  0  0  0  0
 20 33  1  0  0  0  0
 22 26  2  0  0  0  0
 22 34  1  0  0  0  0
 23 26  1  0  0  0  0
 23 35  1  0  0  0  0
 24 27  1  0  0  0  0
 24 36  1  0  0  0  0
 25 28  2  0  0  0  0
 25 37  1  0  0  0  0
 27 38  1  0  0  0  0
 28 39  1  0  0  0  0
M  END
> <PUBCHEM_COMPOUND_CID>
10363069

> <PUBCHEM_CONFORMER_RMSD>
0.8

> <PUBCHEM_CONFORMER_DIVERSEORDER>
1
4
2
3

> <PUBCHEM_MMFF94_PARTIAL_CHARGES>
40
1 -0.18
10 -0.15
12 0.1
13 -0.05
14 0.47
15 0.03
16 -0.15
17 -0.15
19 0.18
2 -0.57
20 -0.15
21 0.62
22 -0.15
23 -0.15
24 -0.15
25 -0.15
26 0.08
27 0.16
28 0.16
29 0.15
3 -0.57
30 0.15
31 0.15
32 0.15
33 0.15
34 0.15
35 0.15
36 0.15
37 0.15
38 0.15
39 0.15
4 -0.53
40 0.37
41 0.37
42 0.45
5 -0.3
6 -0.8
7 -0.62
8 0.1
9 0.09

> <PUBCHEM_EFFECTIVE_ROTOR_COUNT>
3

> <PUBCHEM_PHARMACOPHORE_FEATURES>
10
1 2 acceptor
1 3 acceptor
1 4 donor
1 5 cation
1 6 donor
1 7 acceptor
6 12 19 20 22 23 26 rings
6 5 8 9 13 14 15 rings
6 7 18 24 25 27 28 rings
6 8 9 10 11 16 17 rings

> <PUBCHEM_HEAVY_ATOM_COUNT>
28

> <PUBCHEM_ATOM_DEF_STEREO_COUNT>
0

> <PUBCHEM_ATOM_UDEF_STEREO_COUNT>
0

> <PUBCHEM_BOND_DEF_STEREO_COUNT>
0

> <PUBCHEM_BOND_UDEF_STEREO_COUNT>
0

> <PUBCHEM_ISOTOPIC_ATOM_COUNT>
0

> <PUBCHEM_COMPONENT_COUNT>
1

> <PUBCHEM_CACTVS_TAUTO_COUNT>
6

> <PUBCHEM_CONFORMER_ID>
009E20BD00000001

> <PUBCHEM_MMFF94_ENERGY>
106.01

> <PUBCHEM_FEATURE_SELFOVERLAP>
50.77

> <PUBCHEM_SHAPE_FINGERPRINT>
10050765 1 17762057632731155281
10411042 1 17617659203802912794
107951 10 18410297990812006118
10906281 52 18129964328767403468
10940486 97 18188500202179894556
1100329 8 18337952410458277913
11014199 57 17905047311171473314
11135926 11 18409441472271703477
12107183 9 17618524502469848083
12553582 1 17474679819928249662
12788726 201 18195791089047156139
13140716 1 18051980512947124328
13540713 5 17624405386845862793
13785724 45 17473850779181556138
138480 1 17401485944736411706
14251757 5 18265351649534226020
14659021 117 18123732399950258192
14790565 3 18338802212719320808
14844126 61 18264202672873681810
14866123 147 18338514252394578475
15042514 8 18265618860702792435
15664445 248 17120584909259547263
15927050 60 18411980235134186647
15961568 22 17112966367252792962
16719943 64 18409729534873684114
17980427 23 12468643777506205637
19591789 44 18266741289959574584
20028762 73 18271247231304587719
20197701 30 18340483370361229317
20567600 347 18264497187070266239
20775438 99 17119974057662253767
20905425 154 17404865851869559455
21033648 29 18342163454209826840
21133410 171 17187787442576767650
21133410 230 17757037433651114211
21133665 82 18270124484040773806
21781051 124 17970653924502380923
21796203 349 16396943487280059025
22849339 104 18266202641559057110
23366157 5 17393334204298668289
23558518 356 17827918752263407800
23559900 14 18342735269724599120
23598288 3 18044952395835409058
23728640 28 18410011082543079122
283562 15 18270683056695260705
3178227 256 18338248119774129553
3298306 158 18268149755938894758
3383291 50 18410571829136475963
340366 18 18041284360663558692
3411729 13 18053105026080845873
38695281 34 18200593588733964365
4015057 19 17774142643460779504
4073 2 18338232778525221552
5080951 261 17970602264952476400
5265222 85 18336840714435733324
5309563 4 17185598460399891170
532947 4 18269281148935231726
5385378 56 18122351177365878113
59025328 239 16621776568050256127
59755656 215 18193558870474891085
613672 6 17475774924999110554
6138700 20 18196378009439552662
6669772 16 18340769226188946270
6700243 42 15972728785612712791
9709674 26 18269273637607130004
9981440 41 18335146341241459555

> <PUBCHEM_SHAPE_MULTIPOLES>
545.55
9.43
6.18
1.18
12.1
7.59
0.46
-6.87
0.04
-6.08
-1.15
-0.32
1.25
0.6

> <PUBCHEM_SHAPE_SELFOVERLAP>
1212.815

> <PUBCHEM_SHAPE_VOLUME>
290

> <PUBCHEM_COORDINATE_TYPE>
2
5
10

$$$$
