9825149
  -OEChem-10062121533D

 65 70  0     0  0  0  0  0  0999 V2000
   -4.2654   -0.5804   -0.2842 O   0  0  0  0  0  0  0  0  0  0  0  0
    2.2674    1.1158   -0.1277 N   0  0  0  0  0  0  0  0  0  0  0  0
    6.3325   -2.1733   -0.1618 N   0  0  0  0  0  0  0  0  0  0  0  0
    2.7164    3.1111    1.1459 N   0  0  0  0  0  0  0  0  0  0  0  0
    0.7640    4.5509    1.3528 N   0  0  0  0  0  0  0  0  0  0  0  0
   -1.3451    4.0107    0.3834 N   0  0  0  0  0  0  0  0  0  0  0  0
    4.7572   -0.7876    1.1334 C   0  0  0  0  0  0  0  0  0  0  0  0
    3.5846    0.5280   -0.0582 C   0  0  0  0  0  0  0  0  0  0  0  0
    3.5681   -0.9975    0.1730 C   0  0  0  0  0  0  0  0  0  0  0  0
    4.2441    0.6540    1.3310 C   0  0  0  0  0  0  0  0  0  0  0  0
    6.1289   -0.8662    0.4450 C   0  0  0  0  0  0  0  0  0  0  0  0
    6.2911   -3.2570    0.8196 C   0  0  0  0  0  0  0  0  0  0  0  0
    7.6409   -2.2928   -0.8046 C   0  0  0  0  0  0  0  0  0  0  0  0
    6.8968   -4.4276    0.0594 C   0  0  0  0  0  0  0  0  0  0  0  0
    7.7865   -3.7941   -1.0056 C   0  0  0  0  0  0  0  0  0  0  0  0
    1.9102    2.3034    0.4351 C   0  0  0  0  0  0  0  0  0  0  0  0
    1.2048    0.5587   -0.7764 C   0  0  0  0  0  0  0  0  0  0  0  0
    0.5700    2.5203    0.1390 C   0  0  0  0  0  0  0  0  0  0  0  0
    0.1313    1.4110   -0.6282 C   0  0  0  0  0  0  0  0  0  0  0  0
    0.0041    3.6961    0.6297 C   0  0  0  0  0  0  0  0  0  0  0  0
   -1.1550    1.1192   -1.1939 C   0  0  0  0  0  0  0  0  0  0  0  0
    2.0554    4.2100    1.5632 C   0  0  0  0  0  0  0  0  0  0  0  0
   -2.0970    0.4029   -0.4548 C   0  0  0  0  0  0  0  0  0  0  0  0
   -1.4646    1.5518   -2.4837 C   0  0  0  0  0  0  0  0  0  0  0  0
   -3.3471    0.1194   -1.0048 C   0  0  0  0  0  0  0  0  0  0  0  0
   -2.7146    1.2682   -3.0338 C   0  0  0  0  0  0  0  0  0  0  0  0
   -3.6558    0.5520   -2.2945 C   0  0  0  0  0  0  0  0  0  0  0  0
   -5.5227   -0.8362   -0.9083 C   0  0  0  0  0  0  0  0  0  0  0  0
   -6.4017   -1.5854    0.0495 C   0  0  0  0  0  0  0  0  0  0  0  0
   -6.3797   -2.9757    0.0605 C   0  0  0  0  0  0  0  0  0  0  0  0
   -7.2304   -0.8831    0.9172 C   0  0  0  0  0  0  0  0  0  0  0  0
   -7.1967   -3.6723    0.9508 C   0  0  0  0  0  0  0  0  0  0  0  0
   -8.0475   -1.5799    1.8075 C   0  0  0  0  0  0  0  0  0  0  0  0
   -8.0307   -2.9745    1.8244 C   0  0  0  0  0  0  0  0  0  0  0  0
    4.7104   -1.3871    2.0500 H   0  0  0  0  0  0  0  0  0  0  0  0
    4.2226    0.8486   -0.8909 H   0  0  0  0  0  0  0  0  0  0  0  0
    2.6827   -1.3915    0.6891 H   0  0  0  0  0  0  0  0  0  0  0  0
    3.7396   -1.6077   -0.7182 H   0  0  0  0  0  0  0  0  0  0  0  0
    5.0141    1.4253    1.4278 H   0  0  0  0  0  0  0  0  0  0  0  0
    3.5602    0.7320    2.1860 H   0  0  0  0  0  0  0  0  0  0  0  0
    6.2151   -0.1018   -0.3366 H   0  0  0  0  0  0  0  0  0  0  0  0
    6.9095   -0.6423    1.1841 H   0  0  0  0  0  0  0  0  0  0  0  0
    5.2751   -3.4979    1.1474 H   0  0  0  0  0  0  0  0  0  0  0  0
    6.9035   -3.0328    1.7026 H   0  0  0  0  0  0  0  0  0  0  0  0
    8.4479   -1.9267   -0.1570 H   0  0  0  0  0  0  0  0  0  0  0  0
    7.6847   -1.7528   -1.7556 H   0  0  0  0  0  0  0  0  0  0  0  0
    7.4655   -5.0865    0.7233 H   0  0  0  0  0  0  0  0  0  0  0  0
    6.1146   -5.0275   -0.4206 H   0  0  0  0  0  0  0  0  0  0  0  0
    7.4388   -4.0892   -2.0026 H   0  0  0  0  0  0  0  0  0  0  0  0
    8.8288   -4.1131   -0.9054 H   0  0  0  0  0  0  0  0  0  0  0  0
    1.2911   -0.3864   -1.2975 H   0  0  0  0  0  0  0  0  0  0  0  0
    2.6371    4.9158    2.1462 H   0  0  0  0  0  0  0  0  0  0  0  0
   -1.8669    0.0611    0.5523 H   0  0  0  0  0  0  0  0  0  0  0  0
   -0.7428    2.1122   -3.0735 H   0  0  0  0  0  0  0  0  0  0  0  0
   -1.9400    3.3961   -0.1524 H   0  0  0  0  0  0  0  0  0  0  0  0
   -1.7183    4.8735    0.7560 H   0  0  0  0  0  0  0  0  0  0  0  0
   -2.9539    1.6054   -4.0382 H   0  0  0  0  0  0  0  0  0  0  0  0
   -4.6038    0.3668   -2.7873 H   0  0  0  0  0  0  0  0  0  0  0  0
   -6.0260    0.1029   -1.1746 H   0  0  0  0  0  0  0  0  0  0  0  0
   -5.3913   -1.4436   -1.8137 H   0  0  0  0  0  0  0  0  0  0  0  0
   -5.7323   -3.5298   -0.6136 H   0  0  0  0  0  0  0  0  0  0  0  0
   -7.2501    0.2033    0.9150 H   0  0  0  0  0  0  0  0  0  0  0  0
   -7.1831   -4.7582    0.9645 H   0  0  0  0  0  0  0  0  0  0  0  0
   -8.6963   -1.0365    2.4882 H   0  0  0  0  0  0  0  0  0  0  0  0
   -8.6667   -3.5169    2.5178 H   0  0  0  0  0  0  0  0  0  0  0  0
  1 25  1  0  0  0  0
  1 28  1  0  0  0  0
  2  8  1  0  0  0  0
  2 16  1  0  0  0  0
  2 17  1  0  0  0  0
  3 11  1  0  0  0  0
  3 12  1  0  0  0  0
  3 13  1  0  0  0  0
  4 16  2  0  0  0  0
  4 22  1  0  0  0  0
  5 20  1  0  0  0  0
  5 22  2  0  0  0  0
  6 20  1  0  0  0  0
  6 55  1  0  0  0  0
  6 56  1  0  0  0  0
  7  9  1  0  0  0  0
  7 10  1  0  0  0  0
  7 11  1  0  0  0  0
  7 35  1  0  0  0  0
  8  9  1  0  0  0  0
  8 10  1  0  0  0  0
  8 36  1  0  0  0  0
  9 37  1  0  0  0  0
  9 38  1  0  0  0  0
 10 39  1  0  0  0  0
 10 40  1  0  0  0  0
 11 41  1  0  0  0  0
 11 42  1  0  0  0  0
 12 14  1  0  0  0  0
 12 43  1  0  0  0  0
 12 44  1  0  0  0  0
 13 15  1  0  0  0  0
 13 45  1  0  0  0  0
 13 46  1  0  0  0  0
 14 15  1  0  0  0  0
 14 47  1  0  0  0  0
 14 48  1  0  0  0  0
 15 49  1  0  0  0  0
 15 50  1  0  0  0  0
 16 18  1  0  0  0  0
 17 19  2  0  0  0  0
 17 51  1  0  0  0  0
 18 19  1  0  0  0  0
 18 20  2  0  0  0  0
 19 21  1  0  0  0  0
 21 23  2  0  0  0  0
 21 24  1  0  0  0  0
 22 52  1  0  0  0  0
 23 25  1  0  0  0  0
 23 53  1  0  0  0  0
 24 26  2  0  0  0  0
 24 54  1  0  0  0  0
 25 27  2  0  0  0  0
 26 27  1  0  0  0  0
 26 57  1  0  0  0  0
 27 58  1  0  0  0  0
 28 29  1  0  0  0  0
 28 59  1  0  0  0  0
 28 60  1  0  0  0  0
 29 30  2  0  0  0  0
 29 31  1  0  0  0  0
 30 32  1  0  0  0  0
 30 61  1  0  0  0  0
 31 33  2  0  0  0  0
 31 62  1  0  0  0  0
 32 34  2  0  0  0  0
 32 63  1  0  0  0  0
 33 34  1  0  0  0  0
 33 64  1  0  0  0  0
 34 65  1  0  0  0  0
M  END
> <PUBCHEM_COMPOUND_CID>
9825149

> <PUBCHEM_CONFORMER_RMSD>
1

> <PUBCHEM_CONFORMER_DIVERSEORDER>
1
119
222
215
168
15
70
169
58
127
202
159
91
180
132
206
172
96
199
28
196
211
130
93
154
221
166
187
69
210
20
126
217
78
188
198
129
150
158
82
131
11
170
205
167
148
117
218
184
102
73
81
161
110
179
165
112
22
144
76
121
183
193
145
43
27
194
156
85
212
189
203
16
34
176
59
114
55
124
204
171
200
138
50
104
208
56
186
40
52
220
164
18
182
223
83
14
137
195
125
133
201
147
54
118
106
39
191
38
181
86
21
136
6
32
122
139
45
152
101
37
173
63
103
143
90
153
197
123
26
19
29
175
213
116
219
97
24
30
92
84
67
66
151
23
47
100
115
88
17
53
57
12
192
9
209
111
178
216
141
68
98
113
42
72
214
25
13
140
36
160
155
107
80
185
146
207
61
41
79
105
135
75
128
46
62
163
87
162
95
74
49
108
89
2
31
65
109
99
120
60
71
48
190
7
4
51
174
64
44
5
33
149
77
157
142
8
94
3
35
10
134
177

> <PUBCHEM_MMFF94_PARTIAL_CHARGES>
41
1 -0.36
11 0.27
12 0.27
13 0.27
16 0.11
17 -0.3
19 -0.05
2 0.22
20 0.41
21 0.05
22 0.47
23 -0.15
24 -0.15
25 0.08
26 -0.15
27 -0.15
28 0.42
29 -0.14
3 -0.81
30 -0.15
31 -0.15
32 -0.15
33 -0.15
34 -0.15
4 -0.57
5 -0.62
51 0.15
52 0.15
53 0.15
54 0.15
55 0.4
56 0.4
57 0.15
58 0.15
6 -0.9
61 0.15
62 0.15
63 0.15
64 0.15
65 0.15
8 0.09

> <PUBCHEM_EFFECTIVE_ROTOR_COUNT>
8.8

> <PUBCHEM_PHARMACOPHORE_FEATURES>
12
1 1 acceptor
1 3 cation
1 6 cation
1 6 donor
3 2 4 16 cation
3 4 5 22 cation
4 7 8 9 10 rings
5 2 16 17 18 19 rings
5 3 12 13 14 15 rings
6 21 23 24 25 26 27 rings
6 29 30 31 32 33 34 rings
6 4 5 16 18 20 22 rings

> <PUBCHEM_HEAVY_ATOM_COUNT>
34

> <PUBCHEM_ATOM_DEF_STEREO_COUNT>
0

> <PUBCHEM_ATOM_UDEF_STEREO_COUNT>
0

> <PUBCHEM_BOND_DEF_STEREO_COUNT>
0

> <PUBCHEM_BOND_UDEF_STEREO_COUNT>
0

> <PUBCHEM_ISOTOPIC_ATOM_COUNT>
0

> <PUBCHEM_COMPONENT_COUNT>
1

> <PUBCHEM_CACTVS_TAUTO_COUNT>
4

> <PUBCHEM_CONFORMER_ID>
0095EB7D00000001

> <PUBCHEM_MMFF94_ENERGY>
100.2158

> <PUBCHEM_FEATURE_SELFOVERLAP>
61.18

> <PUBCHEM_SHAPE_FINGERPRINT>
10740516 88 18187096065485976139
117089 54 18340491058796229430
12013929 27 18042127562340609014
12342043 65 18261666052008401773
131258 43 17676499375073345396
13383661 66 18261674783566580242
13673619 4 18187081767375375253
13782708 43 18115014295102420951
13947947 140 18334853914294062947
15324884 4 17827319398019857165
15467298 65 17687177596333875506
15773216 30 18190189060899228812
15803439 3 13840271372643963208
16120349 189 9294992584212088346
19246450 95 17703232802739629913
19301679 30 18200882772992231382
20505436 4 17126490836535714229
21095086 4 18333734610882084367
21130935 74 18195250147355446867
21716022 299 18188221974188293844
21796203 349 17988920085441775692
25269216 80 15647058145150117847
255183 451 17967256415986651964
2747138 104 18342449302011077986
3504750 166 18411418454308447943
3525247 94 18340767170424780871
3862424 121 18260835878012217510
393628 179 10303808757467177107
3991529 202 18341620321978593387
4408954 64 18270694099113681609
44426699 153 18408606985568866040
513202 73 17773020978850003340
57816373 69 18192709158624302775
58260988 114 18268996379834753488
58260988 647 18336270123782250947
6058803 2 16913387852611316373
636775 8 18337958883971181422
86090 222 17531517810953374011
8863177 126 18261667194675131711
999808 66 18408881828631165175

> <PUBCHEM_SHAPE_MULTIPOLES>
668.93
23.97
6.19
1.97
10.17
0.95
1.01
-44.04
-6.73
-5.51
-2.7
2.41
0.88
5.18

> <PUBCHEM_SHAPE_SELFOVERLAP>
1477.025

> <PUBCHEM_SHAPE_VOLUME>
359.6

> <PUBCHEM_COORDINATE_TYPE>
2
5
10

$$$$
