11640926
  -OEChem-10062121593D

 55 56  0     0  0  0  0  0  0999 V2000
    6.6839   -0.4776   -0.4639 S   0  0  0  0  0  0  0  0  0  0  0  0
    2.3121    1.5277   -2.1365 O   0  0  0  0  0  0  0  0  0  0  0  0
    5.1257   -0.5807    2.1120 O   0  0  0  0  0  0  0  0  0  0  0  0
   -6.0011    0.7272    0.4405 O   0  0  0  0  0  0  0  0  0  0  0  0
    6.8482   -1.7684    0.1870 O   0  0  0  0  0  0  0  0  0  0  0  0
    7.0037   -0.3318   -1.8764 O   0  0  0  0  0  0  0  0  0  0  0  0
    0.2770   -0.8903   -0.1322 O   0  0  0  0  0  0  0  0  0  0  0  0
   -1.3313    0.7610    0.3151 N   0  0  0  0  0  0  0  0  0  0  0  0
   -3.6950    0.7421    0.3780 N   0  0  0  0  0  0  0  0  0  0  0  0
   -3.6254   -3.3470   -0.6140 N   0  0  0  0  0  0  0  0  0  0  0  0
   -7.1402   -2.5552   -0.3205 N   0  0  0  0  0  0  0  0  0  0  0  0
    2.4059    0.8981    0.1745 C   0  0  0  0  0  0  0  0  0  0  0  0
    5.0362    0.0481   -0.2022 C   0  0  0  0  0  0  0  0  0  0  0  0
    0.9993    1.3481    0.3941 C   0  0  0  0  0  0  0  0  0  0  0  0
    3.0013    1.0078   -1.0822 C   0  0  0  0  0  0  0  0  0  0  0  0
    4.4410   -0.0616    1.0545 C   0  0  0  0  0  0  0  0  0  0  0  0
    3.1259    0.3635    1.2428 C   0  0  0  0  0  0  0  0  0  0  0  0
    4.3164    0.5827   -1.2705 C   0  0  0  0  0  0  0  0  0  0  0  0
   -0.0423    0.2587    0.1562 C   0  0  0  0  0  0  0  0  0  0  0  0
    7.6686    0.7112    0.4180 C   0  0  0  0  0  0  0  0  0  0  0  0
   -2.5532    0.0600    0.1796 C   0  0  0  0  0  0  0  0  0  0  0  0
   -5.9809    2.1129    0.1215 C   0  0  0  0  0  0  0  0  0  0  0  0
   -4.8366    0.0314    0.2390 C   0  0  0  0  0  0  0  0  0  0  0  0
   -2.4734   -1.2773   -0.1464 C   0  0  0  0  0  0  0  0  0  0  0  0
   -3.6689   -1.9745   -0.2805 C   0  0  0  0  0  0  0  0  0  0  0  0
   -4.8775   -1.3150   -0.0859 C   0  0  0  0  0  0  0  0  0  0  0  0
   -5.5292    2.9011    1.3416 C   0  0  0  0  0  0  0  0  0  0  0  0
   -7.3636    2.5387   -0.3481 C   0  0  0  0  0  0  0  0  0  0  0  0
    1.5662    0.6132   -2.9372 C   0  0  0  0  0  0  0  0  0  0  0  0
    4.4354   -0.6535    3.3579 C   0  0  0  0  0  0  0  0  0  0  0  0
   -6.1282   -2.0004   -0.2155 C   0  0  0  0  0  0  0  0  0  0  0  0
    0.8802    1.7093    1.4244 H   0  0  0  0  0  0  0  0  0  0  0  0
    0.7652    2.2072   -0.2471 H   0  0  0  0  0  0  0  0  0  0  0  0
    2.6087    0.3007    2.1943 H   0  0  0  0  0  0  0  0  0  0  0  0
    4.7597    0.6803   -2.2576 H   0  0  0  0  0  0  0  0  0  0  0  0
    7.4349    0.6652    1.4823 H   0  0  0  0  0  0  0  0  0  0  0  0
    8.7199    0.4587    0.2619 H   0  0  0  0  0  0  0  0  0  0  0  0
    7.4644    1.7062    0.0178 H   0  0  0  0  0  0  0  0  0  0  0  0
   -1.4379    1.7430    0.5576 H   0  0  0  0  0  0  0  0  0  0  0  0
   -5.2944    2.3082   -0.7140 H   0  0  0  0  0  0  0  0  0  0  0  0
   -1.5717   -1.8428   -0.3097 H   0  0  0  0  0  0  0  0  0  0  0  0
   -6.1822    2.6934    2.1969 H   0  0  0  0  0  0  0  0  0  0  0  0
   -4.5148    2.6497    1.6611 H   0  0  0  0  0  0  0  0  0  0  0  0
   -5.5571    3.9774    1.1427 H   0  0  0  0  0  0  0  0  0  0  0  0
   -8.1139    2.3549    0.4288 H   0  0  0  0  0  0  0  0  0  0  0  0
   -7.6667    1.9521   -1.2221 H   0  0  0  0  0  0  0  0  0  0  0  0
   -7.3866    3.5998   -0.6141 H   0  0  0  0  0  0  0  0  0  0  0  0
    1.6845    0.9009   -3.9857 H   0  0  0  0  0  0  0  0  0  0  0  0
    0.5069    0.6845   -2.6765 H   0  0  0  0  0  0  0  0  0  0  0  0
    1.9075   -0.4209   -2.8175 H   0  0  0  0  0  0  0  0  0  0  0  0
    5.1296   -1.0898    4.0839 H   0  0  0  0  0  0  0  0  0  0  0  0
    4.1709    0.3412    3.7327 H   0  0  0  0  0  0  0  0  0  0  0  0
    3.5720   -1.3253    3.3037 H   0  0  0  0  0  0  0  0  0  0  0  0
   -4.4765   -3.8821   -0.7181 H   0  0  0  0  0  0  0  0  0  0  0  0
   -2.7328   -3.8035   -0.7498 H   0  0  0  0  0  0  0  0  0  0  0  0
  1  5  2  0  0  0  0
  1  6  2  0  0  0  0
  1 13  1  0  0  0  0
  1 20  1  0  0  0  0
  2 15  1  0  0  0  0
  2 29  1  0  0  0  0
  3 16  1  0  0  0  0
  3 30  1  0  0  0  0
  4 22  1  0  0  0  0
  4 23  1  0  0  0  0
  7 19  2  0  0  0  0
  8 19  1  0  0  0  0
  8 21  1  0  0  0  0
  8 39  1  0  0  0  0
  9 21  2  0  0  0  0
  9 23  1  0  0  0  0
 10 25  1  0  0  0  0
 10 54  1  0  0  0  0
 10 55  1  0  0  0  0
 11 31  3  0  0  0  0
 12 14  1  0  0  0  0
 12 15  1  0  0  0  0
 12 17  2  0  0  0  0
 13 16  2  0  0  0  0
 13 18  1  0  0  0  0
 14 19  1  0  0  0  0
 14 32  1  0  0  0  0
 14 33  1  0  0  0  0
 15 18  2  0  0  0  0
 16 17  1  0  0  0  0
 17 34  1  0  0  0  0
 18 35  1  0  0  0  0
 20 36  1  0  0  0  0
 20 37  1  0  0  0  0
 20 38  1  0  0  0  0
 21 24  1  0  0  0  0
 22 27  1  0  0  0  0
 22 28  1  0  0  0  0
 22 40  1  0  0  0  0
 23 26  2  0  0  0  0
 24 25  2  0  0  0  0
 24 41  1  0  0  0  0
 25 26  1  0  0  0  0
 26 31  1  0  0  0  0
 27 42  1  0  0  0  0
 27 43  1  0  0  0  0
 27 44  1  0  0  0  0
 28 45  1  0  0  0  0
 28 46  1  0  0  0  0
 28 47  1  0  0  0  0
 29 48  1  0  0  0  0
 29 49  1  0  0  0  0
 29 50  1  0  0  0  0
 30 51  1  0  0  0  0
 30 52  1  0  0  0  0
 30 53  1  0  0  0  0
M  END
> <PUBCHEM_COMPOUND_CID>
11640926

> <PUBCHEM_CONFORMER_RMSD>
1

> <PUBCHEM_CONFORMER_DIVERSEORDER>
1
29
34
57
48
26
19
50
44
49
60
47
38
13
63
21
58
55
56
40
14
17
33
53
16
31
36
30
10
66
24
35
54
22
28
7
51
61
18
39
25
62
64
2
45
27
11
12
42
20
65
23
52
68
9
3
37
6
67
4
32
8
46
41
43
5
15
59

> <PUBCHEM_MMFF94_PARTIAL_CHARGES>
35
1 1.2
10 -0.9
11 -0.56
12 -0.14
13 -0.01
14 0.2
15 0.08
16 0.08
17 -0.15
18 -0.15
19 0.57
2 -0.36
20 0.11
21 0.43
22 0.28
23 0.39
24 -0.15
25 0.1
26 0.07
29 0.28
3 -0.36
30 0.28
31 0.48
34 0.15
35 0.15
39 0.37
4 -0.36
41 0.15
5 -0.65
54 0.4
55 0.4
6 -0.65
7 -0.57
8 -0.55
9 -0.62

> <PUBCHEM_EFFECTIVE_ROTOR_COUNT>
9

> <PUBCHEM_PHARMACOPHORE_FEATURES>
13
1 10 cation
1 10 donor
1 11 acceptor
1 2 acceptor
1 3 acceptor
1 4 acceptor
1 5 acceptor
1 6 acceptor
1 7 acceptor
1 8 donor
3 22 27 28 hydrophobe
6 12 13 15 16 17 18 rings
6 9 21 23 24 25 26 rings

> <PUBCHEM_HEAVY_ATOM_COUNT>
31

> <PUBCHEM_ATOM_DEF_STEREO_COUNT>
0

> <PUBCHEM_ATOM_UDEF_STEREO_COUNT>
0

> <PUBCHEM_BOND_DEF_STEREO_COUNT>
0

> <PUBCHEM_BOND_UDEF_STEREO_COUNT>
0

> <PUBCHEM_ISOTOPIC_ATOM_COUNT>
0

> <PUBCHEM_COMPONENT_COUNT>
1

> <PUBCHEM_CACTVS_TAUTO_COUNT>
13

> <PUBCHEM_CONFORMER_ID>
00B1A05E00000001

> <PUBCHEM_MMFF94_ENERGY>
111.9366

> <PUBCHEM_FEATURE_SELFOVERLAP>
65.996

> <PUBCHEM_SHAPE_FINGERPRINT>
10299344 5 18040152915800390522
10319926 262 18202274818842138995
10673678 19 12829791634640651334
11331351 85 18041001683396692332
11796584 16 18343025493158768862
12166972 35 18334860557970017068
12236239 1 18260270763189075964
13782708 43 17632012074094300031
13885169 127 18342740710629764281
14294032 229 18263364681868654805
15021287 119 17531256049766275357
15183329 4 17822006523331610247
15328829 1 18041004994452454104
15419008 47 17346880035425369560
15419008 91 18059560396012426096
15439362 3 17909837536132562301
15475509 35 17988918939324544770
1577012 14 18113896048494925737
15799311 1 16950288403315854331
17093844 174 18413107269091172105
17844677 252 18270686480015771425
21033648 29 17417517073393222784
21267235 1 18339082704891864515
21315763 178 18113332016420826872
21859007 373 17703504389779057049
220451 1 17821727230176946914
221357 26 15936679441516709006
22224240 67 14405179548396389836
23081809 10 17894907430071764001
23522609 53 17968396566606148948
23559900 14 17917717885131814005
23569943 247 17314212385475780282
24771293 8 17823134687731268924
3004659 81 18334575780373867546
3178227 256 15769781273756028094
397830 11 17416954196343306810
4340502 62 14548745031638633796
559249 180 18412263939467345063
59755656 215 18059016077420594060
9831232 110 18059304180181085902

> <PUBCHEM_SHAPE_MULTIPOLES>
586.68
22.76
2.55
1.92
0.86
0.56
0.26
0.39
1.23
7.26
-0.08
-4.04
-0.24
-1.79

> <PUBCHEM_SHAPE_SELFOVERLAP>
1223.959

> <PUBCHEM_SHAPE_VOLUME>
335.5

> <PUBCHEM_COORDINATE_TYPE>
2
5
10

$$$$
