25206387
  -OEChem-10052115193D

 34 36  0     0  0  0  0  0  0999 V2000
   -4.9293    0.9101    1.6940 Cl  0  0  0  0  0  0  0  0  0  0  0  0
    1.3243   -3.8453   -0.0775 O   0  0  0  0  0  0  0  0  0  0  0  0
    3.2646   -2.3311    1.7283 O   0  0  0  0  0  0  0  0  0  0  0  0
    0.4441   -1.1753   -1.6376 N   0  0  0  0  0  0  0  0  0  0  0  0
    2.5816    0.4908    0.3558 N   0  0  0  0  0  0  0  0  0  0  0  0
    0.5650    4.1527   -0.2038 N   0  0  0  0  0  0  0  0  0  0  0  0
    1.2875   -1.3974   -0.6580 C   0  0  0  0  0  0  0  0  0  0  0  0
    2.1497   -0.7237    0.1458 C   0  0  0  0  0  0  0  0  0  0  0  0
   -0.8406   -1.8332   -1.7381 C   0  0  0  0  0  0  0  0  0  0  0  0
    1.6045   -2.6764   -0.0267 C   0  0  0  0  0  0  0  0  0  0  0  0
    2.5427   -1.9439    0.8471 C   0  0  0  0  0  0  0  0  0  0  0  0
   -1.8573   -1.1522   -0.8856 C   0  0  0  0  0  0  0  0  0  0  0  0
    1.9013    1.7257    0.1672 C   0  0  0  0  0  0  0  0  0  0  0  0
   -2.0364   -1.5503    0.4392 C   0  0  0  0  0  0  0  0  0  0  0  0
   -2.6280   -0.1158   -1.4126 C   0  0  0  0  0  0  0  0  0  0  0  0
   -2.9861   -0.9122    1.2370 C   0  0  0  0  0  0  0  0  0  0  0  0
   -3.5777    0.5223   -0.6149 C   0  0  0  0  0  0  0  0  0  0  0  0
    2.6151    2.8718   -0.1649 C   0  0  0  0  0  0  0  0  0  0  0  0
    0.5203    1.7916    0.3140 C   0  0  0  0  0  0  0  0  0  0  0  0
   -3.7568    0.1240    0.7098 C   0  0  0  0  0  0  0  0  0  0  0  0
    1.9064    4.0498   -0.3380 C   0  0  0  0  0  0  0  0  0  0  0  0
   -0.0948    3.0179    0.1194 C   0  0  0  0  0  0  0  0  0  0  0  0
   -0.7756   -2.8996   -1.4889 H   0  0  0  0  0  0  0  0  0  0  0  0
   -1.1636   -1.8087   -2.7867 H   0  0  0  0  0  0  0  0  0  0  0  0
    0.4700   -0.2834   -2.1294 H   0  0  0  0  0  0  0  0  0  0  0  0
    3.4653    0.6385    0.8408 H   0  0  0  0  0  0  0  0  0  0  0  0
   -1.4445   -2.3574    0.8625 H   0  0  0  0  0  0  0  0  0  0  0  0
   -2.4959    0.2063   -2.4421 H   0  0  0  0  0  0  0  0  0  0  0  0
    3.6928    2.8552   -0.2880 H   0  0  0  0  0  0  0  0  0  0  0  0
   -0.0771    0.9337    0.5975 H   0  0  0  0  0  0  0  0  0  0  0  0
   -3.1149   -1.2333    2.2674 H   0  0  0  0  0  0  0  0  0  0  0  0
   -4.1701    1.3293   -1.0385 H   0  0  0  0  0  0  0  0  0  0  0  0
    2.4162    4.9716   -0.5980 H   0  0  0  0  0  0  0  0  0  0  0  0
   -1.1693    3.1234    0.2283 H   0  0  0  0  0  0  0  0  0  0  0  0
  1 20  1  0  0  0  0
  2 10  2  0  0  0  0
  3 11  2  0  0  0  0
  4  7  1  0  0  0  0
  4  9  1  0  0  0  0
  4 25  1  0  0  0  0
  5  8  1  0  0  0  0
  5 13  1  0  0  0  0
  5 26  1  0  0  0  0
  6 21  2  0  0  0  0
  6 22  1  0  0  0  0
  7  8  2  0  0  0  0
  7 10  1  0  0  0  0
  8 11  1  0  0  0  0
  9 12  1  0  0  0  0
  9 23  1  0  0  0  0
  9 24  1  0  0  0  0
 10 11  1  0  0  0  0
 12 14  2  0  0  0  0
 12 15  1  0  0  0  0
 13 18  2  0  0  0  0
 13 19  1  0  0  0  0
 14 16  1  0  0  0  0
 14 27  1  0  0  0  0
 15 17  2  0  0  0  0
 15 28  1  0  0  0  0
 16 20  2  0  0  0  0
 16 31  1  0  0  0  0
 17 20  1  0  0  0  0
 17 32  1  0  0  0  0
 18 21  1  0  0  0  0
 18 29  1  0  0  0  0
 19 22  2  0  0  0  0
 19 30  1  0  0  0  0
 21 33  1  0  0  0  0
 22 34  1  0  0  0  0
M  END
> <PUBCHEM_COMPOUND_CID>
25206387

> <PUBCHEM_CONFORMER_RMSD>
0.8

> <PUBCHEM_CONFORMER_DIVERSEORDER>
1
6
102
25
115
34
125
94
127
59
31
118
71
39
77
122
65
79
92
86
38
35
14
42
126
76
30
27
53
89
90
52
3
103
56
67
83
15
112
33
12
55
20
111
107
62
8
17
47
37
21
81
11
95
19
123
91
121
120
50
119
106
73
66
100
113
80
41
84
7
82
46
58
29
26
104
60
97
51
23
44
28
54
101
2
110
57
16
32
87
114
13
117
24
43
5
105
108
99
45
116
4
61
98
70
18
85
68
64
96
49
109
10
69
88
48
74
63
124
9
78
75
93
40
22
36
72

> <PUBCHEM_MMFF94_PARTIAL_CHARGES>
32
1 -0.18
10 0.64
11 0.64
12 -0.14
13 0.1
14 -0.15
15 -0.15
16 -0.15
17 -0.15
18 -0.15
19 -0.15
2 -0.57
20 0.18
21 0.16
22 0.16
25 0.4
26 0.4
27 0.15
28 0.15
29 0.15
3 -0.57
30 0.15
31 0.15
32 0.15
33 0.15
34 0.15
4 -0.87
5 -0.6
6 -0.62
7 0.03
8 0.03
9 0.51

> <PUBCHEM_EFFECTIVE_ROTOR_COUNT>
5

> <PUBCHEM_PHARMACOPHORE_FEATURES>
10
1 2 acceptor
1 3 acceptor
1 4 cation
1 4 donor
1 5 cation
1 5 donor
1 6 acceptor
4 7 8 10 11 rings
6 12 14 15 16 17 20 rings
6 6 13 18 19 21 22 rings

> <PUBCHEM_HEAVY_ATOM_COUNT>
22

> <PUBCHEM_ATOM_DEF_STEREO_COUNT>
0

> <PUBCHEM_ATOM_UDEF_STEREO_COUNT>
0

> <PUBCHEM_BOND_DEF_STEREO_COUNT>
0

> <PUBCHEM_BOND_UDEF_STEREO_COUNT>
0

> <PUBCHEM_ISOTOPIC_ATOM_COUNT>
0

> <PUBCHEM_COMPONENT_COUNT>
1

> <PUBCHEM_CACTVS_TAUTO_COUNT>
11

> <PUBCHEM_CONFORMER_ID>
01809E7300000001

> <PUBCHEM_MMFF94_ENERGY>
67.7496

> <PUBCHEM_FEATURE_SELFOVERLAP>
50.747

> <PUBCHEM_SHAPE_FINGERPRINT>
10119406 146 15460437657841631495
10366900 7 18041006201617552855
10382601 240 18339370750408973712
104564 63 18053665767961660630
108634 29 17259059589615199133
11640471 11 17703505588422643759
12403259 327 18115323193556541467
12553582 1 18338797793255131422
12633257 1 18187358865701212387
12788726 201 17901669259169019890
128993 33 17910119345246374949
13140716 1 18341609386269008264
13965767 371 17415552117302713299
14123250 116 17477768351926788333
14251751 93 17766850793729142844
14713325 29 16605767748118354700
14790565 3 18265057010599609276
15848702 68 18410014304053413413
17859628 37 18200039430314756213
18785283 64 18336277807552596081
20465049 17 18125184833061556821
20739085 24 18411416194495663250
21041028 32 18191864522744692966
21197605 99 17407391443739708613
21452121 99 16682901159859547262
21524375 3 17765150961895712622
21665062 11 18340492157832538247
22182937 141 17402899319736815172
238 59 17831256792054951749
31174 14 18334868216429143835
3472631 163 14979380778418957155
392239 28 17399526009494392091
4409770 3 15176749398978892527
474 4 18341330093425626195
513202 73 17764020273412578218
5283268 108 18051989025666945185
57100710 29 17774996925398208911
5939293 188 18341341010889594817
5951187 136 13467891906043838771
81228 2 17906444429367149456
8988823 20 18335710485702827715

> <PUBCHEM_SHAPE_MULTIPOLES>
427.94
6.44
4.97
1.43
6.79
2.41
0.07
1.77
-2.7
-5.41
-0.04
0.89
-0.66
-1.37

> <PUBCHEM_SHAPE_SELFOVERLAP>
925.984

> <PUBCHEM_SHAPE_VOLUME>
233.9

> <PUBCHEM_COORDINATE_TYPE>
2
5
10

$$$$
