20744821
  -OEChem-10062121523D

 53 57  0     1  0  0  0  0  0999 V2000
    2.3097    1.8493   -0.9720 O   0  0  0  0  0  0  0  0  0  0  0  0
    3.6861   -2.0191    1.7208 N   0  0  0  0  0  0  0  0  0  0  0  0
    5.0375    1.7268   -2.4378 N   0  0  0  0  0  0  0  0  0  0  0  0
   -5.7608   -0.9771   -1.1478 N   0  0  0  0  0  0  0  0  0  0  0  0
   -5.8480   -0.8353    0.1892 N   0  0  0  0  0  0  0  0  0  0  0  0
    0.4457    3.3102    1.8164 N   0  0  0  0  0  0  0  0  0  0  0  0
    4.0591   -0.3287   -1.4942 C   0  0  0  0  0  0  0  0  0  0  0  0
    4.6256    1.0826   -1.1855 C   0  0  2  0  0  0  0  0  0  0  0  0
    3.6608   -1.1021   -0.3005 C   0  0  0  0  0  0  0  0  0  0  0  0
    2.4625   -1.8520   -0.1372 C   0  0  0  0  0  0  0  0  0  0  0  0
    3.6284    1.9974   -0.4618 C   0  0  0  0  0  0  0  0  0  0  0  0
    2.5034   -2.4170    1.1392 C   0  0  0  0  0  0  0  0  0  0  0  0
    4.3923   -1.2242    0.8584 C   0  0  0  0  0  0  0  0  0  0  0  0
    1.3435   -2.1050   -0.9553 C   0  0  0  0  0  0  0  0  0  0  0  0
    1.4770   -3.2256    1.6404 C   0  0  0  0  0  0  0  0  0  0  0  0
   -3.9203    0.0314   -0.6435 C   0  0  0  0  0  0  0  0  0  0  0  0
   -2.2438    1.0540    0.5632 C   0  0  0  0  0  0  0  0  0  0  0  0
    0.3093   -2.9120   -0.4673 C   0  0  0  0  0  0  0  0  0  0  0  0
    1.2795    2.1013   -0.1040 C   0  0  0  0  0  0  0  0  0  0  0  0
    0.3772   -3.4626    0.8110 C   0  0  0  0  0  0  0  0  0  0  0  0
   -0.9666    1.7197    0.6670 C   0  0  0  0  0  0  0  0  0  0  0  0
   -4.7118   -0.2072    0.5398 C   0  0  0  0  0  0  0  0  0  0  0  0
   -2.6804    0.6536   -0.7150 C   0  0  0  0  0  0  0  0  0  0  0  0
   -4.6207   -0.4732   -1.7024 C   0  0  0  0  0  0  0  0  0  0  0  0
    0.0602    1.4446   -0.2293 C   0  0  0  0  0  0  0  0  0  0  0  0
   -2.9902    0.8408    1.7648 C   0  0  0  0  0  0  0  0  0  0  0  0
   -4.2502    0.2040    1.8037 C   0  0  0  0  0  0  0  0  0  0  0  0
    1.4202    3.0167    0.9265 C   0  0  0  0  0  0  0  0  0  0  0  0
   -0.7254    2.6523    1.6631 C   0  0  0  0  0  0  0  0  0  0  0  0
   -4.3600   -0.5436   -3.1500 C   0  0  0  0  0  0  0  0  0  0  0  0
    4.8263   -0.9078   -2.0274 H   0  0  0  0  0  0  0  0  0  0  0  0
    3.2180   -0.2400   -2.1934 H   0  0  0  0  0  0  0  0  0  0  0  0
    5.5269    0.9966   -0.5662 H   0  0  0  0  0  0  0  0  0  0  0  0
    3.6626    1.7223    0.6014 H   0  0  0  0  0  0  0  0  0  0  0  0
    3.9353    3.0483   -0.5393 H   0  0  0  0  0  0  0  0  0  0  0  0
    5.3523   -0.8222    1.1511 H   0  0  0  0  0  0  0  0  0  0  0  0
    3.9886   -2.2773    2.6499 H   0  0  0  0  0  0  0  0  0  0  0  0
    1.2716   -1.6842   -1.9541 H   0  0  0  0  0  0  0  0  0  0  0  0
    5.4821    2.6211   -2.2348 H   0  0  0  0  0  0  0  0  0  0  0  0
    5.7429    1.1548   -2.9005 H   0  0  0  0  0  0  0  0  0  0  0  0
    1.5286   -3.6544    2.6356 H   0  0  0  0  0  0  0  0  0  0  0  0
   -0.5571   -3.1088   -1.0931 H   0  0  0  0  0  0  0  0  0  0  0  0
   -0.4380   -4.0856    1.1702 H   0  0  0  0  0  0  0  0  0  0  0  0
   -2.1519    0.8232   -1.6424 H   0  0  0  0  0  0  0  0  0  0  0  0
   -0.0415    0.7094   -1.0226 H   0  0  0  0  0  0  0  0  0  0  0  0
   -2.5877    1.1375    2.7330 H   0  0  0  0  0  0  0  0  0  0  0  0
   -4.7951    0.0447    2.7248 H   0  0  0  0  0  0  0  0  0  0  0  0
   -6.5280   -1.4349   -1.6236 H   0  0  0  0  0  0  0  0  0  0  0  0
    2.3277    3.5903    1.0820 H   0  0  0  0  0  0  0  0  0  0  0  0
   -1.4758    2.9586    2.3848 H   0  0  0  0  0  0  0  0  0  0  0  0
   -3.4359   -1.0965   -3.3473 H   0  0  0  0  0  0  0  0  0  0  0  0
   -5.1711   -1.0463   -3.6870 H   0  0  0  0  0  0  0  0  0  0  0  0
   -4.2535    0.4618   -3.5701 H   0  0  0  0  0  0  0  0  0  0  0  0
  1 11  1  0  0  0  0
  1 19  1  0  0  0  0
  2 12  1  0  0  0  0
  2 13  1  0  0  0  0
  2 37  1  0  0  0  0
  3  8  1  0  0  0  0
  3 39  1  0  0  0  0
  3 40  1  0  0  0  0
  4  5  1  0  0  0  0
  4 24  1  0  0  0  0
  4 48  1  0  0  0  0
  5 22  2  0  0  0  0
  6 28  1  0  0  0  0
  6 29  2  0  0  0  0
  7  8  1  0  0  0  0
  7  9  1  0  0  0  0
  7 31  1  0  0  0  0
  7 32  1  0  0  0  0
  8 11  1  0  0  0  0
  8 33  1  0  0  0  0
  9 10  1  0  0  0  0
  9 13  2  0  0  0  0
 10 12  1  0  0  0  0
 10 14  2  0  0  0  0
 11 34  1  0  0  0  0
 11 35  1  0  0  0  0
 12 15  2  0  0  0  0
 13 36  1  0  0  0  0
 14 18  1  0  0  0  0
 14 38  1  0  0  0  0
 15 20  1  0  0  0  0
 15 41  1  0  0  0  0
 16 22  1  0  0  0  0
 16 23  1  0  0  0  0
 16 24  2  0  0  0  0
 17 21  1  0  0  0  0
 17 23  2  0  0  0  0
 17 26  1  0  0  0  0
 18 20  2  0  0  0  0
 18 42  1  0  0  0  0
 19 25  1  0  0  0  0
 19 28  2  0  0  0  0
 20 43  1  0  0  0  0
 21 25  2  0  0  0  0
 21 29  1  0  0  0  0
 22 27  1  0  0  0  0
 23 44  1  0  0  0  0
 24 30  1  0  0  0  0
 25 45  1  0  0  0  0
 26 27  2  0  0  0  0
 26 46  1  0  0  0  0
 27 47  1  0  0  0  0
 28 49  1  0  0  0  0
 29 50  1  0  0  0  0
 30 51  1  0  0  0  0
 30 52  1  0  0  0  0
 30 53  1  0  0  0  0
M  END
> <PUBCHEM_COMPOUND_CID>
20744821

> <PUBCHEM_CONFORMER_RMSD>
1.4

> <PUBCHEM_CONFORMER_DIVERSEORDER>
1
12
51
53
22
89
28
10
100
17
97
45
66
31
79
37
7
15
87
57
61
23
90
99
63
50
68
82
86
83
39
24
40
13
9
11
21
81
42
88
55
25
19
59
93
58
70
16
30
35
65
71
62
85
52
67
27
74
64
94
18
5
14
47
33
8
72
76
60
92
29
2
101
26
98
48
73
69
102
54
20
49
78
95
4
34
56
75
91
80
36
6
103
32
41
3
96
46
84
77
38
44
43

> <PUBCHEM_MMFF94_PARTIAL_CHARGES>
41
1 -0.36
11 0.28
12 -0.15
13 -0.3
14 -0.15
15 -0.15
18 -0.15
19 0.08
2 0.03
20 -0.15
22 0.29
23 -0.15
24 -0.33
25 -0.15
26 -0.15
27 -0.15
28 0.16
29 0.16
3 -0.99
30 0.18
36 0.15
37 0.27
38 0.15
39 0.36
4 0.3
40 0.36
41 0.15
42 0.15
43 0.15
44 0.15
45 0.15
46 0.15
47 0.15
48 0.27
49 0.15
5 -0.71
50 0.15
6 -0.62
7 0.18
8 0.27
9 -0.18

> <PUBCHEM_EFFECTIVE_ROTOR_COUNT>
6

> <PUBCHEM_PHARMACOPHORE_FEATURES>
13
1 1 acceptor
1 2 cation
1 2 donor
1 3 cation
1 3 donor
1 4 donor
1 5 acceptor
1 6 acceptor
5 2 9 10 12 13 rings
5 4 5 16 22 24 rings
6 10 12 14 15 18 20 rings
6 16 17 22 23 26 27 rings
6 6 19 21 25 28 29 rings

> <PUBCHEM_HEAVY_ATOM_COUNT>
30

> <PUBCHEM_ATOM_DEF_STEREO_COUNT>
0

> <PUBCHEM_ATOM_UDEF_STEREO_COUNT>
1

> <PUBCHEM_BOND_DEF_STEREO_COUNT>
0

> <PUBCHEM_BOND_UDEF_STEREO_COUNT>
0

> <PUBCHEM_ISOTOPIC_ATOM_COUNT>
0

> <PUBCHEM_COMPONENT_COUNT>
1

> <PUBCHEM_CACTVS_TAUTO_COUNT>
2

> <PUBCHEM_CONFORMER_ID>
013C8A7500000001

> <PUBCHEM_MMFF94_ENERGY>
81.4082

> <PUBCHEM_FEATURE_SELFOVERLAP>
66.196

> <PUBCHEM_SHAPE_FINGERPRINT>
10319688 67 18268978960623976568
1100329 8 18339355366047181066
11069576 57 18262519187311739942
11513181 2 17984999093717693638
12156800 1 17765127846682413146
12166972 35 17968653801003581938
12553582 1 18201440242403949953
12788726 201 18201451237409834952
13947920 75 17917714638806516838
14251757 17 17240763943677720857
14787075 74 18411146835062687542
14840074 17 18340496616440985207
14931854 50 18339935878242948796
15001296 14 17844796182993353207
15537594 2 18200890508138914001
17138139 8 18200030792982478548
17492 54 18335430092503311806
19026451 147 18340194228767830923
19319366 153 18334571369696396342
20511986 3 18202281364826413689
20764821 26 18335990877630296907
20775530 9 17757270384218845706
208703 8 18060419131783663751
21421861 104 18123777273505264849
235170 7 17313106358329607925
392239 28 18129078079729963306
4098825 35 18040710330590883589
4409770 3 16037711688019068561
46194498 28 17023475273257835245
463206 1 18342453789993205611
484989 97 18189631599312702602
6287921 2 17771074791080749190
6669772 16 18124303072144517384

> <PUBCHEM_SHAPE_MULTIPOLES>
586.61
11.38
4.05
2.22
8.47
0.46
-0.83
1.85
-4.74
-3.74
1.82
0.95
-0.08
-2.69

> <PUBCHEM_SHAPE_SELFOVERLAP>
1309.042

> <PUBCHEM_SHAPE_VOLUME>
312.5

> <PUBCHEM_COORDINATE_TYPE>
2
5
10

$$$$
