49830601
  -OEChem-10052120443D

 60 65  0     1  0  0  0  0  0999 V2000
    3.5322   -0.4546   -1.8005 O   0  0  0  0  0  0  0  0  0  0  0  0
   -5.9568    0.5128    0.7933 O   0  0  0  0  0  0  0  0  0  0  0  0
   -6.2653   -1.2648   -1.3248 O   0  0  0  0  0  0  0  0  0  0  0  0
    1.8089   -2.6665    1.2370 N   0  0  0  0  0  0  0  0  0  0  0  0
    6.8616   -1.9733   -1.6335 N   0  0  0  0  0  0  0  0  0  0  0  0
   -4.2480    2.1163    1.0912 N   0  0  0  0  0  0  0  0  0  0  0  0
    2.9409    3.1399   -1.6835 N   0  0  0  0  0  0  0  0  0  0  0  0
    5.3151   -2.1269    0.2460 C   0  0  0  0  0  0  0  0  0  0  0  0
    5.4467   -1.8565   -1.2676 C   0  0  1  0  0  0  0  0  0  0  0  0
    3.9006   -2.0878    0.7717 C   0  0  0  0  0  0  0  0  0  0  0  0
    3.2987   -1.0279    1.5060 C   0  0  0  0  0  0  0  0  0  0  0  0
    4.9561   -0.4626   -1.6772 C   0  0  0  0  0  0  0  0  0  0  0  0
    1.9866   -1.4163    1.7852 C   0  0  0  0  0  0  0  0  0  0  0  0
    2.9600   -3.0807    0.6223 C   0  0  0  0  0  0  0  0  0  0  0  0
   -2.5460    1.1209   -0.0924 C   0  0  0  0  0  0  0  0  0  0  0  0
    3.7454    0.2286    1.9611 C   0  0  0  0  0  0  0  0  0  0  0  0
   -2.9168    2.2293    0.6745 C   0  0  0  0  0  0  0  0  0  0  0  0
    1.0955   -0.6078    2.4998 C   0  0  0  0  0  0  0  0  0  0  0  0
   -0.3692    2.0550   -0.3465 C   0  0  0  0  0  0  0  0  0  0  0  0
   -3.7276    0.2671   -0.1530 C   0  0  0  0  0  0  0  0  0  0  0  0
   -1.2698    1.0180   -0.6128 C   0  0  0  0  0  0  0  0  0  0  0  0
    0.9773    1.9848   -0.8738 C   0  0  0  0  0  0  0  0  0  0  0  0
    2.8651    1.0479    2.6771 C   0  0  0  0  0  0  0  0  0  0  0  0
    2.8974    0.7245   -1.5881 C   0  0  0  0  0  0  0  0  0  0  0  0
   -2.0439    3.2637    0.9493 C   0  0  0  0  0  0  0  0  0  0  0  0
    1.5609    0.6341    2.9412 C   0  0  0  0  0  0  0  0  0  0  0  0
   -0.7527    3.1668    0.4269 C   0  0  0  0  0  0  0  0  0  0  0  0
   -4.8268    0.9320    0.6240 C   0  0  0  0  0  0  0  0  0  0  0  0
    1.6034    0.7605   -1.0802 C   0  0  0  0  0  0  0  0  0  0  0  0
   -3.8746   -0.9069   -0.7700 C   0  0  0  0  0  0  0  0  0  0  0  0
    1.6828    3.1351   -1.1887 C   0  0  0  0  0  0  0  0  0  0  0  0
    3.5170    1.9312   -1.8707 C   0  0  0  0  0  0  0  0  0  0  0  0
   -5.1020   -1.7238   -0.7929 C   0  0  0  0  0  0  0  0  0  0  0  0
   -5.2626   -3.0016   -0.3096 C   0  0  0  0  0  0  0  0  0  0  0  0
   -6.6111   -3.3502   -0.5610 C   0  0  0  0  0  0  0  0  0  0  0  0
   -7.1785   -2.2604   -1.1798 C   0  0  0  0  0  0  0  0  0  0  0  0
    5.9301   -1.4120    0.8086 H   0  0  0  0  0  0  0  0  0  0  0  0
    5.7277   -3.1197    0.4749 H   0  0  0  0  0  0  0  0  0  0  0  0
    4.8757   -2.6162   -1.8161 H   0  0  0  0  0  0  0  0  0  0  0  0
    5.3130    0.2730   -0.9436 H   0  0  0  0  0  0  0  0  0  0  0  0
    5.3613   -0.1961   -2.6619 H   0  0  0  0  0  0  0  0  0  0  0  0
    3.0049   -4.0440    0.1336 H   0  0  0  0  0  0  0  0  0  0  0  0
    0.9517   -3.2001    1.2812 H   0  0  0  0  0  0  0  0  0  0  0  0
    4.7575    0.5692    1.7625 H   0  0  0  0  0  0  0  0  0  0  0  0
    7.1982   -2.9082   -1.4065 H   0  0  0  0  0  0  0  0  0  0  0  0
    6.9653   -1.8705   -2.6423 H   0  0  0  0  0  0  0  0  0  0  0  0
    0.0791   -0.9277    2.7033 H   0  0  0  0  0  0  0  0  0  0  0  0
   -1.0147    0.1609   -1.2268 H   0  0  0  0  0  0  0  0  0  0  0  0
    3.2033    2.0192    3.0283 H   0  0  0  0  0  0  0  0  0  0  0  0
   -2.3391    4.1158    1.5507 H   0  0  0  0  0  0  0  0  0  0  0  0
   -4.7178    2.8121    1.6583 H   0  0  0  0  0  0  0  0  0  0  0  0
   -0.0583    3.9675    0.6694 H   0  0  0  0  0  0  0  0  0  0  0  0
    0.8928    1.2877    3.4962 H   0  0  0  0  0  0  0  0  0  0  0  0
    1.1200   -0.1837   -0.8472 H   0  0  0  0  0  0  0  0  0  0  0  0
   -3.0217   -1.3542   -1.2751 H   0  0  0  0  0  0  0  0  0  0  0  0
    1.2640    4.1314   -1.0882 H   0  0  0  0  0  0  0  0  0  0  0  0
    4.5145    1.9940   -2.2924 H   0  0  0  0  0  0  0  0  0  0  0  0
   -4.5074   -3.6117    0.1659 H   0  0  0  0  0  0  0  0  0  0  0  0
   -7.1076   -4.2792   -0.3210 H   0  0  0  0  0  0  0  0  0  0  0  0
   -8.1672   -2.0464   -1.5585 H   0  0  0  0  0  0  0  0  0  0  0  0
  1 12  1  0  0  0  0
  1 24  1  0  0  0  0
  2 28  2  0  0  0  0
  3 33  1  0  0  0  0
  3 36  1  0  0  0  0
  4 13  1  0  0  0  0
  4 14  1  0  0  0  0
  4 43  1  0  0  0  0
  5  9  1  0  0  0  0
  5 45  1  0  0  0  0
  5 46  1  0  0  0  0
  6 17  1  0  0  0  0
  6 28  1  0  0  0  0
  6 51  1  0  0  0  0
  7 31  2  0  0  0  0
  7 32  1  0  0  0  0
  8  9  1  0  0  0  0
  8 10  1  0  0  0  0
  8 37  1  0  0  0  0
  8 38  1  0  0  0  0
  9 12  1  0  0  0  0
  9 39  1  0  0  0  0
 10 11  1  0  0  0  0
 10 14  2  0  0  0  0
 11 13  1  0  0  0  0
 11 16  2  0  0  0  0
 12 40  1  0  0  0  0
 12 41  1  0  0  0  0
 13 18  2  0  0  0  0
 14 42  1  0  0  0  0
 15 17  2  0  0  0  0
 15 20  1  0  0  0  0
 15 21  1  0  0  0  0
 16 23  1  0  0  0  0
 16 44  1  0  0  0  0
 17 25  1  0  0  0  0
 18 26  1  0  0  0  0
 18 47  1  0  0  0  0
 19 21  2  0  0  0  0
 19 22  1  0  0  0  0
 19 27  1  0  0  0  0
 20 28  1  0  0  0  0
 20 30  2  3  0  0  0
 21 48  1  0  0  0  0
 22 29  2  0  0  0  0
 22 31  1  0  0  0  0
 23 26  2  0  0  0  0
 23 49  1  0  0  0  0
 24 29  1  0  0  0  0
 24 32  2  0  0  0  0
 25 27  2  0  0  0  0
 25 50  1  0  0  0  0
 26 53  1  0  0  0  0
 27 52  1  0  0  0  0
 29 54  1  0  0  0  0
 30 33  1  0  0  0  0
 30 55  1  0  0  0  0
 31 56  1  0  0  0  0
 32 57  1  0  0  0  0
 33 34  2  0  0  0  0
 34 35  1  0  0  0  0
 34 58  1  0  0  0  0
 35 36  2  0  0  0  0
 35 59  1  0  0  0  0
 36 60  1  0  0  0  0
M  END
> <PUBCHEM_COMPOUND_CID>
49830601

> <PUBCHEM_CONFORMER_RMSD>
1.2

> <PUBCHEM_CONFORMER_DIVERSEORDER>
1
58
130
60
227
288
51
110
22
256
23
236
253
20
83
177
72
255
175
146
183
264
85
245
292
191
225
232
163
254
40
240
64
46
99
219
36
214
235
134
295
238
267
187
248
176
24
244
88
137
65
226
98
50
173
15
6
207
101
141
10
93
30
154
76
78
19
159
205
279
42
79
265
148
67
167
117
239
132
57
162
278
262
145
181
220
224
95
69
291
91
171
204
201
73
276
149
81
268
259
94
252
200
75
202
49
158
282
211
111
273
285
251
108
199
71
8
294
47
249
174
32
274
37
114
28
44
170
61
126
221
29
270
3
153
228
152
182
14
116
11
169
223
135
96
144
287
269
2
283
84
296
229
86
66
243
194
100
192
124
280
178
140
133
150
121
218
70
38
286
165
104
237
297
87
157
45
25
172
257
54
213
246
184
185
186
198
7
250
284
27
31
34
68
247
188
21
89
260
212
128
56
230
293
62
106
241
105
143
281
136
82
112
16
90
215
261
216
277
147
155
289
189
80
39
151
290
131
52
12
180
43
160
113
208
209
271
164
234
242
197
115
5
127
138
222
272
48
123
142
266
59
77
258
35
166
275
53
156
190
263
55
193
122
203
97
206
196
120
41
103
74
102
298
139
195
17
231
107
18
118
109
129
168
119
217
92
9
210
26
179
33
13
233
4
161
63
125

> <PUBCHEM_MMFF94_PARTIAL_CHARGES>
52
1 -0.36
10 -0.18
12 0.28
13 -0.15
14 -0.3
15 0.03
16 -0.15
17 0.12
18 -0.15
2 -0.57
20 -0.01
21 -0.15
23 -0.15
24 0.08
25 -0.15
26 -0.15
27 -0.15
28 0.62
29 -0.15
3 -0.28
30 -0.11
31 0.16
32 0.16
33 0.09
34 -0.15
35 -0.15
36 -0.01
4 0.03
42 0.15
43 0.27
44 0.15
45 0.36
46 0.36
47 0.15
48 0.15
49 0.15
5 -0.99
50 0.15
51 0.37
52 0.15
53 0.15
54 0.15
55 0.15
56 0.15
57 0.15
58 0.15
59 0.15
6 -0.55
60 0.15
7 -0.62
8 0.18
9 0.27

> <PUBCHEM_EFFECTIVE_ROTOR_COUNT>
7.2

> <PUBCHEM_PHARMACOPHORE_FEATURES>
15
1 1 acceptor
1 2 acceptor
1 3 acceptor
1 4 cation
1 4 donor
1 5 cation
1 5 donor
1 6 donor
1 7 acceptor
5 3 33 34 35 36 rings
5 4 10 11 13 14 rings
5 6 15 17 20 28 rings
6 11 13 16 18 23 26 rings
6 15 17 19 21 25 27 rings
6 7 22 24 29 31 32 rings

> <PUBCHEM_HEAVY_ATOM_COUNT>
36

> <PUBCHEM_ATOM_DEF_STEREO_COUNT>
0

> <PUBCHEM_ATOM_UDEF_STEREO_COUNT>
1

> <PUBCHEM_BOND_DEF_STEREO_COUNT>
0

> <PUBCHEM_BOND_UDEF_STEREO_COUNT>
1

> <PUBCHEM_ISOTOPIC_ATOM_COUNT>
0

> <PUBCHEM_COMPONENT_COUNT>
1

> <PUBCHEM_CACTVS_TAUTO_COUNT>
3

> <PUBCHEM_CONFORMER_ID>
02F85AC900000001

> <PUBCHEM_MMFF94_ENERGY>
101.3732

> <PUBCHEM_FEATURE_SELFOVERLAP>
76.309

> <PUBCHEM_SHAPE_FINGERPRINT>
10042902 136 18412261705514548001
10622 236 18412824716140772639
11315621 136 18260829340718259303
11607047 403 18267009747882500144
12047536 79 16559034922166674761
13075007 39 16702296845694644248
131258 38 17766264754611833319
13383661 66 17107088902255613067
13692114 37 18122623027763834012
13782708 43 17418088815260892847
14068700 675 18409164381549220848
15001296 14 18188489206630826815
17134984 74 17825101760855610559
17492 54 16806471136316001456
19026451 147 18187354458964591322
20775438 99 18114463469842183434
208703 8 18412826893315158599
21703447 108 18268984461733445841
21792938 703 18189340224225293858
23559900 14 18131074779724212461
4017518 198 16099355133251943502
463206 1 18040731242032221376
513532 50 18126561451678775240
6058803 2 18196118649023628781

> <PUBCHEM_SHAPE_MULTIPOLES>
703.33
15.75
4.36
2.41
18.39
0.17
-1.09
-15.7
6.19
1.67
0.56
-3.4
0.32
-2.58

> <PUBCHEM_SHAPE_SELFOVERLAP>
1582.252

> <PUBCHEM_SHAPE_VOLUME>
371.7

> <PUBCHEM_COORDINATE_TYPE>
2
5
10

$$$$
