11407497
  -OEChem-10052115193D

 52 56  0     0  0  0  0  0  0999 V2000
    1.2714    4.5410   -0.9982 F   0  0  0  0  0  0  0  0  0  0  0  0
    6.9411   -0.1843    0.8558 O   0  0  0  0  0  0  0  0  0  0  0  0
   -5.5723   -0.2774    1.8531 O   0  0  0  0  0  0  0  0  0  0  0  0
    4.7365   -0.8772    0.6153 N   0  0  0  0  0  0  0  0  0  0  0  0
    1.7093   -1.2391   -1.3588 N   0  0  0  0  0  0  0  0  0  0  0  0
   -0.5029   -0.8652   -0.6707 N   0  0  0  0  0  0  0  0  0  0  0  0
    0.0422   -2.6894   -2.1480 N   0  0  0  0  0  0  0  0  0  0  0  0
   -3.8382   -0.9122    0.6163 N   0  0  0  0  0  0  0  0  0  0  0  0
   -3.7917    1.2457    1.1824 N   0  0  0  0  0  0  0  0  0  0  0  0
    2.2070   -0.1094   -0.5994 C   0  0  0  0  0  0  0  0  0  0  0  0
    2.3182   -0.4832    0.8829 C   0  0  0  0  0  0  0  0  0  0  0  0
    3.5545    0.3596   -1.1607 C   0  0  0  0  0  0  0  0  0  0  0  0
    3.4904   -1.4246    1.1628 C   0  0  0  0  0  0  0  0  0  0  0  0
    4.7004   -0.5933   -0.8197 C   0  0  0  0  0  0  0  0  0  0  0  0
    5.9051   -0.6462    1.3406 C   0  0  0  0  0  0  0  0  0  0  0  0
    0.3774   -1.6087   -1.3934 C   0  0  0  0  0  0  0  0  0  0  0  0
    5.8685   -0.9905    2.8081 C   0  0  0  0  0  0  0  0  0  0  0  0
   -1.7936   -1.2537   -0.7277 C   0  0  0  0  0  0  0  0  0  0  0  0
   -2.6998   -0.4486    0.0473 C   0  0  0  0  0  0  0  0  0  0  0  0
   -2.6901    0.8952    0.4117 C   0  0  0  0  0  0  0  0  0  0  0  0
   -2.2375   -2.3341   -1.4626 C   0  0  0  0  0  0  0  0  0  0  0  0
   -4.4372    0.1173    1.2665 C   0  0  0  0  0  0  0  0  0  0  0  0
   -1.2653   -3.0219   -2.1597 C   0  0  0  0  0  0  0  0  0  0  0  0
   -1.6698    1.8344    0.0486 C   0  0  0  0  0  0  0  0  0  0  0  0
   -4.5974   -2.0416    0.7702 C   0  0  0  0  0  0  0  0  0  0  0  0
   -5.6440   -1.6555    1.5174 C   0  0  0  0  0  0  0  0  0  0  0  0
   -1.7836    2.5697   -1.1326 C   0  0  0  0  0  0  0  0  0  0  0  0
   -0.5595    2.0162    0.8753 C   0  0  0  0  0  0  0  0  0  0  0  0
   -0.7906    3.4834   -1.4860 C   0  0  0  0  0  0  0  0  0  0  0  0
    0.4335    2.9299    0.5220 C   0  0  0  0  0  0  0  0  0  0  0  0
    0.3179    3.6636   -0.6587 C   0  0  0  0  0  0  0  0  0  0  0  0
    1.5118    0.7244   -0.7221 H   0  0  0  0  0  0  0  0  0  0  0  0
    1.3934   -0.9342    1.2587 H   0  0  0  0  0  0  0  0  0  0  0  0
    2.4745    0.4387    1.4583 H   0  0  0  0  0  0  0  0  0  0  0  0
    3.7836    1.3441   -0.7318 H   0  0  0  0  0  0  0  0  0  0  0  0
    3.4964    0.4896   -2.2479 H   0  0  0  0  0  0  0  0  0  0  0  0
    3.5595   -1.6009    2.2377 H   0  0  0  0  0  0  0  0  0  0  0  0
    3.3264   -2.3990    0.6879 H   0  0  0  0  0  0  0  0  0  0  0  0
    4.5821   -1.5506   -1.3401 H   0  0  0  0  0  0  0  0  0  0  0  0
    5.6482   -0.1600   -1.1550 H   0  0  0  0  0  0  0  0  0  0  0  0
    2.3596   -1.8234   -1.8711 H   0  0  0  0  0  0  0  0  0  0  0  0
    5.1181   -0.3822    3.3200 H   0  0  0  0  0  0  0  0  0  0  0  0
    6.8439   -0.7775    3.2563 H   0  0  0  0  0  0  0  0  0  0  0  0
    5.6577   -2.0548    2.9424 H   0  0  0  0  0  0  0  0  0  0  0  0
   -3.2730   -2.6305   -1.5519 H   0  0  0  0  0  0  0  0  0  0  0  0
   -1.5197   -3.8789   -2.7741 H   0  0  0  0  0  0  0  0  0  0  0  0
   -4.3596   -3.0135    0.3760 H   0  0  0  0  0  0  0  0  0  0  0  0
   -6.4920   -2.1919    1.8978 H   0  0  0  0  0  0  0  0  0  0  0  0
   -2.6412    2.4412   -1.7889 H   0  0  0  0  0  0  0  0  0  0  0  0
   -0.4531    1.4514    1.7986 H   0  0  0  0  0  0  0  0  0  0  0  0
   -0.8799    4.0545   -2.4053 H   0  0  0  0  0  0  0  0  0  0  0  0
    1.2976    3.0689    1.1649 H   0  0  0  0  0  0  0  0  0  0  0  0
  1 31  1  0  0  0  0
  2 15  2  0  0  0  0
  3 22  1  0  0  0  0
  3 26  1  0  0  0  0
  4 13  1  0  0  0  0
  4 14  1  0  0  0  0
  4 15  1  0  0  0  0
  5 10  1  0  0  0  0
  5 16  1  0  0  0  0
  5 41  1  0  0  0  0
  6 16  1  0  0  0  0
  6 18  2  0  0  0  0
  7 16  2  0  0  0  0
  7 23  1  0  0  0  0
  8 19  1  0  0  0  0
  8 22  1  0  0  0  0
  8 25  1  0  0  0  0
  9 20  1  0  0  0  0
  9 22  2  0  0  0  0
 10 11  1  0  0  0  0
 10 12  1  0  0  0  0
 10 32  1  0  0  0  0
 11 13  1  0  0  0  0
 11 33  1  0  0  0  0
 11 34  1  0  0  0  0
 12 14  1  0  0  0  0
 12 35  1  0  0  0  0
 12 36  1  0  0  0  0
 13 37  1  0  0  0  0
 13 38  1  0  0  0  0
 14 39  1  0  0  0  0
 14 40  1  0  0  0  0
 15 17  1  0  0  0  0
 17 42  1  0  0  0  0
 17 43  1  0  0  0  0
 17 44  1  0  0  0  0
 18 19  1  0  0  0  0
 18 21  1  0  0  0  0
 19 20  2  0  0  0  0
 20 24  1  0  0  0  0
 21 23  2  0  0  0  0
 21 45  1  0  0  0  0
 23 46  1  0  0  0  0
 24 27  2  0  0  0  0
 24 28  1  0  0  0  0
 25 26  2  0  0  0  0
 25 47  1  0  0  0  0
 26 48  1  0  0  0  0
 27 29  1  0  0  0  0
 27 49  1  0  0  0  0
 28 30  2  0  0  0  0
 28 50  1  0  0  0  0
 29 31  2  0  0  0  0
 29 51  1  0  0  0  0
 30 31  1  0  0  0  0
 30 52  1  0  0  0  0
M  END
> <PUBCHEM_COMPOUND_CID>
11407497

> <PUBCHEM_CONFORMER_RMSD>
0.8

> <PUBCHEM_CONFORMER_DIVERSEORDER>
1
24
152
45
42
231
234
17
46
76
198
43
233
186
11
177
106
109
55
170
86
110
173
99
47
223
167
212
9
29
118
171
227
33
153
222
202
133
15
121
180
111
147
211
131
209
20
196
25
128
4
115
144
136
10
122
150
36
22
203
154
70
57
187
210
78
218
225
146
31
90
163
80
226
179
119
85
64
66
175
19
140
75
49
91
28
194
18
117
160
72
220
82
142
164
56
155
221
176
12
13
191
184
137
169
21
2
114
26
205
206
62
188
103
5
16
199
143
107
204
141
159
37
71
53
134
197
68
145
83
120
189
182
48
139
157
84
81
44
162
130
77
213
7
165
208
35
148
32
156
138
192
124
127
87
113
73
27
126
219
98
23
193
100
230
228
168
215
96
123
229
125
172
161
40
174
232
38
135
132
151
39
52
59
67
200
60
166
54
101
69
181
79
74
216
88
3
30
65
178
6
51
224
185
34
235
214
149
158
63
183
190
108
89
217
8
93
201
195
129
41
97
102
61
50
58
116
95
94
14
112
92
104
105
207

> <PUBCHEM_MMFF94_PARTIAL_CHARGES>
38
1 -0.19
10 0.37
13 0.3
14 0.3
15 0.57
16 0.72
17 0.06
18 0.36
19 -0.2
2 -0.57
20 0.17
21 -0.15
22 0.25
23 0.16
24 0.05
25 -0.18
26 -0.07
27 -0.15
28 -0.15
29 -0.15
3 -0.14
30 -0.15
31 0.19
4 -0.66
41 0.4
45 0.15
46 0.15
47 0.15
48 0.15
49 0.15
5 -0.87
50 0.15
51 0.15
52 0.15
6 -0.62
7 -0.62
8 0.33
9 -0.57

> <PUBCHEM_EFFECTIVE_ROTOR_COUNT>
6.2

> <PUBCHEM_PHARMACOPHORE_FEATURES>
10
1 2 acceptor
1 5 donor
1 6 acceptor
3 8 9 22 cation
4 5 6 7 16 cation
5 3 8 22 25 26 rings
5 8 9 19 20 22 rings
6 24 27 28 29 30 31 rings
6 4 10 11 12 13 14 rings
6 6 7 16 18 21 23 rings

> <PUBCHEM_HEAVY_ATOM_COUNT>
31

> <PUBCHEM_ATOM_DEF_STEREO_COUNT>
0

> <PUBCHEM_ATOM_UDEF_STEREO_COUNT>
0

> <PUBCHEM_BOND_DEF_STEREO_COUNT>
0

> <PUBCHEM_BOND_UDEF_STEREO_COUNT>
0

> <PUBCHEM_ISOTOPIC_ATOM_COUNT>
0

> <PUBCHEM_COMPONENT_COUNT>
1

> <PUBCHEM_CACTVS_TAUTO_COUNT>
3

> <PUBCHEM_CONFORMER_ID>
00AE108900000001

> <PUBCHEM_MMFF94_ENERGY>
102.6925

> <PUBCHEM_FEATURE_SELFOVERLAP>
51.124

> <PUBCHEM_SHAPE_FINGERPRINT>
10675989 125 16682020446920309332
10721379 63 14679296944849045591
11112241 14 16630517402265553457
11595378 159 18336254649273708074
11963148 33 17184761732416021563
12104220 1 17968087613298590410
12422481 6 18272363209198608456
12596602 18 17676764293599501642
12633257 1 17775280603492519984
13140716 1 18056771055498208231
133893 2 17904750425619892685
13540713 5 17840589520135496063
13583140 156 18041828541503835806
14395042 24 17986953149936417071
14400156 162 18195257620071391834
14856354 85 18333453162345200954
14955137 171 18128278807548296903
15297060 5 17201107969562696020
15324884 4 17913798045418816687
15403338 16 17967250897191299563
16110190 28 18271805778436203520
16728300 4 18042674010238297170
17980427 23 17489019486904639325
19315092 285 16877948251885021722
19319366 153 17679881563525021788
20600515 1 17988369259748553116
21033648 29 17631745889169326387
21304303 282 17245806179760315981
22182313 1 18056488257059426951
23559900 14 17980221694225289167
23598288 3 18045478855820751354
25019877 29 16917069983787277103
255183 313 17917702505039141398
4015057 19 13190639229867011102
469060 322 18270947003772565495
484985 159 16010978793840493138
6034566 193 11671497966773381603
7064713 232 17846510235447312235
9981440 41 17764843832863194972

> <PUBCHEM_SHAPE_MULTIPOLES>
589.07
12.12
4.15
2.11
11.59
4.59
0.18
-7.02
10.3
-1.81
-2.41
0.6
-1.12
-0.65

> <PUBCHEM_SHAPE_SELFOVERLAP>
1303.175

> <PUBCHEM_SHAPE_VOLUME>
316.4

> <PUBCHEM_COORDINATE_TYPE>
2
5
10

$$$$
