1035509
  -OEChem-10052115163D

 41 44  0     0  0  0  0  0  0999 V2000
   -5.9111    0.2842   -0.0239 O   0  0  0  0  0  0  0  0  0  0  0  0
    0.8674   -1.3115    0.0122 O   0  0  0  0  0  0  0  0  0  0  0  0
   -2.5403    1.1487    0.0029 N   0  0  0  0  0  0  0  0  0  0  0  0
   -1.8514    2.3013    0.0112 N   0  0  0  0  0  0  0  0  0  0  0  0
   -0.5602    1.9889    0.0204 N   0  0  0  0  0  0  0  0  0  0  0  0
   -4.5556   -0.0501   -0.0150 N   0  0  0  0  0  0  0  0  0  0  0  0
    1.9704    0.7238    0.0394 N   0  0  0  0  0  0  0  0  0  0  0  0
   -6.0900    1.6690   -0.0208 N   0  0  0  0  0  0  0  0  0  0  0  0
   -4.5047    3.4731   -0.0046 N   0  0  0  0  0  0  0  0  0  0  0  0
    3.1896    0.1343    0.0324 N   0  0  0  0  0  0  0  0  0  0  0  0
    8.2219   -0.3310   -0.0251 N   0  0  0  0  0  0  0  0  0  0  0  0
   -1.7122    0.0683    0.0059 C   0  0  0  0  0  0  0  0  0  0  0  0
   -2.1438   -1.3082    0.0009 C   0  0  0  0  0  0  0  0  0  0  0  0
   -0.4577    0.6255    0.0174 C   0  0  0  0  0  0  0  0  0  0  0  0
   -3.9456    1.1228   -0.0073 C   0  0  0  0  0  0  0  0  0  0  0  0
   -2.3630   -1.9740    1.2071 C   0  0  0  0  0  0  0  0  0  0  0  0
   -2.3412   -1.9738   -1.2089 C   0  0  0  0  0  0  0  0  0  0  0  0
    0.7997   -0.0569    0.0286 C   0  0  0  0  0  0  0  0  0  0  0  0
   -2.7794   -3.3053    1.2033 C   0  0  0  0  0  0  0  0  0  0  0  0
   -2.7578   -3.3050   -1.2126 C   0  0  0  0  0  0  0  0  0  0  0  0
   -4.8530    2.1626   -0.0108 C   0  0  0  0  0  0  0  0  0  0  0  0
   -2.9768   -3.9706   -0.0065 C   0  0  0  0  0  0  0  0  0  0  0  0
    5.5797    0.5184   -0.0021 C   0  0  0  0  0  0  0  0  0  0  0  0
    4.1769    0.9695    0.0098 C   0  0  0  0  0  0  0  0  0  0  0  0
    6.5933    1.4556   -0.0267 C   0  0  0  0  0  0  0  0  0  0  0  0
    5.8575   -0.8339    0.0112 C   0  0  0  0  0  0  0  0  0  0  0  0
    7.8950    0.9807   -0.0372 C   0  0  0  0  0  0  0  0  0  0  0  0
    7.1921   -1.2064   -0.0012 C   0  0  0  0  0  0  0  0  0  0  0  0
   -2.2132   -1.4696    2.1588 H   0  0  0  0  0  0  0  0  0  0  0  0
   -2.1744   -1.4693   -2.1577 H   0  0  0  0  0  0  0  0  0  0  0  0
   -2.9499   -3.8237    2.1422 H   0  0  0  0  0  0  0  0  0  0  0  0
   -2.9115   -3.8233   -2.1545 H   0  0  0  0  0  0  0  0  0  0  0  0
   -3.3011   -5.0071   -0.0096 H   0  0  0  0  0  0  0  0  0  0  0  0
    1.9311    1.7388    0.0416 H   0  0  0  0  0  0  0  0  0  0  0  0
   -3.5404    3.7910    0.0032 H   0  0  0  0  0  0  0  0  0  0  0  0
   -5.2008    4.2121   -0.0072 H   0  0  0  0  0  0  0  0  0  0  0  0
    4.0135    2.0635   -0.0024 H   0  0  0  0  0  0  0  0  0  0  0  0
    6.3973    2.5219   -0.0375 H   0  0  0  0  0  0  0  0  0  0  0  0
    5.0880   -1.5971    0.0304 H   0  0  0  0  0  0  0  0  0  0  0  0
    8.7361    1.6659   -0.0563 H   0  0  0  0  0  0  0  0  0  0  0  0
    7.4768   -2.2534    0.0081 H   0  0  0  0  0  0  0  0  0  0  0  0
  1  6  1  0  0  0  0
  1  8  1  0  0  0  0
  2 18  2  0  0  0  0
  3  4  1  0  0  0  0
  3 12  1  0  0  0  0
  3 15  1  0  0  0  0
  4  5  2  0  0  0  0
  5 14  1  0  0  0  0
  6 15  2  0  0  0  0
  7 10  1  0  0  0  0
  7 18  1  0  0  0  0
  7 34  1  0  0  0  0
  8 21  2  0  0  0  0
  9 21  1  0  0  0  0
  9 35  1  0  0  0  0
  9 36  1  0  0  0  0
 10 24  2  3  0  0  0
 11 27  2  0  0  0  0
 11 28  1  0  0  0  0
 12 13  1  0  0  0  0
 12 14  2  0  0  0  0
 13 16  2  0  0  0  0
 13 17  1  0  0  0  0
 14 18  1  0  0  0  0
 15 21  1  0  0  0  0
 16 19  1  0  0  0  0
 16 29  1  0  0  0  0
 17 20  2  0  0  0  0
 17 30  1  0  0  0  0
 19 22  2  0  0  0  0
 19 31  1  0  0  0  0
 20 22  1  0  0  0  0
 20 32  1  0  0  0  0
 22 33  1  0  0  0  0
 23 24  1  0  0  0  0
 23 25  2  0  0  0  0
 23 26  1  0  0  0  0
 24 37  1  0  0  0  0
 25 27  1  0  0  0  0
 25 38  1  0  0  0  0
 26 28  2  0  0  0  0
 26 39  1  0  0  0  0
 27 40  1  0  0  0  0
 28 41  1  0  0  0  0
M  END
> <PUBCHEM_COMPOUND_CID>
1035509

> <PUBCHEM_CONFORMER_RMSD>
0.8

> <PUBCHEM_CONFORMER_DIVERSEORDER>
1
8
4
10
9
5
6
2
3
7
11
12

> <PUBCHEM_MMFF94_PARTIAL_CHARGES>
41
1 0.24
10 -0.51
11 -0.62
12 -0.2
13 0.05
14 0.14
15 0.21
16 -0.15
17 -0.15
18 0.72
19 -0.15
2 -0.57
20 -0.15
21 0.37
22 -0.15
23 0.09
24 0.3
25 -0.15
26 -0.15
27 0.16
28 0.16
29 0.15
3 0.65
30 0.15
31 0.15
32 0.15
33 0.15
34 0.37
35 0.4
36 0.4
37 0.06
38 0.15
39 0.15
4 -0.42
40 0.15
41 0.15
5 -0.23
6 -0.41
7 -0.37
8 -0.41
9 -0.88

> <PUBCHEM_EFFECTIVE_ROTOR_COUNT>
6

> <PUBCHEM_PHARMACOPHORE_FEATURES>
11
1 10 acceptor
1 11 acceptor
1 2 acceptor
1 7 donor
1 9 donor
3 3 6 15 cation
3 8 9 21 cation
5 1 6 8 15 21 rings
5 3 4 5 12 14 rings
6 11 23 25 26 27 28 rings
6 13 16 17 19 20 22 rings

> <PUBCHEM_HEAVY_ATOM_COUNT>
28

> <PUBCHEM_ATOM_DEF_STEREO_COUNT>
0

> <PUBCHEM_ATOM_UDEF_STEREO_COUNT>
0

> <PUBCHEM_BOND_DEF_STEREO_COUNT>
0

> <PUBCHEM_BOND_UDEF_STEREO_COUNT>
1

> <PUBCHEM_ISOTOPIC_ATOM_COUNT>
0

> <PUBCHEM_COMPONENT_COUNT>
1

> <PUBCHEM_CACTVS_TAUTO_COUNT>
6

> <PUBCHEM_CONFORMER_ID>
000FCCF500000001

> <PUBCHEM_MMFF94_ENERGY>
66.8452

> <PUBCHEM_FEATURE_SELFOVERLAP>
55.893

> <PUBCHEM_SHAPE_FINGERPRINT>
10050765 1 18194964265009132032
10119406 146 18339084791407570822
10319926 262 18341601655728653176
10411042 1 17978229693073895595
11227688 84 17111856422748229414
11315181 36 17561366201288235688
11524674 6 17346595274845656262
11796584 16 18342177757236145346
12616971 3 16950569913084371628
12643181 29 18411696587235690570
14118638 360 10519992556651402060
14790565 3 18122626050681968289
14844126 61 18339926034046420195
14866123 147 18337674221764674979
15021287 119 17240771700172730933
15042514 8 18337393872269238627
15131766 46 15360546438009375583
15250474 111 18261376846644985698
15849732 13 17822011995515565189
15927050 60 18410852123546202219
16087824 20 18410854383632020567
16114785 44 15625127264373349571
17093844 174 18272929462340368466
17844677 252 18268434701903470280
18927931 339 18340211894385063894
21236236 1 18411138077898878874
220451 1 17748823013098260850
23081809 10 18041278868396639092
23559900 14 18341324595778349608
249057 3 18335139795316206900
335352 9 18411135844394611477
3610482 184 17968394419696675934
4015057 19 17845355791114708009
4073 2 18259989314662709922
4403749 210 17916574475661651310
44802255 64 17386274433764026063
5104073 3 18341046402720564792
5171179 24 17771333451233063561
5364581 5 18054775446046812296
559249 180 18410009948692876679
58260988 114 16443924880706397323
5969126 39 18199742721216219247
59755656 215 18340209588229972126
59755656 520 17167863071334210202
6431902 208 18336827623707691466
6669772 16 18269840818108951063
7226269 152 18272933786971989713

> <PUBCHEM_SHAPE_MULTIPOLES>
519.66
19.49
3.77
0.81
44.69
2.12
0
-5.21
0.21
-7.71
0.01
-0.59
0.61
0

> <PUBCHEM_SHAPE_SELFOVERLAP>
1147.677

> <PUBCHEM_SHAPE_VOLUME>
276

> <PUBCHEM_COORDINATE_TYPE>
2
5
10

$$$$
