24905224
  -OEChem-10052115143D

 41 45  0     0  0  0  0  0  0999 V2000
   -2.1959    0.1839    0.0144 N   0  0  0  0  0  0  0  0  0  0  0  0
   -1.0204    0.8244   -0.1262 N   0  0  0  0  0  0  0  0  0  0  0  0
   -3.0648   -2.0670    0.2176 N   0  0  0  0  0  0  0  0  0  0  0  0
   -1.2824   -3.7311    0.1517 N   0  0  0  0  0  0  0  0  0  0  0  0
    1.0197   -3.1469   -0.0851 N   0  0  0  0  0  0  0  0  0  0  0  0
    5.2751    1.0025   -0.4086 N   0  0  0  0  0  0  0  0  0  0  0  0
    5.6422    1.1287    0.8776 N   0  0  0  0  0  0  0  0  0  0  0  0
   -3.4773    0.9840    0.0840 C   0  0  0  0  0  0  0  0  0  0  0  0
   -3.7607    1.8484   -1.1623 C   0  0  0  0  0  0  0  0  0  0  0  0
   -3.5024    1.9548    1.2781 C   0  0  0  0  0  0  0  0  0  0  0  0
   -3.7816    3.2911   -0.6701 C   0  0  0  0  0  0  0  0  0  0  0  0
   -4.2545    3.1747    0.7682 C   0  0  0  0  0  0  0  0  0  0  0  0
   -2.0734   -1.1723    0.0791 C   0  0  0  0  0  0  0  0  0  0  0  0
   -0.7196   -1.4391   -0.0267 C   0  0  0  0  0  0  0  0  0  0  0  0
   -0.1254   -0.1693   -0.1505 C   0  0  0  0  0  0  0  0  0  0  0  0
    1.2726    0.1320   -0.2923 C   0  0  0  0  0  0  0  0  0  0  0  0
   -0.3332   -2.7745    0.0135 C   0  0  0  0  0  0  0  0  0  0  0  0
    2.0502    0.3432    0.8533 C   0  0  0  0  0  0  0  0  0  0  0  0
    1.8362    0.2094   -1.5672 C   0  0  0  0  0  0  0  0  0  0  0  0
   -2.5709   -3.3237    0.2437 C   0  0  0  0  0  0  0  0  0  0  0  0
    3.4150    0.6356    0.6932 C   0  0  0  0  0  0  0  0  0  0  0  0
    3.9507    0.7067   -0.5878 C   0  0  0  0  0  0  0  0  0  0  0  0
    3.1932    0.4996   -1.7427 C   0  0  0  0  0  0  0  0  0  0  0  0
    4.5078    0.9049    1.5449 C   0  0  0  0  0  0  0  0  0  0  0  0
   -4.2756    0.2397    0.1924 H   0  0  0  0  0  0  0  0  0  0  0  0
   -3.0343    1.7067   -1.9687 H   0  0  0  0  0  0  0  0  0  0  0  0
   -4.7487    1.5875   -1.5614 H   0  0  0  0  0  0  0  0  0  0  0  0
   -3.9944    1.5102    2.1492 H   0  0  0  0  0  0  0  0  0  0  0  0
   -2.4921    2.2466    1.5882 H   0  0  0  0  0  0  0  0  0  0  0  0
   -4.4351    3.9261   -1.2749 H   0  0  0  0  0  0  0  0  0  0  0  0
   -2.7698    3.7125   -0.7022 H   0  0  0  0  0  0  0  0  0  0  0  0
   -4.0353    4.0722    1.3535 H   0  0  0  0  0  0  0  0  0  0  0  0
   -5.3358    2.9965    0.8015 H   0  0  0  0  0  0  0  0  0  0  0  0
    1.6164    0.2835    1.8479 H   0  0  0  0  0  0  0  0  0  0  0  0
    1.2238    0.0431   -2.4518 H   0  0  0  0  0  0  0  0  0  0  0  0
   -3.3048   -4.1149    0.3534 H   0  0  0  0  0  0  0  0  0  0  0  0
    3.6329    0.5598   -2.7320 H   0  0  0  0  0  0  0  0  0  0  0  0
    1.7490   -2.4567   -0.1874 H   0  0  0  0  0  0  0  0  0  0  0  0
    1.2572   -4.1292   -0.0504 H   0  0  0  0  0  0  0  0  0  0  0  0
    4.5229    0.9469    2.6249 H   0  0  0  0  0  0  0  0  0  0  0  0
    5.9817    1.1313   -1.1220 H   0  0  0  0  0  0  0  0  0  0  0  0
  1  2  1  0  0  0  0
  1  8  1  0  0  0  0
  1 13  1  0  0  0  0
  2 15  2  0  0  0  0
  3 13  2  0  0  0  0
  3 20  1  0  0  0  0
  4 17  1  0  0  0  0
  4 20  2  0  0  0  0
  5 17  1  0  0  0  0
  5 38  1  0  0  0  0
  5 39  1  0  0  0  0
  6  7  1  0  0  0  0
  6 22  1  0  0  0  0
  6 41  1  0  0  0  0
  7 24  2  0  0  0  0
  8  9  1  0  0  0  0
  8 10  1  0  0  0  0
  8 25  1  0  0  0  0
  9 11  1  0  0  0  0
  9 26  1  0  0  0  0
  9 27  1  0  0  0  0
 10 12  1  0  0  0  0
 10 28  1  0  0  0  0
 10 29  1  0  0  0  0
 11 12  1  0  0  0  0
 11 30  1  0  0  0  0
 11 31  1  0  0  0  0
 12 32  1  0  0  0  0
 12 33  1  0  0  0  0
 13 14  1  0  0  0  0
 14 15  1  0  0  0  0
 14 17  2  0  0  0  0
 15 16  1  0  0  0  0
 16 18  2  0  0  0  0
 16 19  1  0  0  0  0
 18 21  1  0  0  0  0
 18 34  1  0  0  0  0
 19 23  2  0  0  0  0
 19 35  1  0  0  0  0
 20 36  1  0  0  0  0
 21 22  2  0  0  0  0
 21 24  1  0  0  0  0
 22 23  1  0  0  0  0
 23 37  1  0  0  0  0
 24 40  1  0  0  0  0
M  END
> <PUBCHEM_COMPOUND_CID>
24905224

> <PUBCHEM_CONFORMER_RMSD>
0.6

> <PUBCHEM_CONFORMER_DIVERSEORDER>
2
4
16
8
15
7
12
10
3
11
9
5
13
6
14
1

> <PUBCHEM_MMFF94_PARTIAL_CHARGES>
26
1 0.31
13 0.11
15 0.23
16 0.05
17 0.41
18 -0.15
19 -0.15
2 -0.71
20 0.47
22 -0.15
23 -0.15
24 0.14
3 -0.57
34 0.15
35 0.15
36 0.15
37 0.15
38 0.4
39 0.4
4 -0.62
40 0.15
41 0.27
5 -0.9
6 0.3
7 -0.71
8 0.26

> <PUBCHEM_EFFECTIVE_ROTOR_COUNT>
3

> <PUBCHEM_PHARMACOPHORE_FEATURES>
12
1 2 acceptor
1 5 cation
1 5 donor
1 6 donor
1 7 acceptor
3 1 3 13 cation
3 3 4 20 cation
5 1 2 13 14 15 rings
5 6 7 21 22 24 rings
5 8 9 10 11 12 rings
6 16 18 19 21 22 23 rings
6 3 4 13 14 17 20 rings

> <PUBCHEM_HEAVY_ATOM_COUNT>
24

> <PUBCHEM_ATOM_DEF_STEREO_COUNT>
0

> <PUBCHEM_ATOM_UDEF_STEREO_COUNT>
0

> <PUBCHEM_BOND_DEF_STEREO_COUNT>
0

> <PUBCHEM_BOND_UDEF_STEREO_COUNT>
0

> <PUBCHEM_ISOTOPIC_ATOM_COUNT>
0

> <PUBCHEM_COMPONENT_COUNT>
1

> <PUBCHEM_CACTVS_TAUTO_COUNT>
14

> <PUBCHEM_CONFORMER_ID>
017C060800000002

> <PUBCHEM_MMFF94_ENERGY>
53.1766

> <PUBCHEM_FEATURE_SELFOVERLAP>
61.268

> <PUBCHEM_SHAPE_FINGERPRINT>
10319926 262 18270101527424616352
10411042 1 17762055845249124699
105312 117 18409729530236098421
11049842 53 18190203242522342942
11582403 64 17487022666630634628
11725454 13 17774424032463647940
12107183 9 18190448382281035290
12173636 292 18410293605760776951
12236239 1 17532082972662152798
12390115 104 18342187643565065273
12422481 6 17678725749038950264
12500047 106 18411979178624147742
12623949 98 12902136153224970616
12788726 201 17973740351903919958
12930653 34 18411701001766199718
13140716 1 18192435165153561131
13583140 156 17988637554035036930
13878862 14 17397824575992361125
13965767 371 18042401327048656252
14178000 22 18409444761198494853
14178342 30 18335423495138535846
14508225 48 17909536595910444471
15042514 8 18120098535638473355
15230672 131 18335988555008089718
15842332 3 17604723312125900548
16752209 62 18337102496528163059
16988056 13 16677235380742158749
1741750 31 18411420587851626257
17913733 40 18197236758412560993
17980427 26 18053370003597212231
19784866 34 18269837502357131937
20510252 161 18270687596385138211
20554085 129 18127665198434839089
21033648 29 18339647737134706880
21033650 10 18189921845002287668
21065201 7 18340777034935037470
21279426 13 18200605696563516854
212916 134 18411972542710115832
21304303 282 18196062561387621127
23557571 272 18200604699598230524
23559900 14 18272101470250380454
283562 15 18339075003841637291
3091708 16 9125131205990406779
469060 322 18336846268239358217
474 4 18123744250007633993
495365 180 18048315540360397637
5265222 85 18196948875887970054
633830 44 17843406185310531197
7808743 9 18336555992373965380
84936 182 17983292621521977393
9849439 229 18194965145683409569
9862522 239 17894902984801997709
9981440 41 18335984156348986737

> <PUBCHEM_SHAPE_MULTIPOLES>
459.04
9.93
4.04
1.24
7.65
3.26
0.15
-9.53
-1.44
-5.73
-0.36
0.81
-0.66
0.38

> <PUBCHEM_SHAPE_SELFOVERLAP>
1035.912

> <PUBCHEM_SHAPE_VOLUME>
242.2

> <PUBCHEM_COORDINATE_TYPE>
2
5
10

$$$$
