49830465
  -OEChem-10052120443D

 56 60  0     0  0  0  0  0  0999 V2000
    4.7358   -1.9723    0.4572 O   0  0  0  0  0  0  0  0  0  0  0  0
    2.8118    3.6057    0.6870 O   0  0  0  0  0  0  0  0  0  0  0  0
    7.0955    2.2717   -0.9432 O   0  0  0  0  0  0  0  0  0  0  0  0
   -4.4287   -0.2141   -1.0341 N   0  0  0  0  0  0  0  0  0  0  0  0
    1.4995   -4.7123    0.4853 N   0  0  0  0  0  0  0  0  0  0  0  0
    2.4607   -1.4241    0.1998 N   0  0  0  0  0  0  0  0  0  0  0  0
    2.4763   -3.7901    0.4846 N   0  0  0  0  0  0  0  0  0  0  0  0
   -4.3682   -2.0593    0.0700 N   0  0  0  0  0  0  0  0  0  0  0  0
   -5.1748   -1.0842   -0.3343 N   0  0  0  0  0  0  0  0  0  0  0  0
    0.4275   -2.8311    0.1382 C   0  0  0  0  0  0  0  0  0  0  0  0
    0.2456   -4.2020    0.2820 C   0  0  0  0  0  0  0  0  0  0  0  0
   -1.9547   -2.6040   -0.1582 C   0  0  0  0  0  0  0  0  0  0  0  0
   -0.6890   -2.0087   -0.0865 C   0  0  0  0  0  0  0  0  0  0  0  0
    1.8204   -2.6468    0.2736 C   0  0  0  0  0  0  0  0  0  0  0  0
   -3.1106   -1.7819   -0.3891 C   0  0  0  0  0  0  0  0  0  0  0  0
   -1.0071   -4.8156    0.2142 C   0  0  0  0  0  0  0  0  0  0  0  0
   -2.1088   -3.9837   -0.0103 C   0  0  0  0  0  0  0  0  0  0  0  0
   -5.0222    0.9649   -1.6113 C   0  0  0  0  0  0  0  0  0  0  0  0
   -3.1272   -0.6066   -1.0973 C   0  0  0  0  0  0  0  0  0  0  0  0
   -5.2634    2.0652   -0.6078 C   0  0  0  0  0  0  0  0  0  0  0  0
    3.8402   -1.1510    0.2916 C   0  0  0  0  0  0  0  0  0  0  0  0
    4.2283    0.2763    0.1451 C   0  0  0  0  0  0  0  0  0  0  0  0
   -6.3552    1.9932    0.2572 C   0  0  0  0  0  0  0  0  0  0  0  0
   -4.3945    3.1546   -0.5451 C   0  0  0  0  0  0  0  0  0  0  0  0
    5.4948    0.6084   -0.3360 C   0  0  0  0  0  0  0  0  0  0  0  0
    3.3267    1.2836    0.4888 C   0  0  0  0  0  0  0  0  0  0  0  0
    3.6916    2.6229    0.3516 C   0  0  0  0  0  0  0  0  0  0  0  0
    5.8597    1.9477   -0.4731 C   0  0  0  0  0  0  0  0  0  0  0  0
   -6.5781    3.0107    1.1849 C   0  0  0  0  0  0  0  0  0  0  0  0
   -4.6174    4.1720    0.3827 C   0  0  0  0  0  0  0  0  0  0  0  0
    4.9581    2.9548   -0.1293 C   0  0  0  0  0  0  0  0  0  0  0  0
   -5.7093    4.1001    1.2478 C   0  0  0  0  0  0  0  0  0  0  0  0
    1.5341    3.1953    1.1720 C   0  0  0  0  0  0  0  0  0  0  0  0
    7.4024    3.6604   -1.0581 C   0  0  0  0  0  0  0  0  0  0  0  0
   -0.5512   -0.9362   -0.1883 H   0  0  0  0  0  0  0  0  0  0  0  0
   -1.1244   -5.8874    0.3286 H   0  0  0  0  0  0  0  0  0  0  0  0
   -3.0934   -4.4438   -0.0706 H   0  0  0  0  0  0  0  0  0  0  0  0
    1.7567   -5.6806    0.6307 H   0  0  0  0  0  0  0  0  0  0  0  0
   -5.9665    0.6687   -2.0847 H   0  0  0  0  0  0  0  0  0  0  0  0
   -4.3675    1.3120   -2.4199 H   0  0  0  0  0  0  0  0  0  0  0  0
   -2.3715   -0.0379   -1.6220 H   0  0  0  0  0  0  0  0  0  0  0  0
    1.8287   -0.6547    0.0002 H   0  0  0  0  0  0  0  0  0  0  0  0
   -7.0435    1.1535    0.2161 H   0  0  0  0  0  0  0  0  0  0  0  0
   -3.5388    3.2220   -1.2117 H   0  0  0  0  0  0  0  0  0  0  0  0
    6.2066   -0.1655   -0.6130 H   0  0  0  0  0  0  0  0  0  0  0  0
    2.3683    1.0015    0.9053 H   0  0  0  0  0  0  0  0  0  0  0  0
   -7.4290    2.9554    1.8577 H   0  0  0  0  0  0  0  0  0  0  0  0
   -3.9406    5.0199    0.4321 H   0  0  0  0  0  0  0  0  0  0  0  0
    5.1821    4.0132   -0.2134 H   0  0  0  0  0  0  0  0  0  0  0  0
   -5.8829    4.8923    1.9701 H   0  0  0  0  0  0  0  0  0  0  0  0
    0.9762    2.6317    0.4163 H   0  0  0  0  0  0  0  0  0  0  0  0
    1.6183    2.6533    2.1202 H   0  0  0  0  0  0  0  0  0  0  0  0
    0.9602    4.1052    1.3767 H   0  0  0  0  0  0  0  0  0  0  0  0
    6.7486    4.1586   -1.7821 H   0  0  0  0  0  0  0  0  0  0  0  0
    7.3955    4.1564   -0.0816 H   0  0  0  0  0  0  0  0  0  0  0  0
    8.4235    3.7344   -1.4464 H   0  0  0  0  0  0  0  0  0  0  0  0
  1 21  2  0  0  0  0
  2 27  1  0  0  0  0
  2 33  1  0  0  0  0
  3 28  1  0  0  0  0
  3 34  1  0  0  0  0
  4  9  1  0  0  0  0
  4 18  1  0  0  0  0
  4 19  1  0  0  0  0
  5  7  1  0  0  0  0
  5 11  1  0  0  0  0
  5 38  1  0  0  0  0
  6 14  1  0  0  0  0
  6 21  1  0  0  0  0
  6 42  1  0  0  0  0
  7 14  2  0  0  0  0
  8  9  2  0  0  0  0
  8 15  1  0  0  0  0
 10 11  2  0  0  0  0
 10 13  1  0  0  0  0
 10 14  1  0  0  0  0
 11 16  1  0  0  0  0
 12 13  2  0  0  0  0
 12 15  1  0  0  0  0
 12 17  1  0  0  0  0
 13 35  1  0  0  0  0
 15 19  2  0  0  0  0
 16 17  2  0  0  0  0
 16 36  1  0  0  0  0
 17 37  1  0  0  0  0
 18 20  1  0  0  0  0
 18 39  1  0  0  0  0
 18 40  1  0  0  0  0
 19 41  1  0  0  0  0
 20 23  2  0  0  0  0
 20 24  1  0  0  0  0
 21 22  1  0  0  0  0
 22 25  2  0  0  0  0
 22 26  1  0  0  0  0
 23 29  1  0  0  0  0
 23 43  1  0  0  0  0
 24 30  2  0  0  0  0
 24 44  1  0  0  0  0
 25 28  1  0  0  0  0
 25 45  1  0  0  0  0
 26 27  2  0  0  0  0
 26 46  1  0  0  0  0
 27 31  1  0  0  0  0
 28 31  2  0  0  0  0
 29 32  2  0  0  0  0
 29 47  1  0  0  0  0
 30 32  1  0  0  0  0
 30 48  1  0  0  0  0
 31 49  1  0  0  0  0
 32 50  1  0  0  0  0
 33 51  1  0  0  0  0
 33 52  1  0  0  0  0
 33 53  1  0  0  0  0
 34 54  1  0  0  0  0
 34 55  1  0  0  0  0
 34 56  1  0  0  0  0
M  END
> <PUBCHEM_COMPOUND_CID>
49830465

> <PUBCHEM_CONFORMER_RMSD>
1

> <PUBCHEM_CONFORMER_DIVERSEORDER>
1
64
98
82
49
78
54
130
58
19
121
84
70
59
87
116
60
57
34
92
18
104
36
99
41
63
129
80
21
40
62
72
56
103
61
118
85
10
68
46
102
50
106
131
93
133
107
76
96
37
48
134
20
113
33
86
95
128
115
105
97
122
94
12
132
119
17
110
47
120
109
32
90
6
79
44
29
101
35
27
66
65
124
15
30
28
125
55
5
38
108
3
89
43
74
114
4
45
71
83
13
25
126
127
67
26
42
117
53
23
81
31
22
123
8
69
75
7
16
112
77
111
51
11
52
100
14
91
9
2
39
73
88
24

> <PUBCHEM_MMFF94_PARTIAL_CHARGES>
47
1 -0.57
11 -0.15
12 0.05
13 -0.15
14 0.35
15 0.17
16 -0.15
17 -0.15
18 0.4
19 -0.3
2 -0.36
20 -0.14
21 0.54
22 0.09
23 -0.15
24 -0.15
25 -0.15
26 -0.15
27 0.08
28 0.08
29 -0.15
3 -0.36
30 -0.15
31 -0.15
32 -0.15
33 0.28
34 0.28
35 0.15
36 0.15
37 0.15
38 0.27
4 0.31
41 0.15
42 0.37
43 0.15
44 0.15
45 0.15
46 0.15
47 0.15
48 0.15
49 0.15
5 0.3
50 0.15
6 -0.49
7 -0.71
8 -0.23
9 -0.42

> <PUBCHEM_EFFECTIVE_ROTOR_COUNT>
8

> <PUBCHEM_PHARMACOPHORE_FEATURES>
10
1 1 acceptor
1 2 acceptor
1 3 acceptor
1 5 donor
1 6 donor
5 4 8 9 15 19 rings
5 5 7 10 11 14 rings
6 10 11 12 13 16 17 rings
6 20 23 24 29 30 32 rings
6 22 25 26 27 28 31 rings

> <PUBCHEM_HEAVY_ATOM_COUNT>
34

> <PUBCHEM_ATOM_DEF_STEREO_COUNT>
0

> <PUBCHEM_ATOM_UDEF_STEREO_COUNT>
0

> <PUBCHEM_BOND_DEF_STEREO_COUNT>
0

> <PUBCHEM_BOND_UDEF_STEREO_COUNT>
0

> <PUBCHEM_ISOTOPIC_ATOM_COUNT>
0

> <PUBCHEM_COMPONENT_COUNT>
1

> <PUBCHEM_CACTVS_TAUTO_COUNT>
24

> <PUBCHEM_CONFORMER_ID>
02F85A4100000001

> <PUBCHEM_MMFF94_ENERGY>
100.8018

> <PUBCHEM_FEATURE_SELFOVERLAP>
50.84

> <PUBCHEM_SHAPE_FINGERPRINT>
100830 2 18340772529203627265
10439779 11 18338784737040251408
10675989 125 18337954468364563714
10917259 69 18410015443137729316
11017883 126 16758893919062731993
11059048 146 18411974784804487009
11408170 253 17975146649305148660
11479125 193 18338241475037509057
11828042 163 18269001895569176870
11973864 155 18341629108907116145
1200032 147 18114186332940164416
12107183 9 18188750813759187834
12925494 130 18410567371719609881
13944108 23 18195809570438578260
14251764 75 18338801113549804799
14664723 55 18187933927700103836
14790565 3 18410853227151603151
14849402 71 18120936096809952427
15082195 135 18196063618192279135
15150948 74 18409161112853262517
15320291 9 17835222820812939429
15320295 198 17469041056514239261
15320467 1 18266455593225768921
15351339 4 18341322349441609425
15400415 2 18410008823354104980
15980000 95 17688583871763660298
16067689 134 18198353857378408801
16112460 7 18341333292844524249
16728433 281 18191035693469204148
16990350 14 18337948983337665152
16992727 255 18263650731338658316
17627616 140 18340765923786486857
19302320 297 18122061996948514499
21133410 58 16390711416456588665
21133410 62 18339374010752927745
21859007 373 17911229848465556144
22122407 14 18338519642884288795
23569914 152 17700436701921113798
4058900 60 18334294275353764410
4173938 77 18052830147946476893
437795 171 18189327962167958757
5104073 3 17970066643903113275
5223283 242 17412204052930699951
53794403 172 18267026042107478767
54324442 115 18125438858881296369
550186 72 18266174127540755919
5951187 136 18056768628277502655

> <PUBCHEM_SHAPE_MULTIPOLES>
652.21
18.4
8.29
1.03
3
3.51
0.1
-27.2
2.54
-1.16
-1.72
-0.7
-0.71
-2.86

> <PUBCHEM_SHAPE_SELFOVERLAP>
1444.406

> <PUBCHEM_SHAPE_VOLUME>
351

> <PUBCHEM_COORDINATE_TYPE>
2
5
10

$$$$
