11590078
  -OEChem-10052120443D

 52 56  0     0  0  0  0  0  0999 V2000
   -3.2735    1.7583   -1.4260 S   0  0  0  0  0  0  0  0  0  0  0  0
   -8.1911   -0.5588    0.4780 O   0  0  0  0  0  0  0  0  0  0  0  0
  -10.0990   -1.4553   -1.3623 O   0  0  0  0  0  0  0  0  0  0  0  0
    1.4368   -0.1745    1.9327 N   0  0  0  0  0  0  0  0  0  0  0  0
    0.0889   -0.0656    1.8075 N   0  0  0  0  0  0  0  0  0  0  0  0
    7.5793   -0.9654    0.1445 N   0  0  0  0  0  0  0  0  0  0  0  0
    8.2322   -1.0725   -1.0078 N   0  0  0  0  0  0  0  0  0  0  0  0
    7.9776   -3.0873    0.0449 N   0  0  0  0  0  0  0  0  0  0  0  0
    1.7181    1.4812   -1.2051 C   0  0  0  0  0  0  0  0  0  0  0  0
    1.1387    0.8530    0.0152 C   0  0  0  0  0  0  0  0  0  0  0  0
    3.2012    1.2485   -0.8564 C   0  0  0  0  0  0  0  0  0  0  0  0
    3.3902    0.5832    0.3876 C   0  0  0  0  0  0  0  0  0  0  0  0
    2.0776    0.3648    0.8801 C   0  0  0  0  0  0  0  0  0  0  0  0
   -0.0802    0.5651    0.6297 C   0  0  0  0  0  0  0  0  0  0  0  0
    4.6358    0.2775    0.8880 C   0  0  0  0  0  0  0  0  0  0  0  0
    4.2984    1.6147   -1.6154 C   0  0  0  0  0  0  0  0  0  0  0  0
    5.7374    0.6511    0.1150 C   0  0  0  0  0  0  0  0  0  0  0  0
    5.5715    1.3107   -1.1200 C   0  0  0  0  0  0  0  0  0  0  0  0
   -1.3787    0.8945    0.0852 C   0  0  0  0  0  0  0  0  0  0  0  0
    7.1155    0.3474    0.6032 C   0  0  0  0  0  0  0  0  0  0  0  0
   -2.5989    0.5780    0.7537 C   0  0  0  0  0  0  0  0  0  0  0  0
   -1.6042    1.5389   -1.1141 C   0  0  0  0  0  0  0  0  0  0  0  0
   -3.7042    0.9911    0.0431 C   0  0  0  0  0  0  0  0  0  0  0  0
    7.4237   -2.1447    0.7719 C   0  0  0  0  0  0  0  0  0  0  0  0
    8.4552   -2.3883   -1.0265 C   0  0  0  0  0  0  0  0  0  0  0  0
   -5.0546    0.8115    0.4596 C   0  0  0  0  0  0  0  0  0  0  0  0
   -6.2003    0.6585    0.8127 C   0  0  0  0  0  0  0  0  0  0  0  0
   -7.5864    0.4755    1.2412 C   0  0  0  0  0  0  0  0  0  0  0  0
   -9.5429   -0.7702    0.8631 C   0  0  0  0  0  0  0  0  0  0  0  0
  -10.1381   -1.8654   -0.0008 C   0  0  0  0  0  0  0  0  0  0  0  0
  -10.6259   -2.4558   -2.2225 C   0  0  0  0  0  0  0  0  0  0  0  0
    1.4996    2.5500   -1.2667 H   0  0  0  0  0  0  0  0  0  0  0  0
    1.4477    0.9447   -2.1178 H   0  0  0  0  0  0  0  0  0  0  0  0
    4.7529   -0.2306    1.8388 H   0  0  0  0  0  0  0  0  0  0  0  0
    4.1822    2.1220   -2.5666 H   0  0  0  0  0  0  0  0  0  0  0  0
    1.8137   -0.6252    2.7579 H   0  0  0  0  0  0  0  0  0  0  0  0
    6.4423    1.5929   -1.7079 H   0  0  0  0  0  0  0  0  0  0  0  0
    7.8422    1.0935    0.2594 H   0  0  0  0  0  0  0  0  0  0  0  0
    7.1608    0.3431    1.6990 H   0  0  0  0  0  0  0  0  0  0  0  0
   -2.6701    0.0719    1.7100 H   0  0  0  0  0  0  0  0  0  0  0  0
   -0.8917    1.9020   -1.8397 H   0  0  0  0  0  0  0  0  0  0  0  0
    6.9218   -2.2752    1.7203 H   0  0  0  0  0  0  0  0  0  0  0  0
    8.9825   -2.8524   -1.8466 H   0  0  0  0  0  0  0  0  0  0  0  0
   -7.6141    0.2106    2.3043 H   0  0  0  0  0  0  0  0  0  0  0  0
   -8.1435    1.4089    1.1010 H   0  0  0  0  0  0  0  0  0  0  0  0
   -9.5884   -1.0612    1.9183 H   0  0  0  0  0  0  0  0  0  0  0  0
  -10.1044    0.1602    0.7181 H   0  0  0  0  0  0  0  0  0  0  0  0
  -11.1739   -2.0576    0.2997 H   0  0  0  0  0  0  0  0  0  0  0  0
   -9.5508   -2.7843    0.1102 H   0  0  0  0  0  0  0  0  0  0  0  0
  -10.0342   -3.3736   -2.1517 H   0  0  0  0  0  0  0  0  0  0  0  0
  -10.5754   -2.0872   -3.2506 H   0  0  0  0  0  0  0  0  0  0  0  0
  -11.6722   -2.6615   -1.9764 H   0  0  0  0  0  0  0  0  0  0  0  0
  1 22  1  0  0  0  0
  1 23  1  0  0  0  0
  2 28  1  0  0  0  0
  2 29  1  0  0  0  0
  3 30  1  0  0  0  0
  3 31  1  0  0  0  0
  4  5  1  0  0  0  0
  4 13  1  0  0  0  0
  4 36  1  0  0  0  0
  5 14  2  0  0  0  0
  6  7  1  0  0  0  0
  6 20  1  0  0  0  0
  6 24  1  0  0  0  0
  7 25  2  0  0  0  0
  8 24  2  0  0  0  0
  8 25  1  0  0  0  0
  9 10  1  0  0  0  0
  9 11  1  0  0  0  0
  9 32  1  0  0  0  0
  9 33  1  0  0  0  0
 10 13  2  0  0  0  0
 10 14  1  0  0  0  0
 11 12  2  0  0  0  0
 11 16  1  0  0  0  0
 12 13  1  0  0  0  0
 12 15  1  0  0  0  0
 14 19  1  0  0  0  0
 15 17  2  0  0  0  0
 15 34  1  0  0  0  0
 16 18  2  0  0  0  0
 16 35  1  0  0  0  0
 17 18  1  0  0  0  0
 17 20  1  0  0  0  0
 18 37  1  0  0  0  0
 19 21  1  0  0  0  0
 19 22  2  0  0  0  0
 20 38  1  0  0  0  0
 20 39  1  0  0  0  0
 21 23  2  0  0  0  0
 21 40  1  0  0  0  0
 22 41  1  0  0  0  0
 23 26  1  0  0  0  0
 24 42  1  0  0  0  0
 25 43  1  0  0  0  0
 26 27  3  0  0  0  0
 27 28  1  0  0  0  0
 28 44  1  0  0  0  0
 28 45  1  0  0  0  0
 29 30  1  0  0  0  0
 29 46  1  0  0  0  0
 29 47  1  0  0  0  0
 30 48  1  0  0  0  0
 30 49  1  0  0  0  0
 31 50  1  0  0  0  0
 31 51  1  0  0  0  0
 31 52  1  0  0  0  0
M  END
> <PUBCHEM_COMPOUND_CID>
11590078

> <PUBCHEM_CONFORMER_RMSD>
1

> <PUBCHEM_CONFORMER_DIVERSEORDER>
1
46
29
84
24
32
45
83
90
69
33
48
55
96
35
81
72
3
43
56
34
74
58
60
95
64
14
86
77
54
17
85
82
15
44
49
23
51
50
70
40
76
6
25
97
47
79
9
75
59
52
5
89
68
65
8
26
27
53
21
66
61
38
57
41
36
22
91
87
98
42
80
4
88
18
67
12
28
73
62
19
94
93
13
20
37
30
2
92
16
39
31
7
78
71
10
11
63

> <PUBCHEM_MMFF94_PARTIAL_CHARGES>
38
1 -0.08
10 -0.18
11 -0.14
12 0.05
13 -0.2
14 0.29
15 -0.15
16 -0.15
17 -0.14
18 -0.15
2 -0.56
20 0.4
21 -0.15
22 -0.11
23 0.06
24 0.04
25 0.37
26 -0.02
27 -0.2
28 0.48
29 0.28
3 -0.56
30 0.28
31 0.28
34 0.15
35 0.15
36 0.27
37 0.15
4 0.3
40 0.15
41 0.15
42 0.15
43 0.15
5 -0.71
6 0.31
7 -0.71
8 -0.57
9 0.32

> <PUBCHEM_EFFECTIVE_ROTOR_COUNT>
7.2

> <PUBCHEM_PHARMACOPHORE_FEATURES>
11
1 2 acceptor
1 3 acceptor
1 4 donor
1 5 acceptor
3 6 8 24 cation
3 7 8 25 cation
5 1 19 21 22 23 rings
5 4 5 10 13 14 rings
5 6 7 8 24 25 rings
5 9 10 11 12 13 rings
6 11 12 15 16 17 18 rings

> <PUBCHEM_HEAVY_ATOM_COUNT>
31

> <PUBCHEM_ATOM_DEF_STEREO_COUNT>
0

> <PUBCHEM_ATOM_UDEF_STEREO_COUNT>
0

> <PUBCHEM_BOND_DEF_STEREO_COUNT>
0

> <PUBCHEM_BOND_UDEF_STEREO_COUNT>
0

> <PUBCHEM_ISOTOPIC_ATOM_COUNT>
0

> <PUBCHEM_COMPONENT_COUNT>
1

> <PUBCHEM_CACTVS_TAUTO_COUNT>
2

> <PUBCHEM_CONFORMER_ID>
00B0D9BE00000001

> <PUBCHEM_MMFF94_ENERGY>
72.9498

> <PUBCHEM_FEATURE_SELFOVERLAP>
58.941

> <PUBCHEM_SHAPE_FINGERPRINT>
10 15 13685999983932452042
10100884 174 17130416000039663927
10429389 143 11458427938180829583
10533779 47 14764074403146964886
11181472 205 11602804788591568325
11386260 185 16588316020114750548
11408170 108 18336553742343780899
11409948 41 18114457869057454730
11456790 92 14189577447214518955
11534866 41 17060342907349159782
11607047 141 9943263519342908812
11607047 74 18190748729324010812
11638347 137 18131355189442901842
12089408 11 18341899602047732089
12498461 61 17847056688648368391
12539745 222 18131073689356589577
13383665 225 13262672574556645239
14117953 113 16008750229899846215
14428016 248 10881398734561502159
14617042 71 10591747793450147546
14747282 305 18340762628992988678
150020 25 16443063924610685233
15183329 4 17313393258783683072
15198563 99 16298378047124357629
15247644 1 18272371979939253351
16728433 281 13768744809349326575
1754911 235 17095240337595042775
19315958 150 11527952248532946420
2026 5 18265333907172824390
21095086 128 18412546509581380737
21267235 1 17676213450442079600
21362267 20 17917426567125245111
21792934 111 13901911055992180312
23569917 315 18337400356795020090
23569943 247 17610620813910486450
23576562 1 15214169490127791886
3178227 256 14333136299702301797
335352 9 17312829281784452032
4339292 15 17703783740081091773
4625314 4 18113621205433295705
6081469 158 14996275925282719329

> <PUBCHEM_SHAPE_MULTIPOLES>
605.17
36.07
2.32
1.62
63.56
1.71
-0.37
34.17
-8.9
-1.76
-1.16
1.81
0.22
-2.27

> <PUBCHEM_SHAPE_SELFOVERLAP>
1316.581

> <PUBCHEM_SHAPE_VOLUME>
334

> <PUBCHEM_COORDINATE_TYPE>
2
5
10

$$$$
