49830903
  -OEChem-10052115173D

 27 29  0     0  0  0  0  0  0999 V2000
   -5.9295    0.9933    0.1860 Br  0  0  0  0  0  0  0  0  0  0  0  0
   -0.4591   -1.0870   -0.2038 N   0  0  0  0  0  0  0  0  0  0  0  0
   -2.8096   -1.6650   -0.3151 N   0  0  0  0  0  0  0  0  0  0  0  0
   -3.1431    1.1492    0.2171 N   0  0  0  0  0  0  0  0  0  0  0  0
    0.2640    0.0600    0.0137 C   0  0  0  0  0  0  0  0  0  0  0  0
    1.7071    0.0619    0.0128 C   0  0  0  0  0  0  0  0  0  0  0  0
   -0.6213    1.1001    0.2099 C   0  0  0  0  0  0  0  0  0  0  0  0
   -1.7949   -0.7969   -0.1501 C   0  0  0  0  0  0  0  0  0  0  0  0
   -1.9246    0.5616    0.1069 C   0  0  0  0  0  0  0  0  0  0  0  0
    2.4027    1.2027   -0.3882 C   0  0  0  0  0  0  0  0  0  0  0  0
    2.4066   -1.0765    0.4132 C   0  0  0  0  0  0  0  0  0  0  0  0
    4.4968    0.0663    0.0113 C   0  0  0  0  0  0  0  0  0  0  0  0
    3.7974    1.2049   -0.3889 C   0  0  0  0  0  0  0  0  0  0  0  0
    3.8014   -1.0744    0.4125 C   0  0  0  0  0  0  0  0  0  0  0  0
    5.9883    0.0687    0.0102 C   0  0  0  0  0  0  0  0  0  0  0  0
   -4.0106   -1.0598   -0.2015 C   0  0  0  0  0  0  0  0  0  0  0  0
   -4.1714    0.2908    0.0540 C   0  0  0  0  0  0  0  0  0  0  0  0
   -0.0779   -2.0044   -0.3908 H   0  0  0  0  0  0  0  0  0  0  0  0
   -0.3654    2.1320    0.4097 H   0  0  0  0  0  0  0  0  0  0  0  0
    1.8835    2.1013   -0.7120 H   0  0  0  0  0  0  0  0  0  0  0  0
    1.8961   -1.9771    0.7450 H   0  0  0  0  0  0  0  0  0  0  0  0
    4.3281    2.0996   -0.7034 H   0  0  0  0  0  0  0  0  0  0  0  0
    4.3354   -1.9657    0.7311 H   0  0  0  0  0  0  0  0  0  0  0  0
    6.3640    0.4119    0.9792 H   0  0  0  0  0  0  0  0  0  0  0  0
    6.3850   -0.9334   -0.1853 H   0  0  0  0  0  0  0  0  0  0  0  0
    6.3818    0.7268   -0.7720 H   0  0  0  0  0  0  0  0  0  0  0  0
   -4.8605   -1.7235   -0.3277 H   0  0  0  0  0  0  0  0  0  0  0  0
  1 17  1  0  0  0  0
  2  5  1  0  0  0  0
  2  8  1  0  0  0  0
  2 18  1  0  0  0  0
  3  8  2  0  0  0  0
  3 16  1  0  0  0  0
  4  9  2  0  0  0  0
  4 17  1  0  0  0  0
  5  6  1  0  0  0  0
  5  7  2  0  0  0  0
  6 10  2  0  0  0  0
  6 11  1  0  0  0  0
  7  9  1  0  0  0  0
  7 19  1  0  0  0  0
  8  9  1  0  0  0  0
 10 13  1  0  0  0  0
 10 20  1  0  0  0  0
 11 14  2  0  0  0  0
 11 21  1  0  0  0  0
 12 13  2  0  0  0  0
 12 14  1  0  0  0  0
 12 15  1  0  0  0  0
 13 22  1  0  0  0  0
 14 23  1  0  0  0  0
 15 24  1  0  0  0  0
 15 25  1  0  0  0  0
 15 26  1  0  0  0  0
 16 17  2  0  0  0  0
 16 27  1  0  0  0  0
M  END
> <PUBCHEM_COMPOUND_CID>
49830903

> <PUBCHEM_CONFORMER_RMSD>
0.6

> <PUBCHEM_CONFORMER_DIVERSEORDER>
1
2

> <PUBCHEM_MMFF94_PARTIAL_CHARGES>
24
1 -0.11
10 -0.15
11 -0.15
12 -0.14
13 -0.15
14 -0.15
15 0.14
16 0.16
17 0.42
18 0.27
19 0.15
2 0.03
20 0.15
21 0.15
22 0.15
23 0.15
27 0.15
3 -0.57
4 -0.57
5 -0.2
6 0.05
7 -0.15
8 0.11
9 0.26

> <PUBCHEM_EFFECTIVE_ROTOR_COUNT>
1

> <PUBCHEM_PHARMACOPHORE_FEATURES>
7
1 1 hydrophobe
1 2 donor
1 4 acceptor
3 2 3 8 cation
5 2 5 7 8 9 rings
6 3 4 8 9 16 17 rings
6 6 10 11 12 13 14 rings

> <PUBCHEM_HEAVY_ATOM_COUNT>
17

> <PUBCHEM_ATOM_DEF_STEREO_COUNT>
0

> <PUBCHEM_ATOM_UDEF_STEREO_COUNT>
0

> <PUBCHEM_BOND_DEF_STEREO_COUNT>
0

> <PUBCHEM_BOND_UDEF_STEREO_COUNT>
0

> <PUBCHEM_ISOTOPIC_ATOM_COUNT>
0

> <PUBCHEM_COMPONENT_COUNT>
1

> <PUBCHEM_CACTVS_TAUTO_COUNT>
3

> <PUBCHEM_CONFORMER_ID>
02F85BF700000001

> <PUBCHEM_MMFF94_ENERGY>
38.7435

> <PUBCHEM_FEATURE_SELFOVERLAP>
35.653

> <PUBCHEM_SHAPE_FINGERPRINT>
10354089 29 18187086143978587712
10366900 7 13470690360420459326
10616163 171 18340487871413628614
11089746 13 17917423237612037785
11315181 36 17846502551798377128
11401426 45 18272650151678937093
12107183 9 17688869735462601336
12236239 1 18408040723599385014
12390115 104 17843699772364308601
13167823 11 18408884048823022194
13288520 33 18342740723435460558
13533116 47 17203048461330576742
13760787 19 18410292518801916651
14251764 18 18412546518471989075
15048467 5 18409449180472156317
15196674 1 18411136982365401948
15242433 33 18409730655475117290
17834072 33 18409449219564374204
18186145 218 17385997403429210466
18522853 276 18342175570512151416
19050596 39 18408321103238141954
19489759 90 16200434650453558635
200 152 18413386557486280682
20279233 1 16128660759974011284
20645477 56 18409728439852286861
20645477 70 18262798463223074714
20681677 155 18409165527989250979
21267235 1 18409738377963536994
23402539 116 18202277018023701861
23402655 69 18409166614874121156
23557571 272 17632020749748896360
23559900 14 18272926163410132120
26918003 58 17749112196549634048
29717793 49 18131636673262884932
300161 21 18411693287993860377
3004659 81 18337393743330769774
335352 9 18411419509656696740
3545911 37 18411139121348805628
42 15 18333450941160436222
4214541 1 18410573993947250509
42788 4 18410575093258314249
4463277 17 18410293614050147728
474 4 17604997099269822404
5104073 3 18336826489028555128
542803 24 17312823783846303660
59755656 215 18272095946463891630
59755656 520 17022621983472909003
67856867 119 18265049309701791260
77779 3 18409167727064987302
8272917 22 18337111163888275918
9709674 26 18411143545308195006

> <PUBCHEM_SHAPE_MULTIPOLES>
340.85
12.64
1.45
0.67
0.45
0.14
0.01
-1.82
0.37
0.43
-0.06
-0.03
-0.01
-0.62

> <PUBCHEM_SHAPE_SELFOVERLAP>
743.742

> <PUBCHEM_SHAPE_VOLUME>
192.2

> <PUBCHEM_COORDINATE_TYPE>
2
5
10

$$$$
