21979999
  -OEChem-10052115193D

 51 54  0     1  0  0  0  0  0999 V2000
   -8.8664   -0.5463   -0.1805 F   0  0  0  0  0  0  0  0  0  0  0  0
   -7.0777   -0.5079   -1.4356 F   0  0  0  0  0  0  0  0  0  0  0  0
   -7.5560   -2.2946   -0.2258 F   0  0  0  0  0  0  0  0  0  0  0  0
   -6.8577   -0.3940    0.8380 O   0  0  0  0  0  0  0  0  0  0  0  0
    6.6913   -0.5412   -0.1428 N   0  0  2  0  0  0  0  0  0  0  0  0
    2.5772    1.5132   -0.4807 N   0  0  0  0  0  0  0  0  0  0  0  0
    7.4172   -1.2376    0.9284 C   0  0  2  0  0  0  0  0  0  0  0  0
    8.8805   -0.9626    0.5760 C   0  0  0  0  0  0  0  0  0  0  0  0
    7.3997    0.7295   -0.3146 C   0  0  0  0  0  0  0  0  0  0  0  0
    8.8635    0.3288   -0.2345 C   0  0  0  0  0  0  0  0  0  0  0  0
    5.2806   -0.3299    0.1583 C   0  0  0  0  0  0  0  0  0  0  0  0
    7.1212   -2.7309    0.9883 C   0  0  0  0  0  0  0  0  0  0  0  0
    4.4953    0.0214   -1.1070 C   0  0  0  0  0  0  0  0  0  0  0  0
    3.0381    0.2642   -0.8002 C   0  0  0  0  0  0  0  0  0  0  0  0
    1.9691   -0.6014   -0.7733 C   0  0  0  0  0  0  0  0  0  0  0  0
    0.8122    0.1499   -0.4242 C   0  0  0  0  0  0  0  0  0  0  0  0
    1.2212    1.4732   -0.2459 C   0  0  0  0  0  0  0  0  0  0  0  0
   -0.5481   -0.1700   -0.2422 C   0  0  0  0  0  0  0  0  0  0  0  0
    0.3346    2.4967    0.1071 C   0  0  0  0  0  0  0  0  0  0  0  0
   -1.4463    0.8436    0.1108 C   0  0  0  0  0  0  0  0  0  0  0  0
   -1.0095    2.1556    0.2826 C   0  0  0  0  0  0  0  0  0  0  0  0
   -2.8458    0.5230    0.2976 C   0  0  0  0  0  0  0  0  0  0  0  0
   -3.6149    1.2603    1.1980 C   0  0  0  0  0  0  0  0  0  0  0  0
   -3.4250   -0.5231   -0.4208 C   0  0  0  0  0  0  0  0  0  0  0  0
   -4.9629    0.9516    1.3800 C   0  0  0  0  0  0  0  0  0  0  0  0
   -4.7729   -0.8319   -0.2388 C   0  0  0  0  0  0  0  0  0  0  0  0
   -5.5419   -0.0945    0.6617 C   0  0  0  0  0  0  0  0  0  0  0  0
   -7.5765   -0.9452   -0.2598 C   0  0  0  0  0  0  0  0  0  0  0  0
    7.1967   -0.7821    1.9040 H   0  0  0  0  0  0  0  0  0  0  0  0
    9.4905   -0.8561    1.4795 H   0  0  0  0  0  0  0  0  0  0  0  0
    9.3181   -1.7675   -0.0269 H   0  0  0  0  0  0  0  0  0  0  0  0
    7.1708    1.4388    0.4913 H   0  0  0  0  0  0  0  0  0  0  0  0
    7.1794    1.2094   -1.2729 H   0  0  0  0  0  0  0  0  0  0  0  0
    9.2707    0.1426   -1.2353 H   0  0  0  0  0  0  0  0  0  0  0  0
    9.4700    1.1104    0.2343 H   0  0  0  0  0  0  0  0  0  0  0  0
    5.1426    0.4367    0.9328 H   0  0  0  0  0  0  0  0  0  0  0  0
    4.8383   -1.2473    0.5656 H   0  0  0  0  0  0  0  0  0  0  0  0
    6.0927   -2.9280    1.3050 H   0  0  0  0  0  0  0  0  0  0  0  0
    7.7862   -3.2229    1.7065 H   0  0  0  0  0  0  0  0  0  0  0  0
    7.2712   -3.2089    0.0138 H   0  0  0  0  0  0  0  0  0  0  0  0
    4.9043    0.9175   -1.5892 H   0  0  0  0  0  0  0  0  0  0  0  0
    4.5739   -0.7945   -1.8369 H   0  0  0  0  0  0  0  0  0  0  0  0
    2.0129   -1.6619   -0.9820 H   0  0  0  0  0  0  0  0  0  0  0  0
    3.1471    2.3461   -0.4232 H   0  0  0  0  0  0  0  0  0  0  0  0
   -0.8470   -1.2076   -0.3540 H   0  0  0  0  0  0  0  0  0  0  0  0
    0.6729    3.5197    0.2331 H   0  0  0  0  0  0  0  0  0  0  0  0
   -1.6910    2.9678    0.5238 H   0  0  0  0  0  0  0  0  0  0  0  0
   -3.2013    2.0619    1.8036 H   0  0  0  0  0  0  0  0  0  0  0  0
   -2.8727   -1.1096   -1.1499 H   0  0  0  0  0  0  0  0  0  0  0  0
   -5.5558    1.5248    2.0875 H   0  0  0  0  0  0  0  0  0  0  0  0
   -5.1760   -1.6738   -0.7939 H   0  0  0  0  0  0  0  0  0  0  0  0
  1 28  1  0  0  0  0
  2 28  1  0  0  0  0
  3 28  1  0  0  0  0
  4 27  1  0  0  0  0
  4 28  1  0  0  0  0
  5  7  1  0  0  0  0
  5  9  1  0  0  0  0
  5 11  1  0  0  0  0
  6 14  1  0  0  0  0
  6 17  1  0  0  0  0
  6 44  1  0  0  0  0
  7  8  1  0  0  0  0
  7 12  1  0  0  0  0
  7 29  1  0  0  0  0
  8 10  1  0  0  0  0
  8 30  1  0  0  0  0
  8 31  1  0  0  0  0
  9 10  1  0  0  0  0
  9 32  1  0  0  0  0
  9 33  1  0  0  0  0
 10 34  1  0  0  0  0
 10 35  1  0  0  0  0
 11 13  1  0  0  0  0
 11 36  1  0  0  0  0
 11 37  1  0  0  0  0
 12 38  1  0  0  0  0
 12 39  1  0  0  0  0
 12 40  1  0  0  0  0
 13 14  1  0  0  0  0
 13 41  1  0  0  0  0
 13 42  1  0  0  0  0
 14 15  2  0  0  0  0
 15 16  1  0  0  0  0
 15 43  1  0  0  0  0
 16 17  2  0  0  0  0
 16 18  1  0  0  0  0
 17 19  1  0  0  0  0
 18 20  2  0  0  0  0
 18 45  1  0  0  0  0
 19 21  2  0  0  0  0
 19 46  1  0  0  0  0
 20 21  1  0  0  0  0
 20 22  1  0  0  0  0
 21 47  1  0  0  0  0
 22 23  2  0  0  0  0
 22 24  1  0  0  0  0
 23 25  1  0  0  0  0
 23 48  1  0  0  0  0
 24 26  2  0  0  0  0
 24 49  1  0  0  0  0
 25 27  2  0  0  0  0
 25 50  1  0  0  0  0
 26 27  1  0  0  0  0
 26 51  1  0  0  0  0
M  END
> <PUBCHEM_COMPOUND_CID>
21979999

> <PUBCHEM_CONFORMER_RMSD>
0.8

> <PUBCHEM_CONFORMER_DIVERSEORDER>
3
108
68
4
63
90
82
25
74
71
86
114
54
19
45
79
42
34
49
55
100
8
75
72
53
78
116
56
97
38
20
66
48
85
110
77
43
119
39
103
18
21
109
23
62
6
27
87
105
46
16
81
67
13
51
17
106
84
113
125
115
123
121
94
41
52
60
47
91
11
65
120
2
28
96
76
1
50
9
99
118
40
117
37
59
89
70
14
104
22
31
36
111
73
95
44
64
61
24
69
10
7
112
88
122
12
93
80
15
26
30
92
102
107
58
33
5
35
124
57
98
32
29
101
83

> <PUBCHEM_MMFF94_PARTIAL_CHARGES>
31
1 -0.34
11 0.27
13 0.18
14 -0.33
15 -0.15
17 -0.15
18 -0.15
19 -0.15
2 -0.34
21 -0.15
23 -0.15
24 -0.15
25 -0.15
26 -0.15
27 0.08
28 1.3
3 -0.34
4 -0.36
43 0.15
44 0.27
45 0.15
46 0.15
47 0.15
48 0.15
49 0.15
5 -0.81
50 0.15
51 0.15
6 0.03
7 0.27
9 0.27

> <PUBCHEM_EFFECTIVE_ROTOR_COUNT>
7

> <PUBCHEM_PHARMACOPHORE_FEATURES>
8
1 4 acceptor
1 5 cation
1 6 cation
1 6 donor
5 5 7 8 9 10 rings
5 6 14 15 16 17 rings
6 16 17 18 19 20 21 rings
6 22 23 24 25 26 27 rings

> <PUBCHEM_HEAVY_ATOM_COUNT>
28

> <PUBCHEM_ATOM_DEF_STEREO_COUNT>
0

> <PUBCHEM_ATOM_UDEF_STEREO_COUNT>
1

> <PUBCHEM_BOND_DEF_STEREO_COUNT>
0

> <PUBCHEM_BOND_UDEF_STEREO_COUNT>
0

> <PUBCHEM_ISOTOPIC_ATOM_COUNT>
0

> <PUBCHEM_COMPONENT_COUNT>
1

> <PUBCHEM_CACTVS_TAUTO_COUNT>
1

> <PUBCHEM_CONFORMER_ID>
014F635F00000003

> <PUBCHEM_MMFF94_ENERGY>
66.8657

> <PUBCHEM_FEATURE_SELFOVERLAP>
40.689

> <PUBCHEM_SHAPE_FINGERPRINT>
10 15 12463572876738473141
10165383 225 9439405722168475256
10299344 5 18412546505571230530
10391435 84 17676772071716657720
106641 1 16845291652712003292
10670039 82 15647044955205254365
11135609 127 10954040195460834094
11135609 99 18200030789236611719
11211813 128 17917716782121778518
11297750 10 18409156723455039324
11315181 36 18202005426283820873
12643181 29 18041001773828206515
13540713 4 12398024447561874300
13668630 136 16805329885784489322
13862211 1 18409733953983594397
13885169 127 17530962449737899637
13914758 101 16732981986248940596
14150022 121 16773805748765119729
14251764 18 18413392038339258516
14251764 46 18410576188474968239
14394314 77 18338240345039486857
14849402 71 17703506709852948200
15198563 99 15864346892610651166
15392192 104 17632579358218200166
15510794 2 16153433878087392584
15690457 1 18334856113337917338
15706992 2 12751237047362115650
15728490 51 17703789236352269326
16120349 18 18041000691860451356
1768 124 18339361869229294054
18335252 98 16988850462588049374
18603816 31 18271238430953885791
190975 80 18272089383911767570
2026 5 17749385910869348010
20505436 4 10519985937484995676
21095123 293 10159704594619602715
21130935 74 17631463267341564622
21267235 1 18342181076264638005
21585482 111 9510921257797725987
21792934 111 18272364282661266689
21792961 116 16877660141352539465
22224240 67 16559030489206439454
23389318 12 18114188549433569436
23522609 53 18048351965752201796
23559900 14 17168718547574331908
249057 25 18262817210497151500
249057 3 14996289136243373750
3383291 50 18272939357961719543
3633792 109 16732701632374666852
3711267 37 8286201681844852614
397830 11 15338258186801378006
4112364 45 13973671871900351904
4340502 62 14979962462640103828
5219985 9 18412826893220400620
5758199 1 10303814271903699533
59682541 35 17703787037935492986
5969126 39 18113897139491251829
6126387 218 18341331115913108169
6201320 82 12469450836760167719
9689198 14 12535627176478430054
9953998 17 15051730906974148783
9962374 69 17988354983788821263

> <PUBCHEM_SHAPE_MULTIPOLES>
538.57
29.01
1.94
1.03
11.01
0.02
-0.08
16.45
-2.67
0.53
-0.35
-0.26
0.06
-2.21

> <PUBCHEM_SHAPE_SELFOVERLAP>
1175.477

> <PUBCHEM_SHAPE_VOLUME>
297.3

> <PUBCHEM_COORDINATE_TYPE>
2
5
10

$$$$
