10705154
  -OEChem-10062121573D

 31 33  0     0  0  0  0  0  0999 V2000
   -1.8593    2.1225    0.4021 N   0  0  0  0  0  0  0  0  0  0  0  0
   -0.1840   -0.4476    0.1267 N   0  0  0  0  0  0  0  0  0  0  0  0
   -3.7115    0.7894    0.0976 N   0  0  0  0  0  0  0  0  0  0  0  0
   -3.6298   -1.5738   -0.2619 N   0  0  0  0  0  0  0  0  0  0  0  0
   -1.5580   -2.6843   -0.3117 N   0  0  0  0  0  0  0  0  0  0  0  0
    0.3749    1.8816   -0.5357 C   0  0  0  0  0  0  0  0  0  0  0  0
   -0.4758    2.4908    0.5620 C   0  0  0  0  0  0  0  0  0  0  0  0
    0.6997    0.4585   -0.1467 C   0  0  0  0  0  0  0  0  0  0  0  0
    2.1349    0.0732   -0.0595 C   0  0  0  0  0  0  0  0  0  0  0  0
   -2.3532    0.8578    0.1845 C   0  0  0  0  0  0  0  0  0  0  0  0
   -1.5763   -0.2940    0.0431 C   0  0  0  0  0  0  0  0  0  0  0  0
   -2.2909   -1.4743   -0.1714 C   0  0  0  0  0  0  0  0  0  0  0  0
    3.0683    0.7053   -0.8736 C   0  0  0  0  0  0  0  0  0  0  0  0
    2.5297   -0.9151    0.8356 C   0  0  0  0  0  0  0  0  0  0  0  0
    4.4132    0.3445   -0.7919 C   0  0  0  0  0  0  0  0  0  0  0  0
    3.8746   -1.2757    0.9173 C   0  0  0  0  0  0  0  0  0  0  0  0
    4.8163   -0.6459    0.1036 C   0  0  0  0  0  0  0  0  0  0  0  0
   -4.2727   -0.4127   -0.1200 C   0  0  0  0  0  0  0  0  0  0  0  0
    1.2754    2.4946   -0.6135 H   0  0  0  0  0  0  0  0  0  0  0  0
   -0.1225    1.8890   -1.5120 H   0  0  0  0  0  0  0  0  0  0  0  0
   -0.1244    2.1991    1.5591 H   0  0  0  0  0  0  0  0  0  0  0  0
   -0.4080    3.5832    0.5065 H   0  0  0  0  0  0  0  0  0  0  0  0
   -2.5514    2.8589    0.4901 H   0  0  0  0  0  0  0  0  0  0  0  0
    2.7897    1.4501   -1.6124 H   0  0  0  0  0  0  0  0  0  0  0  0
    1.8158   -1.4141    1.4852 H   0  0  0  0  0  0  0  0  0  0  0  0
    5.1456    0.8278   -1.4321 H   0  0  0  0  0  0  0  0  0  0  0  0
    4.1891   -2.0459    1.6155 H   0  0  0  0  0  0  0  0  0  0  0  0
    5.8632   -0.9281    0.1660 H   0  0  0  0  0  0  0  0  0  0  0  0
   -5.3530   -0.4390   -0.1851 H   0  0  0  0  0  0  0  0  0  0  0  0
   -2.0935   -3.5311   -0.4572 H   0  0  0  0  0  0  0  0  0  0  0  0
   -0.6591   -2.7540    0.1494 H   0  0  0  0  0  0  0  0  0  0  0  0
  1  7  1  0  0  0  0
  1 10  1  0  0  0  0
  1 23  1  0  0  0  0
  2  8  2  0  0  0  0
  2 11  1  0  0  0  0
  3 10  2  0  0  0  0
  3 18  1  0  0  0  0
  4 12  1  0  0  0  0
  4 18  2  0  0  0  0
  5 12  1  0  0  0  0
  5 30  1  0  0  0  0
  5 31  1  0  0  0  0
  6  7  1  0  0  0  0
  6  8  1  0  0  0  0
  6 19  1  0  0  0  0
  6 20  1  0  0  0  0
  7 21  1  0  0  0  0
  7 22  1  0  0  0  0
  8  9  1  0  0  0  0
  9 13  2  0  0  0  0
  9 14  1  0  0  0  0
 10 11  1  0  0  0  0
 11 12  2  0  0  0  0
 13 15  1  0  0  0  0
 13 24  1  0  0  0  0
 14 16  2  0  0  0  0
 14 25  1  0  0  0  0
 15 17  2  0  0  0  0
 15 26  1  0  0  0  0
 16 17  1  0  0  0  0
 16 27  1  0  0  0  0
 17 28  1  0  0  0  0
 18 29  1  0  0  0  0
M  END
> <PUBCHEM_COMPOUND_CID>
10705154

> <PUBCHEM_CONFORMER_RMSD>
0.6

> <PUBCHEM_CONFORMER_DIVERSEORDER>
1
2

> <PUBCHEM_MMFF94_PARTIAL_CHARGES>
27
1 -0.87
10 0.41
11 0.18
12 0.41
13 -0.15
14 -0.15
15 -0.15
16 -0.15
17 -0.15
18 0.47
2 -0.63
23 0.4
24 0.15
25 0.15
26 0.15
27 0.15
28 0.15
29 0.15
3 -0.62
30 0.4
31 0.4
4 -0.62
5 -0.9
6 0.06
7 0.37
8 0.3
9 0.09

> <PUBCHEM_EFFECTIVE_ROTOR_COUNT>
1.6

> <PUBCHEM_PHARMACOPHORE_FEATURES>
9
1 1 donor
1 2 acceptor
1 5 cation
1 5 donor
3 1 3 10 cation
3 3 4 18 cation
6 3 4 10 11 12 18 rings
6 9 13 14 15 16 17 rings
7 1 2 6 7 8 10 11 rings

> <PUBCHEM_HEAVY_ATOM_COUNT>
18

> <PUBCHEM_ATOM_DEF_STEREO_COUNT>
0

> <PUBCHEM_ATOM_UDEF_STEREO_COUNT>
0

> <PUBCHEM_BOND_DEF_STEREO_COUNT>
0

> <PUBCHEM_BOND_UDEF_STEREO_COUNT>
0

> <PUBCHEM_ISOTOPIC_ATOM_COUNT>
0

> <PUBCHEM_COMPONENT_COUNT>
1

> <PUBCHEM_CACTVS_TAUTO_COUNT>
18

> <PUBCHEM_CONFORMER_ID>
00A3590200000001

> <PUBCHEM_MMFF94_ENERGY>
75.6611

> <PUBCHEM_FEATURE_SELFOVERLAP>
45.813

> <PUBCHEM_SHAPE_FINGERPRINT>
10062212 137 18410574002795641535
10616163 171 18411140233988571574
11046707 91 18412262835011825528
11578080 2 17969476325922138348
12107183 9 17615403667541123762
12236239 1 18113902641633663134
12403814 3 17748826289572953293
12553582 1 18339920514802136231
13140716 1 18269842067922633385
13862211 1 18341327868838698087
15099037 51 18411133641608807191
15196674 1 18409730676912829133
15375462 189 18260268559596351880
15415430 112 18410580625397867670
15536298 74 18270679899783021352
15669948 3 18411980260782027966
16752209 62 18337939100554502913
16945 1 18342741775739631113
17804303 29 18272651263906752809
17977361 122 18409441471201077803
18186145 218 14418136222955462812
19422 9 18334014965214468650
19862831 5 17821727243251817490
200 152 18186801374724979224
20281475 54 18336542725382933546
20291156 8 18337109063495715688
20510252 161 18129945550869380496
20645477 70 15357972318781529498
21029758 27 18261681449619040925
21267235 1 18408895043796914171
21634736 98 18263368143395095028
221490 88 18046071728663624163
22646028 28 18334293154419930562
2297311 6 18201450163968171620
232386 152 18341053007441353229
23366157 5 18045215200663968532
23402539 116 18272643533250391853
23463225 33 18335419036978150854
23557571 272 18059581256958115316
23559900 14 18343580759515943800
335352 9 18411982455985154685
34934 24 18339358694625418036
4214541 1 18410292467647197140
474 4 17459762599941042476
5104073 3 18411703217963582825
559249 180 18116144468428104010
57096353 35 18186812395890616556
573450 72 18337384950952102618
67856867 119 18261953068068170804
7364860 26 17983576591568855129
9709674 26 18340776957372801846

> <PUBCHEM_SHAPE_MULTIPOLES>
345.53
8.63
2.26
0.83
3.64
0.26
0.02
-2.71
-0.36
-1.4
0.13
0.54
0.03
-0.97

> <PUBCHEM_SHAPE_SELFOVERLAP>
756.289

> <PUBCHEM_SHAPE_VOLUME>
178.7

> <PUBCHEM_COORDINATE_TYPE>
2
5
10

$$$$
