3392643
  -OEChem-10052120443D

 20 22  0     0  0  0  0  0  0999 V2000
    2.0030   -1.3158   -0.0003 N   0  0  0  0  0  0  0  0  0  0  0  0
    3.1818   -0.6413   -0.0005 N   0  0  0  0  0  0  0  0  0  0  0  0
    0.3608    1.8417    0.0003 C   0  0  0  0  0  0  0  0  0  0  0  0
   -0.8430    0.8793    0.0003 C   0  0  0  0  0  0  0  0  0  0  0  0
    1.4296    0.8039    0.0003 C   0  0  0  0  0  0  0  0  0  0  0  0
   -0.4672   -0.4935    0.0006 C   0  0  0  0  0  0  0  0  0  0  0  0
    0.9517   -0.4766    0.0007 C   0  0  0  0  0  0  0  0  0  0  0  0
   -2.1820    1.2269   -0.0004 C   0  0  0  0  0  0  0  0  0  0  0  0
    2.8166    0.6550   -0.0005 C   0  0  0  0  0  0  0  0  0  0  0  0
   -1.3865   -1.5183    0.0004 C   0  0  0  0  0  0  0  0  0  0  0  0
   -3.1288    0.1963   -0.0006 C   0  0  0  0  0  0  0  0  0  0  0  0
   -2.7359   -1.1578   -0.0002 C   0  0  0  0  0  0  0  0  0  0  0  0
    0.3760    2.4495   -0.9074 H   0  0  0  0  0  0  0  0  0  0  0  0
    0.3759    2.4496    0.9082 H   0  0  0  0  0  0  0  0  0  0  0  0
   -2.4954    2.2651   -0.0008 H   0  0  0  0  0  0  0  0  0  0  0  0
    3.5869    1.4124   -0.0012 H   0  0  0  0  0  0  0  0  0  0  0  0
   -1.0877   -2.5600    0.0005 H   0  0  0  0  0  0  0  0  0  0  0  0
    2.0222   -2.3286   -0.0006 H   0  0  0  0  0  0  0  0  0  0  0  0
   -4.1879    0.4424   -0.0012 H   0  0  0  0  0  0  0  0  0  0  0  0
   -3.4984   -1.9327   -0.0004 H   0  0  0  0  0  0  0  0  0  0  0  0
  1  2  1  0  0  0  0
  1  7  1  0  0  0  0
  1 18  1  0  0  0  0
  2  9  2  0  0  0  0
  3  4  1  0  0  0  0
  3  5  1  0  0  0  0
  3 13  1  0  0  0  0
  3 14  1  0  0  0  0
  4  6  1  0  0  0  0
  4  8  2  0  0  0  0
  5  7  2  0  0  0  0
  5  9  1  0  0  0  0
  6  7  1  0  0  0  0
  6 10  2  0  0  0  0
  8 11  1  0  0  0  0
  8 15  1  0  0  0  0
  9 16  1  0  0  0  0
 10 12  1  0  0  0  0
 10 17  1  0  0  0  0
 11 12  2  0  0  0  0
 11 19  1  0  0  0  0
 12 20  1  0  0  0  0
M  END
> <PUBCHEM_COMPOUND_CID>
3392643

> <PUBCHEM_CONFORMER_RMSD>
0.4

> <PUBCHEM_CONFORMER_DIVERSEORDER>
1

> <PUBCHEM_MMFF94_PARTIAL_CHARGES>
18
1 0.3
10 -0.15
11 -0.15
12 -0.15
15 0.15
16 0.15
17 0.15
18 0.27
19 0.15
2 -0.71
20 0.15
3 0.32
4 -0.14
5 -0.18
6 0.05
7 -0.2
8 -0.15
9 0.14

> <PUBCHEM_EFFECTIVE_ROTOR_COUNT>
0.2

> <PUBCHEM_PHARMACOPHORE_FEATURES>
5
1 1 donor
1 2 acceptor
5 1 2 5 7 9 rings
5 3 4 5 6 7 rings
6 4 6 8 10 11 12 rings

> <PUBCHEM_HEAVY_ATOM_COUNT>
12

> <PUBCHEM_ATOM_DEF_STEREO_COUNT>
0

> <PUBCHEM_ATOM_UDEF_STEREO_COUNT>
0

> <PUBCHEM_BOND_DEF_STEREO_COUNT>
0

> <PUBCHEM_BOND_UDEF_STEREO_COUNT>
0

> <PUBCHEM_ISOTOPIC_ATOM_COUNT>
0

> <PUBCHEM_COMPONENT_COUNT>
1

> <PUBCHEM_CACTVS_TAUTO_COUNT>
2

> <PUBCHEM_CONFORMER_ID>
0033C48300000001

> <PUBCHEM_MMFF94_ENERGY>
46.2373

> <PUBCHEM_FEATURE_SELFOVERLAP>
25.71

> <PUBCHEM_SHAPE_FINGERPRINT>
10608611 8 18411694400406669024
11769659 78 18410848876001566151
12032990 46 18411144627444313462
12524768 44 18341618061923533095
12932764 1 17560516308500543757
14128692 85 18339365265677396101
14144814 61 18411138038995909203
14325111 11 18410855451633361121
16945 1 18338516442837876997
17844478 74 17968105230763665217
193761 8 17545884188173133414
19973954 147 18337955704840163857
20201158 50 18411698785620759423
20871998 184 18202005473111853207
21501502 16 18338519758489416981
23402539 116 18130495350197196877
23402655 69 18268695135983429357
23463225 33 18336827498514816742
23552423 10 18189335830388716973
23559900 14 18269833121964925166
2748010 2 18411418388612028061
369184 2 18413669110605180201
5084963 1 18343301487445694097
528886 8 18411414003471543811
53812653 166 18271801384531899792
63268167 104 18410295817473820361
7364860 26 18198062688644167120
8809292 202 18260834838081330051

> <PUBCHEM_SHAPE_MULTIPOLES>
236.99
4.64
1.69
0.6
0.43
0.14
0
-0.65
0
-0.21
0
-0.04
0.02
0

> <PUBCHEM_SHAPE_SELFOVERLAP>
540.805

> <PUBCHEM_SHAPE_VOLUME>
126.7

> <PUBCHEM_COORDINATE_TYPE>
2
5
10

$$$$
