44588881
  -OEChem-10062122023D

 56 59  0     0  0  0  0  0  0999 V2000
   -4.1096    1.1041    0.9708 O   0  0  0  0  0  0  0  0  0  0  0  0
    2.8907    1.8587   -0.2772 O   0  0  0  0  0  0  0  0  0  0  0  0
   -4.3402   -1.0084   -0.0408 N   0  0  0  0  0  0  0  0  0  0  0  0
    1.0917   -2.0839    0.1442 N   0  0  0  0  0  0  0  0  0  0  0  0
    0.5200    0.0498   -0.1018 N   0  0  0  0  0  0  0  0  0  0  0  0
    2.8596   -0.4829   -0.0147 N   0  0  0  0  0  0  0  0  0  0  0  0
   10.3331    0.8640    0.0573 N   0  0  0  0  0  0  0  0  0  0  0  0
   -6.2424    0.5531    0.1713 C   0  0  0  0  0  0  0  0  0  0  0  0
   -6.3942    1.1732   -1.2188 C   0  0  0  0  0  0  0  0  0  0  0  0
   -6.7679    1.4871    1.2625 C   0  0  0  0  0  0  0  0  0  0  0  0
   -7.8347    1.6010   -1.4879 C   0  0  0  0  0  0  0  0  0  0  0  0
   -8.2088    1.9112    0.9900 C   0  0  0  0  0  0  0  0  0  0  0  0
   -8.3596    2.5302   -0.3969 C   0  0  0  0  0  0  0  0  0  0  0  0
   -4.7982    0.2423    0.4185 C   0  0  0  0  0  0  0  0  0  0  0  0
   -2.9370   -1.3658    0.0173 C   0  0  0  0  0  0  0  0  0  0  0  0
   -5.2392   -1.9751   -0.6899 C   0  0  0  0  0  0  0  0  0  0  0  0
   -1.9667   -0.3610   -0.0844 C   0  0  0  0  0  0  0  0  0  0  0  0
   -2.5722   -2.7052    0.1720 C   0  0  0  0  0  0  0  0  0  0  0  0
   -0.6119   -0.7290   -0.0274 C   0  0  0  0  0  0  0  0  0  0  0  0
   -0.2796   -2.0718    0.1272 C   0  0  0  0  0  0  0  0  0  0  0  0
   -1.2285   -3.0894    0.2307 C   0  0  0  0  0  0  0  0  0  0  0  0
    1.5221   -0.7938    0.0045 C   0  0  0  0  0  0  0  0  0  0  0  0
    1.9244   -3.2584    0.2811 C   0  0  0  0  0  0  0  0  0  0  0  0
    3.4710    0.7859   -0.1499 C   0  0  0  0  0  0  0  0  0  0  0  0
    4.9567    0.8033   -0.1059 C   0  0  0  0  0  0  0  0  0  0  0  0
    5.6284    1.9455    0.3301 C   0  0  0  0  0  0  0  0  0  0  0  0
    5.6790   -0.3232   -0.4994 C   0  0  0  0  0  0  0  0  0  0  0  0
    7.0225    1.9610    0.3727 C   0  0  0  0  0  0  0  0  0  0  0  0
    7.0731   -0.3076   -0.4569 C   0  0  0  0  0  0  0  0  0  0  0  0
    7.7449    0.8343   -0.0207 C   0  0  0  0  0  0  0  0  0  0  0  0
    9.1731    0.8507    0.0223 C   0  0  0  0  0  0  0  0  0  0  0  0
   -6.8510   -0.3541    0.2468 H   0  0  0  0  0  0  0  0  0  0  0  0
   -5.7422    2.0537   -1.3014 H   0  0  0  0  0  0  0  0  0  0  0  0
   -6.0658    0.4908   -2.0093 H   0  0  0  0  0  0  0  0  0  0  0  0
   -6.7087    0.9957    2.2415 H   0  0  0  0  0  0  0  0  0  0  0  0
   -6.1522    2.3934    1.3320 H   0  0  0  0  0  0  0  0  0  0  0  0
   -8.4733    0.7112   -1.5492 H   0  0  0  0  0  0  0  0  0  0  0  0
   -7.8942    2.1046   -2.4593 H   0  0  0  0  0  0  0  0  0  0  0  0
   -8.5322    2.6298    1.7514 H   0  0  0  0  0  0  0  0  0  0  0  0
   -8.8685    1.0387    1.0741 H   0  0  0  0  0  0  0  0  0  0  0  0
   -9.4142    2.7609   -0.5851 H   0  0  0  0  0  0  0  0  0  0  0  0
   -7.8129    3.4806   -0.4333 H   0  0  0  0  0  0  0  0  0  0  0  0
   -6.0386   -1.5030   -1.2587 H   0  0  0  0  0  0  0  0  0  0  0  0
   -4.6911   -2.5992   -1.4035 H   0  0  0  0  0  0  0  0  0  0  0  0
   -5.6845   -2.6035    0.0877 H   0  0  0  0  0  0  0  0  0  0  0  0
   -2.2050    0.6806   -0.2609 H   0  0  0  0  0  0  0  0  0  0  0  0
   -3.3212   -3.4869    0.2757 H   0  0  0  0  0  0  0  0  0  0  0  0
   -0.9554   -4.1305    0.3570 H   0  0  0  0  0  0  0  0  0  0  0  0
    1.3130   -4.1602    0.3371 H   0  0  0  0  0  0  0  0  0  0  0  0
    2.5108   -3.1587    1.1984 H   0  0  0  0  0  0  0  0  0  0  0  0
    2.5796   -3.3210   -0.5918 H   0  0  0  0  0  0  0  0  0  0  0  0
    3.4721   -1.2795    0.1281 H   0  0  0  0  0  0  0  0  0  0  0  0
    5.0845    2.8318    0.6461 H   0  0  0  0  0  0  0  0  0  0  0  0
    5.1997   -1.2204   -0.8790 H   0  0  0  0  0  0  0  0  0  0  0  0
    7.5320    2.8582    0.7159 H   0  0  0  0  0  0  0  0  0  0  0  0
    7.6230   -1.1905   -0.7742 H   0  0  0  0  0  0  0  0  0  0  0  0
  1 14  2  0  0  0  0
  2 24  2  0  0  0  0
  3 14  1  0  0  0  0
  3 15  1  0  0  0  0
  3 16  1  0  0  0  0
  4 20  1  0  0  0  0
  4 22  1  0  0  0  0
  4 23  1  0  0  0  0
  5 19  1  0  0  0  0
  5 22  2  0  0  0  0
  6 22  1  0  0  0  0
  6 24  1  0  0  0  0
  6 52  1  0  0  0  0
  7 31  3  0  0  0  0
  8  9  1  0  0  0  0
  8 10  1  0  0  0  0
  8 14  1  0  0  0  0
  8 32  1  0  0  0  0
  9 11  1  0  0  0  0
  9 33  1  0  0  0  0
  9 34  1  0  0  0  0
 10 12  1  0  0  0  0
 10 35  1  0  0  0  0
 10 36  1  0  0  0  0
 11 13  1  0  0  0  0
 11 37  1  0  0  0  0
 11 38  1  0  0  0  0
 12 13  1  0  0  0  0
 12 39  1  0  0  0  0
 12 40  1  0  0  0  0
 13 41  1  0  0  0  0
 13 42  1  0  0  0  0
 15 17  2  0  0  0  0
 15 18  1  0  0  0  0
 16 43  1  0  0  0  0
 16 44  1  0  0  0  0
 16 45  1  0  0  0  0
 17 19  1  0  0  0  0
 17 46  1  0  0  0  0
 18 21  2  0  0  0  0
 18 47  1  0  0  0  0
 19 20  2  0  0  0  0
 20 21  1  0  0  0  0
 21 48  1  0  0  0  0
 23 49  1  0  0  0  0
 23 50  1  0  0  0  0
 23 51  1  0  0  0  0
 24 25  1  0  0  0  0
 25 26  2  0  0  0  0
 25 27  1  0  0  0  0
 26 28  1  0  0  0  0
 26 53  1  0  0  0  0
 27 29  2  0  0  0  0
 27 54  1  0  0  0  0
 28 30  2  0  0  0  0
 28 55  1  0  0  0  0
 29 30  1  0  0  0  0
 29 56  1  0  0  0  0
 30 31  1  0  0  0  0
M  END
> <PUBCHEM_COMPOUND_CID>
44588881

> <PUBCHEM_CONFORMER_RMSD>
1

> <PUBCHEM_CONFORMER_DIVERSEORDER>
1
16
15
25
26
21
8
29
19
2
23
27
5
9
11
18
7
13
28
10
20
24
12
4
17
14
22
3
6

> <PUBCHEM_MMFF94_PARTIAL_CHARGES>
34
1 -0.57
14 0.57
15 0.12
16 0.3
17 -0.15
18 -0.15
19 0.23
2 -0.57
20 -0.15
21 -0.15
22 0.25
23 0.26
24 0.54
25 0.09
26 -0.15
27 -0.15
28 -0.15
29 -0.15
3 -0.48
30 0.07
31 0.48
4 0.05
46 0.15
47 0.15
48 0.15
5 -0.57
52 0.37
53 0.15
54 0.15
55 0.15
56 0.15
6 -0.49
7 -0.56
8 0.06

> <PUBCHEM_EFFECTIVE_ROTOR_COUNT>
7.2

> <PUBCHEM_PHARMACOPHORE_FEATURES>
8
1 1 acceptor
1 2 acceptor
1 6 donor
1 7 acceptor
5 4 5 19 20 22 rings
6 15 17 18 19 20 21 rings
6 25 26 27 28 29 30 rings
6 8 9 10 11 12 13 rings

> <PUBCHEM_HEAVY_ATOM_COUNT>
31

> <PUBCHEM_ATOM_DEF_STEREO_COUNT>
0

> <PUBCHEM_ATOM_UDEF_STEREO_COUNT>
0

> <PUBCHEM_BOND_DEF_STEREO_COUNT>
0

> <PUBCHEM_BOND_UDEF_STEREO_COUNT>
0

> <PUBCHEM_ISOTOPIC_ATOM_COUNT>
0

> <PUBCHEM_COMPONENT_COUNT>
1

> <PUBCHEM_CACTVS_TAUTO_COUNT>
3

> <PUBCHEM_CONFORMER_ID>
02A85F5100000001

> <PUBCHEM_MMFF94_ENERGY>
87.9427

> <PUBCHEM_FEATURE_SELFOVERLAP>
40.705

> <PUBCHEM_SHAPE_FINGERPRINT>
10 15 17894631427426713641
10076449 9 11097855181710641444
10165383 225 18410292501922708409
10411042 1 17763181745852591855
10669705 176 18342174484133566527
10674148 151 18260826051870336184
10835480 77 18272937115640085846
11273773 42 17917433091237764417
11297010 23 18201436961355151718
11410812 94 15051744040324861464
11475781 23 18201447982061508150
12013929 2 18202005448586767256
12013929 29 17764870192080674165
12089408 11 18040996280991717710
12098696 120 18336271162700060133
12522641 68 18272647940341402127
12838862 33 18338785762936301552
13248334 5 18050569543345742955
1361 4 9799429814221827020
13673619 4 10953458539637416103
14117953 113 18335423460789704892
14394314 77 18411986832726251353
15065858 18 17846498171875980510
15183329 4 18343022194697374890
15289351 153 18343018849002299386
15350500 55 17749664087906780373
15439362 3 18340770334459761711
15461852 350 17274820293797817293
15510800 12 11239706505494152045
1577012 14 18335413569326826579
15890870 6 18409165498494315121
16087824 20 18408886204992161148
19302320 297 18041003950722764109
20105231 36 12613027276727038912
21033648 144 18334572405389715263
21033648 29 18268698571862157976
21033650 10 15195013700719440539
21298829 104 18410012143331500741
21403212 168 18409729552290800054
21585482 111 18263925432978240045
22149856 69 11242241931889083278
23389318 12 11599718502660329330
23524908 199 17775011129313850390
23576562 1 16701441502915934921
23729398 52 17978518537676844807
306946 40 17131821098357869856
335352 9 18410574020070411052
3633792 109 18273502260981028818
4093350 32 17604143736385939778
4169191 19 18410008794132651053
437795 83 18339916001715506285
4516262 110 18408880707269829439
4760202 170 17131547358760327264
5385378 56 18260548892661011618
54039377 194 9511455628768903049
57527295 17 13470139441224686111
6009941 240 18259989301002192290
6086070 43 17632007645492277971
6327066 14 18411698777711319999
9511036 111 13407658696818222617
9896288 288 17896607369602118299
99344 41 18341895208312083942
9961470 85 18126278881539418721
9980921 7 18186514403108184285

> <PUBCHEM_SHAPE_MULTIPOLES>
601.32
30.24
3.13
0.9
23.2
1.91
0.06
-27.71
1.3
-2.71
-0.22
-1.66
-0.33
0.15

> <PUBCHEM_SHAPE_SELFOVERLAP>
1302.871

> <PUBCHEM_SHAPE_VOLUME>
325.9

> <PUBCHEM_COORDINATE_TYPE>
2
5
10

$$$$
