49830486
  -OEChem-10052115193D

 45 48  0     1  0  0  0  0  0999 V2000
   -0.0641   -1.4185    1.4264 S   0  0  0  0  0  0  0  0  0  0  0  0
   -5.6812   -3.8993   -0.2327 O   0  0  0  0  0  0  0  0  0  0  0  0
   -2.5533   -1.1358    0.5453 N   0  0  0  0  0  0  0  0  0  0  0  0
   -0.8013   -0.1542   -0.6974 N   0  0  0  0  0  0  0  0  0  0  0  0
    7.5616    0.1214    0.3270 N   0  0  0  0  0  0  0  0  0  0  0  0
   -3.6496   -0.7108   -0.3174 C   0  0  1  0  0  0  0  0  0  0  0  0
   -4.8448   -1.6569   -0.1205 C   0  0  0  0  0  0  0  0  0  0  0  0
   -3.9669    0.7443   -0.0442 C   0  0  0  0  0  0  0  0  0  0  0  0
   -4.5118   -3.1139   -0.4248 C   0  0  0  0  0  0  0  0  0  0  0  0
   -1.2423   -0.8503    0.3242 C   0  0  0  0  0  0  0  0  0  0  0  0
    1.1687   -0.6788    0.4746 C   0  0  0  0  0  0  0  0  0  0  0  0
   -4.4224    1.5647   -1.0763 C   0  0  0  0  0  0  0  0  0  0  0  0
   -3.8035    1.2645    1.2397 C   0  0  0  0  0  0  0  0  0  0  0  0
    0.5801   -0.0470   -0.6250 C   0  0  0  0  0  0  0  0  0  0  0  0
    3.3576    0.0160   -0.2387 C   0  0  0  0  0  0  0  0  0  0  0  0
    2.5568   -0.6589    0.6859 C   0  0  0  0  0  0  0  0  0  0  0  0
    1.4124    0.6281   -1.5442 C   0  0  0  0  0  0  0  0  0  0  0  0
   -4.7146    2.9053   -0.8245 C   0  0  0  0  0  0  0  0  0  0  0  0
   -4.0956    2.6048    1.4915 C   0  0  0  0  0  0  0  0  0  0  0  0
    2.7950    0.6518   -1.3399 C   0  0  0  0  0  0  0  0  0  0  0  0
    4.7921    0.0519   -0.0462 C   0  0  0  0  0  0  0  0  0  0  0  0
   -4.5511    3.4253    0.4594 C   0  0  0  0  0  0  0  0  0  0  0  0
    5.6427    0.1261   -1.1437 C   0  0  0  0  0  0  0  0  0  0  0  0
    5.3247    0.0124    1.2377 C   0  0  0  0  0  0  0  0  0  0  0  0
    7.0073    0.1581   -0.9056 C   0  0  0  0  0  0  0  0  0  0  0  0
    6.7036    0.0495    1.3692 C   0  0  0  0  0  0  0  0  0  0  0  0
   -3.3219   -0.8056   -1.3622 H   0  0  0  0  0  0  0  0  0  0  0  0
   -5.2243   -1.5868    0.9083 H   0  0  0  0  0  0  0  0  0  0  0  0
   -5.6820   -1.3394   -0.7561 H   0  0  0  0  0  0  0  0  0  0  0  0
   -2.8083   -1.6384    1.3920 H   0  0  0  0  0  0  0  0  0  0  0  0
   -4.1829   -3.2281   -1.4626 H   0  0  0  0  0  0  0  0  0  0  0  0
   -3.7338   -3.4998    0.2402 H   0  0  0  0  0  0  0  0  0  0  0  0
   -4.5554    1.1708   -2.0803 H   0  0  0  0  0  0  0  0  0  0  0  0
   -3.4723    0.6499    2.0720 H   0  0  0  0  0  0  0  0  0  0  0  0
    2.9651   -1.1912    1.5394 H   0  0  0  0  0  0  0  0  0  0  0  0
    0.9819    1.1338   -2.4039 H   0  0  0  0  0  0  0  0  0  0  0  0
   -5.0698    3.5439   -1.6279 H   0  0  0  0  0  0  0  0  0  0  0  0
   -3.9734    3.0090    2.4922 H   0  0  0  0  0  0  0  0  0  0  0  0
    3.3892    1.2104   -2.0586 H   0  0  0  0  0  0  0  0  0  0  0  0
   -4.7797    4.4687    0.6559 H   0  0  0  0  0  0  0  0  0  0  0  0
   -5.4441   -4.8193   -0.4401 H   0  0  0  0  0  0  0  0  0  0  0  0
    5.2968    0.1303   -2.1715 H   0  0  0  0  0  0  0  0  0  0  0  0
    4.7200   -0.0153    2.1376 H   0  0  0  0  0  0  0  0  0  0  0  0
    7.7139    0.2084   -1.7275 H   0  0  0  0  0  0  0  0  0  0  0  0
    7.1692    0.0288    2.3491 H   0  0  0  0  0  0  0  0  0  0  0  0
  1 10  1  0  0  0  0
  1 11  1  0  0  0  0
  2  9  1  0  0  0  0
  2 41  1  0  0  0  0
  3  6  1  0  0  0  0
  3 10  1  0  0  0  0
  3 30  1  0  0  0  0
  4 10  2  0  0  0  0
  4 14  1  0  0  0  0
  5 25  2  0  0  0  0
  5 26  1  0  0  0  0
  6  7  1  0  0  0  0
  6  8  1  0  0  0  0
  6 27  1  0  0  0  0
  7  9  1  0  0  0  0
  7 28  1  0  0  0  0
  7 29  1  0  0  0  0
  8 12  2  0  0  0  0
  8 13  1  0  0  0  0
  9 31  1  0  0  0  0
  9 32  1  0  0  0  0
 11 14  2  0  0  0  0
 11 16  1  0  0  0  0
 12 18  1  0  0  0  0
 12 33  1  0  0  0  0
 13 19  2  0  0  0  0
 13 34  1  0  0  0  0
 14 17  1  0  0  0  0
 15 16  2  0  0  0  0
 15 20  1  0  0  0  0
 15 21  1  0  0  0  0
 16 35  1  0  0  0  0
 17 20  2  0  0  0  0
 17 36  1  0  0  0  0
 18 22  2  0  0  0  0
 18 37  1  0  0  0  0
 19 22  1  0  0  0  0
 19 38  1  0  0  0  0
 20 39  1  0  0  0  0
 21 23  2  0  0  0  0
 21 24  1  0  0  0  0
 22 40  1  0  0  0  0
 23 25  1  0  0  0  0
 23 42  1  0  0  0  0
 24 26  2  0  0  0  0
 24 43  1  0  0  0  0
 25 44  1  0  0  0  0
 26 45  1  0  0  0  0
M  END
> <PUBCHEM_COMPOUND_CID>
49830486

> <PUBCHEM_CONFORMER_RMSD>
0.8

> <PUBCHEM_CONFORMER_DIVERSEORDER>
1
88
71
64
60
85
55
79
86
72
98
45
33
67
63
7
77
46
78
2
36
19
35
56
15
24
11
93
59
87
81
58
97
30
95
66
51
20
39
44
32
83
89
27
53
40
74
6
69
43
82
68
28
65
22
96
21
84
57
10
73
70
47
76
48
12
38
41
18
75
52
25
29
3
94
31
62
17
90
9
91
80
50
37
14
54
92
26
5
16
23
34
8
61
42
13
49
4

> <PUBCHEM_MMFF94_PARTIAL_CHARGES>
37
1 -0.08
10 0.46
11 0.04
12 -0.15
13 -0.15
14 0.23
16 -0.15
17 -0.15
18 -0.15
19 -0.15
2 -0.68
20 -0.15
22 -0.15
23 -0.15
24 -0.15
25 0.16
26 0.16
3 -0.85
30 0.4
33 0.15
34 0.15
35 0.15
36 0.15
37 0.15
38 0.15
39 0.15
4 -0.57
40 0.15
41 0.4
42 0.15
43 0.15
44 0.15
45 0.15
5 -0.62
6 0.51
8 -0.14
9 0.28

> <PUBCHEM_EFFECTIVE_ROTOR_COUNT>
6

> <PUBCHEM_PHARMACOPHORE_FEATURES>
9
1 2 acceptor
1 2 donor
1 3 donor
1 5 acceptor
3 3 4 10 cation
5 1 4 10 11 14 rings
6 11 14 15 16 17 20 rings
6 5 21 23 24 25 26 rings
6 8 12 13 18 19 22 rings

> <PUBCHEM_HEAVY_ATOM_COUNT>
26

> <PUBCHEM_ATOM_DEF_STEREO_COUNT>
0

> <PUBCHEM_ATOM_UDEF_STEREO_COUNT>
1

> <PUBCHEM_BOND_DEF_STEREO_COUNT>
0

> <PUBCHEM_BOND_UDEF_STEREO_COUNT>
0

> <PUBCHEM_ISOTOPIC_ATOM_COUNT>
0

> <PUBCHEM_COMPONENT_COUNT>
1

> <PUBCHEM_CACTVS_TAUTO_COUNT>
4

> <PUBCHEM_CONFORMER_ID>
02F85A5600000001

> <PUBCHEM_MMFF94_ENERGY>
72.882

> <PUBCHEM_FEATURE_SELFOVERLAP>
45.743

> <PUBCHEM_SHAPE_FINGERPRINT>
10291535 26 17845940637127656009
10411042 1 18123750022961319903
10763959 59 17131826565466394776
10906281 52 17531262638625564226
11007060 377 16805604832231730472
11101153 10 18191873537791682085
11135609 201 17914061894071849617
11315181 36 18261110802709510157
11545043 162 18201718478848608778
12107183 9 17974843965341632195
12166972 35 18115025337015329476
12236239 1 18113898260988625746
12403260 363 18188492496522826709
12422481 6 17313944096206422548
13583140 156 17704064101537860855
13631057 29 18410569635120285267
14068700 675 18191021399648620503
14118638 360 18409727340003529659
14251764 18 17530970180515345684
14294032 229 18410295771210491905
14466204 15 18333731282487872448
15021287 119 16805328790330731572
15183329 4 17458344156915977038
15419008 47 17775282793841867905
15439362 3 17909834232732824431
15475509 8 17969522420132722310
1577012 14 17967534563160071412
15876981 60 18335706065669634797
17780758 139 13695876887556786541
17844677 252 18341053020648086176
19489759 90 18413389847373233203
20771845 65 17627795538077268419
21033648 29 17417517064992984416
21033650 10 18194148302578688510
21130935 74 18408597051436624530
21236236 1 18261110781319127999
21315763 129 18340767134787584664
21623969 137 14924231495604592296
21814621 53 17917428697153865466
23081809 10 17821449067295286926
23522609 53 17750255663643409940
23559900 14 18128830646453212806
23569943 247 17533199892172806090
24771293 8 17967818297580309068
249057 25 18040721410857193812
2838139 119 17774999055802766960
32027 91 17842009784084763854
3418910 222 18199474449001060288
397830 11 17701528731225502306
4015057 19 14620500268659132746
4169191 19 17023758952022287076
5104073 3 18187647942517017947
57634706 229 17844546409376541809
6086070 43 17822835567994652244
6327066 14 18190456053156617845
6328613 192 17968104153107143700
7226269 152 18336831896667349224
9831232 110 18271253708453342174

> <PUBCHEM_SHAPE_MULTIPOLES>
518.1
18.35
3.03
1.41
23.41
0.64
-0.13
-2.18
-0.38
-10.27
-0.07
0.66
-0.39
-1.18

> <PUBCHEM_SHAPE_SELFOVERLAP>
1124.031

> <PUBCHEM_SHAPE_VOLUME>
284.5

> <PUBCHEM_COORDINATE_TYPE>
2
5
10

$$$$
