44410956
  -OEChem-10062122003D

 57 59  0     1  0  0  0  0  0999 V2000
   -6.8589   -2.8837   -1.5513 Cl  0  0  0  0  0  0  0  0  0  0  0  0
   -4.3236   -1.4982   -2.1694 F   0  0  0  0  0  0  0  0  0  0  0  0
    6.3599   -1.6105   -1.6924 O   0  0  0  0  0  0  0  0  0  0  0  0
    3.2604    1.9651   -0.3185 O   0  0  0  0  0  0  0  0  0  0  0  0
    3.8143   -2.6138    2.9181 O   0  0  0  0  0  0  0  0  0  0  0  0
    3.1641   -0.9571    0.0230 N   0  0  1  0  0  0  0  0  0  0  0  0
    3.5883   -0.3357    2.7464 N   0  0  0  0  0  0  0  0  0  0  0  0
   -1.0725    3.7732    0.4644 N   0  0  0  0  0  0  0  0  0  0  0  0
   -2.8750    0.1768   -0.5082 N   0  0  0  0  0  0  0  0  0  0  0  0
   -3.0466    2.4225    0.1719 N   0  0  0  0  0  0  0  0  0  0  0  0
    2.2073   -0.5946   -1.0233 C   0  0  0  0  0  0  0  0  0  0  0  0
    2.4980   -1.7101    1.0846 C   0  0  1  0  0  0  0  0  0  0  0  0
    4.2669   -1.7338   -0.5411 C   0  0  0  0  0  0  0  0  0  0  0  0
    1.3476    0.5604   -0.6304 C   0  0  0  0  0  0  0  0  0  0  0  0
    2.3082   -3.1619    0.6631 C   0  0  0  0  0  0  0  0  0  0  0  0
    5.3012   -0.8163   -1.1737 C   0  0  0  0  0  0  0  0  0  0  0  0
   -0.0348    0.4069   -0.5987 C   0  0  0  0  0  0  0  0  0  0  0  0
    1.9093    1.7875   -0.2956 C   0  0  0  0  0  0  0  0  0  0  0  0
   -0.8540    1.4881   -0.2300 C   0  0  0  0  0  0  0  0  0  0  0  0
    3.3583   -1.6324    2.3362 C   0  0  0  0  0  0  0  0  0  0  0  0
   -0.2985    2.7324    0.1103 C   0  0  0  0  0  0  0  0  0  0  0  0
    1.0880    2.8580    0.0700 C   0  0  0  0  0  0  0  0  0  0  0  0
   -2.2422    1.4011   -0.1780 C   0  0  0  0  0  0  0  0  0  0  0  0
   -2.4043    3.5617    0.4761 C   0  0  0  0  0  0  0  0  0  0  0  0
   -4.0719   -0.4171   -0.0772 C   0  0  0  0  0  0  0  0  0  0  0  0
    7.3535   -0.8103   -2.3183 C   0  0  0  0  0  0  0  0  0  0  0  0
    3.7497    3.2560    0.0394 C   0  0  0  0  0  0  0  0  0  0  0  0
   -4.7848   -1.2574   -0.9325 C   0  0  0  0  0  0  0  0  0  0  0  0
   -4.5477   -0.1649    1.2094 C   0  0  0  0  0  0  0  0  0  0  0  0
   -5.9737   -1.8455   -0.5010 C   0  0  0  0  0  0  0  0  0  0  0  0
   -5.7366   -0.7530    1.6409 C   0  0  0  0  0  0  0  0  0  0  0  0
   -6.4498   -1.5932    0.7857 C   0  0  0  0  0  0  0  0  0  0  0  0
    1.5992   -1.4466   -1.3500 H   0  0  0  0  0  0  0  0  0  0  0  0
    2.7248   -0.2726   -1.9364 H   0  0  0  0  0  0  0  0  0  0  0  0
    1.5280   -1.2750    1.3559 H   0  0  0  0  0  0  0  0  0  0  0  0
    3.9367   -2.4782   -1.2787 H   0  0  0  0  0  0  0  0  0  0  0  0
    4.8153   -2.2907    0.2306 H   0  0  0  0  0  0  0  0  0  0  0  0
    1.7804   -3.2753   -0.2884 H   0  0  0  0  0  0  0  0  0  0  0  0
    3.2312   -3.7506    0.6229 H   0  0  0  0  0  0  0  0  0  0  0  0
    1.6827   -3.6657    1.4121 H   0  0  0  0  0  0  0  0  0  0  0  0
    5.7026   -0.1250   -0.4222 H   0  0  0  0  0  0  0  0  0  0  0  0
    4.8715   -0.2276   -1.9910 H   0  0  0  0  0  0  0  0  0  0  0  0
   -0.4579   -0.5614   -0.8534 H   0  0  0  0  0  0  0  0  0  0  0  0
    1.4777    3.8354    0.3400 H   0  0  0  0  0  0  0  0  0  0  0  0
    3.2102    0.4638    2.2483 H   0  0  0  0  0  0  0  0  0  0  0  0
    4.1514   -0.1392    3.5671 H   0  0  0  0  0  0  0  0  0  0  0  0
   -2.5026   -0.2457   -1.3543 H   0  0  0  0  0  0  0  0  0  0  0  0
   -3.0223    4.4040    0.7623 H   0  0  0  0  0  0  0  0  0  0  0  0
    8.1427   -1.4697   -2.6895 H   0  0  0  0  0  0  0  0  0  0  0  0
    7.7923   -0.1111   -1.5999 H   0  0  0  0  0  0  0  0  0  0  0  0
    6.9288   -0.2636   -3.1658 H   0  0  0  0  0  0  0  0  0  0  0  0
    4.8416    3.2158   -0.0339 H   0  0  0  0  0  0  0  0  0  0  0  0
    3.5124    3.5042    1.0796 H   0  0  0  0  0  0  0  0  0  0  0  0
    3.4141    4.0256   -0.6639 H   0  0  0  0  0  0  0  0  0  0  0  0
   -4.0040    0.4742    1.8999 H   0  0  0  0  0  0  0  0  0  0  0  0
   -6.1056   -0.5594    2.6439 H   0  0  0  0  0  0  0  0  0  0  0  0
   -7.3743   -2.0448    1.1362 H   0  0  0  0  0  0  0  0  0  0  0  0
  1 30  1  0  0  0  0
  2 28  1  0  0  0  0
  3 16  1  0  0  0  0
  3 26  1  0  0  0  0
  4 18  1  0  0  0  0
  4 27  1  0  0  0  0
  5 20  2  0  0  0  0
  6 11  1  0  0  0  0
  6 12  1  0  0  0  0
  6 13  1  0  0  0  0
  7 20  1  0  0  0  0
  7 45  1  0  0  0  0
  7 46  1  0  0  0  0
  8 21  1  0  0  0  0
  8 24  2  0  0  0  0
  9 23  1  0  0  0  0
  9 25  1  0  0  0  0
  9 47  1  0  0  0  0
 10 23  2  0  0  0  0
 10 24  1  0  0  0  0
 11 14  1  0  0  0  0
 11 33  1  0  0  0  0
 11 34  1  0  0  0  0
 12 15  1  0  0  0  0
 12 20  1  0  0  0  0
 12 35  1  0  0  0  0
 13 16  1  0  0  0  0
 13 36  1  0  0  0  0
 13 37  1  0  0  0  0
 14 17  2  0  0  0  0
 14 18  1  0  0  0  0
 15 38  1  0  0  0  0
 15 39  1  0  0  0  0
 15 40  1  0  0  0  0
 16 41  1  0  0  0  0
 16 42  1  0  0  0  0
 17 19  1  0  0  0  0
 17 43  1  0  0  0  0
 18 22  2  0  0  0  0
 19 21  2  0  0  0  0
 19 23  1  0  0  0  0
 21 22  1  0  0  0  0
 22 44  1  0  0  0  0
 24 48  1  0  0  0  0
 25 28  2  0  0  0  0
 25 29  1  0  0  0  0
 26 49  1  0  0  0  0
 26 50  1  0  0  0  0
 26 51  1  0  0  0  0
 27 52  1  0  0  0  0
 27 53  1  0  0  0  0
 27 54  1  0  0  0  0
 28 30  1  0  0  0  0
 29 31  2  0  0  0  0
 29 55  1  0  0  0  0
 30 32  2  0  0  0  0
 31 32  1  0  0  0  0
 31 56  1  0  0  0  0
 32 57  1  0  0  0  0
M  END
> <PUBCHEM_COMPOUND_CID>
44410956

> <PUBCHEM_CONFORMER_RMSD>
1

> <PUBCHEM_CONFORMER_DIVERSEORDER>
1
34
136
143
121
88
86
112
76
118
67
119
140
5
68
82
146
18
9
72
36
79
24
133
135
116
141
69
59
63
53
123
149
137
102
23
27
92
28
125
81
128
127
104
120
84
13
151
139
64
71
115
58
144
148
131
65
33
16
8
101
46
54
73
96
44
70
105
55
47
110
40
56
87
147
48
14
31
38
45
108
93
41
75
60
124
6
57
122
97
100
150
12
78
42
103
113
15
126
17
138
39
4
98
80
50
106
99
130
19
85
77
49
145
134
66
107
109
26
52
43
3
7
83
20
89
62
32
35
74
94
30
10
29
37
114
90
11
91
117
2
132
61
142
95
129
22
25
111
51
21

> <PUBCHEM_MMFF94_PARTIAL_CHARGES>
39
1 -0.18
10 -0.62
11 0.41
12 0.33
13 0.27
14 -0.14
16 0.28
17 -0.15
18 0.08
2 -0.19
20 0.57
21 0.31
22 -0.15
23 0.41
24 0.47
25 0.1
26 0.28
27 0.28
28 0.19
29 -0.15
3 -0.56
30 0.18
31 -0.15
32 -0.15
4 -0.36
43 0.15
44 0.15
45 0.37
46 0.37
47 0.4
48 0.15
5 -0.57
55 0.15
56 0.15
57 0.15
6 -0.81
7 -0.8
8 -0.62
9 -0.6

> <PUBCHEM_EFFECTIVE_ROTOR_COUNT>
10

> <PUBCHEM_PHARMACOPHORE_FEATURES>
11
1 3 acceptor
1 4 acceptor
1 5 acceptor
1 6 cation
1 7 donor
1 9 donor
3 8 10 24 cation
3 9 10 23 cation
6 14 17 18 19 21 22 rings
6 25 28 29 30 31 32 rings
6 8 10 19 21 23 24 rings

> <PUBCHEM_HEAVY_ATOM_COUNT>
32

> <PUBCHEM_ATOM_DEF_STEREO_COUNT>
1

> <PUBCHEM_ATOM_UDEF_STEREO_COUNT>
0

> <PUBCHEM_BOND_DEF_STEREO_COUNT>
0

> <PUBCHEM_BOND_UDEF_STEREO_COUNT>
0

> <PUBCHEM_ISOTOPIC_ATOM_COUNT>
0

> <PUBCHEM_COMPONENT_COUNT>
1

> <PUBCHEM_CACTVS_TAUTO_COUNT>
6

> <PUBCHEM_CONFORMER_ID>
02A5A84C00000001

> <PUBCHEM_MMFF94_ENERGY>
114.8016

> <PUBCHEM_FEATURE_SELFOVERLAP>
55.993

> <PUBCHEM_SHAPE_FINGERPRINT>
10622 236 17897152538147697307
11991303 11 17826507770124641957
12107183 9 18200611202901449049
12422481 6 17632577137266057031
12553582 1 18411132533185803071
12788726 201 18334578997167638411
13140716 1 17692814104948259913
13631057 29 18336836299124222660
13690498 29 18336834095463427237
14117953 113 18131631167568564167
14251740 57 18202279242558297962
14767858 380 18115324331828110350
14931854 50 17967536752697334199
17492 89 18411416168108661110
19319366 153 18045218490523703268
19841028 212 18197492030105827167
20028762 73 18202002153028845975
20775530 9 18333731312710697957
208703 8 18271525390171102303
21033648 29 13254255864991179209
21421861 104 18410012156401142513
21703447 108 18338225055045706993
21774942 28 12829480459253010358
21796203 349 17980238375967469851
23522609 53 17910998816909935733
23559900 14 18200309897227652772
25222932 49 18050288369237535935
25269216 80 15792020008856047347
3004659 81 18333729130909288935
345986 75 18201722877597136577
404807 78 16662071324193110746
463206 1 18264489658167098379
57527295 17 18040429971925536691
6058803 2 17681277651461191984
6823239 73 18130782297167880032

> <PUBCHEM_SHAPE_MULTIPOLES>
610.63
16.52
4.34
2.01
7.73
3.07
-0.95
-15.55
5.53
-0.22
-0.6
-2.19
-1.92
-1.84

> <PUBCHEM_SHAPE_SELFOVERLAP>
1295.857

> <PUBCHEM_SHAPE_VOLUME>
343

> <PUBCHEM_COORDINATE_TYPE>
2
5
10

$$$$
