51000510
  -OEChem-10062121563D

 32 35  0     0  0  0  0  0  0999 V2000
   -2.2010    2.0854    0.0006 O   0  0  0  0  0  0  0  0  0  0  0  0
    3.2123    2.0909   -0.0005 O   0  0  0  0  0  0  0  0  0  0  0  0
   -2.8496   -3.3358    0.0004 O   0  0  0  0  0  0  0  0  0  0  0  0
   -0.2030    3.3842    0.0003 N   0  0  0  0  0  0  0  0  0  0  0  0
   -0.2589    0.9324    0.0000 C   0  0  0  0  0  0  0  0  0  0  0  0
   -1.3319   -0.0024   -0.0001 C   0  0  0  0  0  0  0  0  0  0  0  0
    1.1435    0.8652   -0.0004 C   0  0  0  0  0  0  0  0  0  0  0  0
   -2.4977    0.7564    0.0003 C   0  0  0  0  0  0  0  0  0  0  0  0
   -0.8419    2.1985    0.0003 C   0  0  0  0  0  0  0  0  0  0  0  0
    1.8042   -0.4184    0.0001 C   0  0  0  0  0  0  0  0  0  0  0  0
   -1.4457   -1.4048   -0.0004 C   0  0  0  0  0  0  0  0  0  0  0  0
    1.8522    2.0649   -0.0008 C   0  0  0  0  0  0  0  0  0  0  0  0
   -3.7822    0.2152    0.0002 C   0  0  0  0  0  0  0  0  0  0  0  0
   -2.7246   -1.9778   -0.0005 C   0  0  0  0  0  0  0  0  0  0  0  0
    1.1440    3.2588   -0.0002 C   0  0  0  0  0  0  0  0  0  0  0  0
   -3.8710   -1.1799   -0.0002 C   0  0  0  0  0  0  0  0  0  0  0  0
    2.1229   -1.0388   -1.2078 C   0  0  0  0  0  0  0  0  0  0  0  0
    2.1239   -1.0379    1.2081 C   0  0  0  0  0  0  0  0  0  0  0  0
    2.7614   -2.2791   -1.2078 C   0  0  0  0  0  0  0  0  0  0  0  0
    2.7624   -2.2781    1.2083 C   0  0  0  0  0  0  0  0  0  0  0  0
    3.0810   -2.8987    0.0003 C   0  0  0  0  0  0  0  0  0  0  0  0
   -0.5660   -2.0398   -0.0004 H   0  0  0  0  0  0  0  0  0  0  0  0
   -4.6670    0.8407    0.0005 H   0  0  0  0  0  0  0  0  0  0  0  0
    1.6694    4.2110   -0.0001 H   0  0  0  0  0  0  0  0  0  0  0  0
   -4.8539   -1.6457   -0.0001 H   0  0  0  0  0  0  0  0  0  0  0  0
    1.8803   -0.5697   -2.1585 H   0  0  0  0  0  0  0  0  0  0  0  0
    1.8821   -0.5682    2.1586 H   0  0  0  0  0  0  0  0  0  0  0  0
    3.0092   -2.7625   -2.1483 H   0  0  0  0  0  0  0  0  0  0  0  0
    3.0111   -2.7608    2.1488 H   0  0  0  0  0  0  0  0  0  0  0  0
    3.5778   -3.8645    0.0005 H   0  0  0  0  0  0  0  0  0  0  0  0
    3.5129    3.0159   -0.0007 H   0  0  0  0  0  0  0  0  0  0  0  0
   -1.9625   -3.7347    0.0001 H   0  0  0  0  0  0  0  0  0  0  0  0
  1  8  1  0  0  0  0
  1  9  1  0  0  0  0
  2 12  1  0  0  0  0
  2 31  1  0  0  0  0
  3 14  1  0  0  0  0
  3 32  1  0  0  0  0
  4  9  2  0  0  0  0
  4 15  1  0  0  0  0
  5  6  1  0  0  0  0
  5  7  2  0  0  0  0
  5  9  1  0  0  0  0
  6  8  2  0  0  0  0
  6 11  1  0  0  0  0
  7 10  1  0  0  0  0
  7 12  1  0  0  0  0
  8 13  1  0  0  0  0
 10 17  2  0  0  0  0
 10 18  1  0  0  0  0
 11 14  2  0  0  0  0
 11 22  1  0  0  0  0
 12 15  2  0  0  0  0
 13 16  2  0  0  0  0
 13 23  1  0  0  0  0
 14 16  1  0  0  0  0
 15 24  1  0  0  0  0
 16 25  1  0  0  0  0
 17 19  1  0  0  0  0
 17 26  1  0  0  0  0
 18 20  2  0  0  0  0
 18 27  1  0  0  0  0
 19 21  2  0  0  0  0
 19 28  1  0  0  0  0
 20 21  1  0  0  0  0
 20 29  1  0  0  0  0
 21 30  1  0  0  0  0
M  END
> <PUBCHEM_COMPOUND_CID>
51000510

> <PUBCHEM_CONFORMER_RMSD>
0.6

> <PUBCHEM_CONFORMER_DIVERSEORDER>
1

> <PUBCHEM_MMFF94_PARTIAL_CHARGES>
28
1 -0.28
11 -0.15
12 0.08
13 -0.15
14 0.08
15 0.16
16 -0.15
17 -0.15
18 -0.15
19 -0.15
2 -0.53
20 -0.15
21 -0.15
22 0.15
23 0.15
24 0.15
25 0.15
26 0.15
27 0.15
28 0.15
29 0.15
3 -0.53
30 0.15
31 0.45
32 0.45
4 -0.57
8 0.14
9 0.4

> <PUBCHEM_EFFECTIVE_ROTOR_COUNT>
1

> <PUBCHEM_PHARMACOPHORE_FEATURES>
6
1 2 donor
1 3 donor
5 1 5 6 8 9 rings
6 10 17 18 19 20 21 rings
6 4 5 7 9 12 15 rings
6 6 8 11 13 14 16 rings

> <PUBCHEM_HEAVY_ATOM_COUNT>
21

> <PUBCHEM_ATOM_DEF_STEREO_COUNT>
0

> <PUBCHEM_ATOM_UDEF_STEREO_COUNT>
0

> <PUBCHEM_BOND_DEF_STEREO_COUNT>
0

> <PUBCHEM_BOND_UDEF_STEREO_COUNT>
0

> <PUBCHEM_ISOTOPIC_ATOM_COUNT>
0

> <PUBCHEM_COMPONENT_COUNT>
1

> <PUBCHEM_CACTVS_TAUTO_COUNT>
8

> <PUBCHEM_CONFORMER_ID>
030A34BE00000001

> <PUBCHEM_MMFF94_ENERGY>
57.0472

> <PUBCHEM_FEATURE_SELFOVERLAP>
30.666

> <PUBCHEM_SHAPE_FINGERPRINT>
10319926 262 17619038674964888154
10616163 171 18123470746232015039
10967382 1 18410856606979453313
1100329 8 18123753058843717937
11578080 2 17386830739265656900
116883 192 18269272374485519717
12553582 1 18338805494068657391
12839892 36 18195507406768024440
13083527 12 18120627344585018362
13140716 1 18195811769451856145
138480 1 18410575106206591107
14178342 30 18197492033582584369
14223421 5 18338515360553558765
14790565 3 17547870559367726384
15442244 35 18411983538053110441
16752209 62 17902505983090485637
16945 1 17978509737119036801
19591789 44 17690563412881864590
20028762 73 17336188642350428918
20510252 161 17694495945357943880
20600515 1 17837764535482558232
20645477 70 18267017439836552743
20905425 154 18412832403831824548
21197605 99 15670150491140571458
21421861 104 18334296500067514417
21452121 199 18338786854010449360
21634736 98 18261684666502183414
21756936 100 14043163231754035650
23184049 29 18409726223042286178
2334 1 18410572898751734473
23366157 5 18187087260702025556
23557571 272 17984138159386721854
23559900 14 18341044134392327704
2748010 2 18337945697582526301
3084891 72 17762049939726283581
34934 24 18339920523555484301
43471831 8 18049719916802890369
5902787 121 18337669694435984994
6138700 20 18338525239886019476
7364860 26 18340770441695929796
81228 2 18054507997883903481
9709674 26 18338236076253190919

> <PUBCHEM_SHAPE_MULTIPOLES>
409.58
6.01
4.26
0.89
1.76
1.32
0
-4.32
0
-0.76
0
-0.76
-0.42
0

> <PUBCHEM_SHAPE_SELFOVERLAP>
939.604

> <PUBCHEM_SHAPE_VOLUME>
211.5

> <PUBCHEM_COORDINATE_TYPE>
2
5
10

$$$$
