49830463
  -OEChem-10062121543D

 44 47  0     0  0  0  0  0  0999 V2000
   -0.7969    0.0496   -1.7223 O   0  0  0  0  0  0  0  0  0  0  0  0
   -1.6064    0.6229    1.3316 N   0  0  0  0  0  0  0  0  0  0  0  0
    0.0324   -0.0284    2.5632 N   0  0  0  0  0  0  0  0  0  0  0  0
   -1.2679    0.2434    2.5744 N   0  0  0  0  0  0  0  0  0  0  0  0
   -0.3170    2.2958   -1.2887 N   0  0  0  0  0  0  0  0  0  0  0  0
    5.6648   -0.7319   -0.4490 N   0  0  0  0  0  0  0  0  0  0  0  0
    5.5239   -1.6657   -1.4046 N   0  0  0  0  0  0  0  0  0  0  0  0
   -0.5353    0.6056    0.4923 C   0  0  0  0  0  0  0  0  0  0  0  0
    0.4961    0.1883    1.2955 C   0  0  0  0  0  0  0  0  0  0  0  0
    1.8626   -0.0005    0.8926 C   0  0  0  0  0  0  0  0  0  0  0  0
   -2.9691    0.9838    1.0290 C   0  0  0  0  0  0  0  0  0  0  0  0
    3.5022   -1.0923   -0.4982 C   0  0  0  0  0  0  0  0  0  0  0  0
    2.1604   -0.9234   -0.1179 C   0  0  0  0  0  0  0  0  0  0  0  0
   -3.7298   -0.1027    0.3103 C   0  0  0  0  0  0  0  0  0  0  0  0
   -0.5547    0.9531   -0.8924 C   0  0  0  0  0  0  0  0  0  0  0  0
    4.4888   -0.3444    0.1347 C   0  0  0  0  0  0  0  0  0  0  0  0
    2.8731    0.7377    1.5115 C   0  0  0  0  0  0  0  0  0  0  0  0
    4.2134    0.5807    1.1440 C   0  0  0  0  0  0  0  0  0  0  0  0
    4.2069   -1.8824   -1.4315 C   0  0  0  0  0  0  0  0  0  0  0  0
   -4.3159    0.1583   -0.9282 C   0  0  0  0  0  0  0  0  0  0  0  0
   -3.8470   -1.3684    0.8844 C   0  0  0  0  0  0  0  0  0  0  0  0
   -0.3463    2.6773   -2.6938 C   0  0  0  0  0  0  0  0  0  0  0  0
   -0.0319    3.3754   -0.3458 C   0  0  0  0  0  0  0  0  0  0  0  0
   -5.0194   -0.8464   -1.5927 C   0  0  0  0  0  0  0  0  0  0  0  0
   -4.5503   -2.3732    0.2201 C   0  0  0  0  0  0  0  0  0  0  0  0
   -5.1367   -2.1121   -1.0184 C   0  0  0  0  0  0  0  0  0  0  0  0
   -3.4810    1.2278    1.9680 H   0  0  0  0  0  0  0  0  0  0  0  0
   -2.9370    1.9075    0.4392 H   0  0  0  0  0  0  0  0  0  0  0  0
    1.3831   -1.5099   -0.5998 H   0  0  0  0  0  0  0  0  0  0  0  0
    2.6320    1.4546    2.2945 H   0  0  0  0  0  0  0  0  0  0  0  0
    4.9996    1.1536    1.6230 H   0  0  0  0  0  0  0  0  0  0  0  0
    3.8135   -2.6073   -2.1302 H   0  0  0  0  0  0  0  0  0  0  0  0
   -4.2314    1.1393   -1.3880 H   0  0  0  0  0  0  0  0  0  0  0  0
   -3.4052   -1.5881    1.8523 H   0  0  0  0  0  0  0  0  0  0  0  0
    6.5976   -0.3979   -0.2412 H   0  0  0  0  0  0  0  0  0  0  0  0
    0.6284    3.0917   -2.9670 H   0  0  0  0  0  0  0  0  0  0  0  0
   -0.5623    1.8214   -3.3376 H   0  0  0  0  0  0  0  0  0  0  0  0
   -1.1218    3.4352   -2.8371 H   0  0  0  0  0  0  0  0  0  0  0  0
   -0.7913    4.1533   -0.4685 H   0  0  0  0  0  0  0  0  0  0  0  0
   -0.0350    3.0459    0.6935 H   0  0  0  0  0  0  0  0  0  0  0  0
    0.9534    3.7891   -0.5801 H   0  0  0  0  0  0  0  0  0  0  0  0
   -5.4755   -0.6434   -2.5572 H   0  0  0  0  0  0  0  0  0  0  0  0
   -4.6434   -3.3583    0.6679 H   0  0  0  0  0  0  0  0  0  0  0  0
   -5.6846   -2.8944   -1.5355 H   0  0  0  0  0  0  0  0  0  0  0  0
  1 15  2  0  0  0  0
  2  4  1  0  0  0  0
  2  8  1  0  0  0  0
  2 11  1  0  0  0  0
  3  4  2  0  0  0  0
  3  9  1  0  0  0  0
  5 15  1  0  0  0  0
  5 22  1  0  0  0  0
  5 23  1  0  0  0  0
  6  7  1  0  0  0  0
  6 16  1  0  0  0  0
  6 35  1  0  0  0  0
  7 19  2  0  0  0  0
  8  9  2  0  0  0  0
  8 15  1  0  0  0  0
  9 10  1  0  0  0  0
 10 13  2  0  0  0  0
 10 17  1  0  0  0  0
 11 14  1  0  0  0  0
 11 27  1  0  0  0  0
 11 28  1  0  0  0  0
 12 13  1  0  0  0  0
 12 16  2  0  0  0  0
 12 19  1  0  0  0  0
 13 29  1  0  0  0  0
 14 20  2  0  0  0  0
 14 21  1  0  0  0  0
 16 18  1  0  0  0  0
 17 18  2  0  0  0  0
 17 30  1  0  0  0  0
 18 31  1  0  0  0  0
 19 32  1  0  0  0  0
 20 24  1  0  0  0  0
 20 33  1  0  0  0  0
 21 25  2  0  0  0  0
 21 34  1  0  0  0  0
 22 36  1  0  0  0  0
 22 37  1  0  0  0  0
 22 38  1  0  0  0  0
 23 39  1  0  0  0  0
 23 40  1  0  0  0  0
 23 41  1  0  0  0  0
 24 26  2  0  0  0  0
 24 42  1  0  0  0  0
 25 26  1  0  0  0  0
 25 43  1  0  0  0  0
 26 44  1  0  0  0  0
M  END
> <PUBCHEM_COMPOUND_CID>
49830463

> <PUBCHEM_CONFORMER_RMSD>
0.8

> <PUBCHEM_CONFORMER_DIVERSEORDER>
1
10
49
30
31
28
39
46
47
8
43
14
26
40
38
48
22
29
13
17
7
5
9
2
32
33
19
24
36
20
45
18
34
6
12
27
37
44
15
23
21
42
11
4
35
50
25
41
3
16

> <PUBCHEM_MMFF94_PARTIAL_CHARGES>
35
1 -0.57
10 0.05
11 0.4
13 -0.15
14 -0.14
15 0.71
16 -0.15
17 -0.15
18 -0.15
19 0.14
2 0.31
20 -0.15
21 -0.15
22 0.3
23 0.3
24 -0.15
25 -0.15
26 -0.15
29 0.15
3 -0.23
30 0.15
31 0.15
32 0.15
33 0.15
34 0.15
35 0.27
4 -0.42
42 0.15
43 0.15
44 0.15
5 -0.66
6 0.3
7 -0.71
8 -0.24
9 0.17

> <PUBCHEM_EFFECTIVE_ROTOR_COUNT>
5

> <PUBCHEM_PHARMACOPHORE_FEATURES>
7
1 1 acceptor
1 6 donor
1 7 acceptor
5 2 3 4 8 9 rings
5 6 7 12 16 19 rings
6 10 12 13 16 17 18 rings
6 14 20 21 24 25 26 rings

> <PUBCHEM_HEAVY_ATOM_COUNT>
26

> <PUBCHEM_ATOM_DEF_STEREO_COUNT>
0

> <PUBCHEM_ATOM_UDEF_STEREO_COUNT>
0

> <PUBCHEM_BOND_DEF_STEREO_COUNT>
0

> <PUBCHEM_BOND_UDEF_STEREO_COUNT>
0

> <PUBCHEM_ISOTOPIC_ATOM_COUNT>
0

> <PUBCHEM_COMPONENT_COUNT>
1

> <PUBCHEM_CACTVS_TAUTO_COUNT>
6

> <PUBCHEM_CONFORMER_ID>
02F85A3F00000001

> <PUBCHEM_MMFF94_ENERGY>
62.802

> <PUBCHEM_FEATURE_SELFOVERLAP>
35.614

> <PUBCHEM_SHAPE_FINGERPRINT>
10366900 7 18040724636831164034
11135609 12 18123469642874358731
11763715 3 17916048869652797376
11961588 58 11963663482926076571
12293681 160 16588024597645751472
12422481 6 13613975356955868540
12596602 18 14476956822013207234
12633257 1 15410613748437601327
12788726 201 17023459729433730277
12839892 36 13973964346219715901
13103583 49 15769503118351700659
13149001 5 17169560811802897105
13544653 18 17917713526088272347
13583140 156 17203320083457047273
13782708 43 18341054008992250574
13911987 19 16443356363990134459
14178342 30 12966856788349698389
14739800 52 9294752856339074799
14910302 57 18266736892398730506
15209294 21 10663824065951893299
15849732 13 18264221223222860097
16752209 62 17022899013137362232
17357779 13 18114186319591506224
17492 54 15430035461226230311
17959699 21 13406796635892087142
1813 80 18335978757100120823
18222031 100 18335415794140490934
19319366 153 16412929725012856616
20261772 1 14836115568037990940
20715895 44 13912866606466927943
212916 134 11095883782583242541
21304303 64 14634878509321863623
22620623 9 18262513672362741701
23379529 103 18046635782988844915
23402539 116 17676776387731567122
23559900 14 18131343116342665225
2838139 119 12685084899732725230
34797466 226 18263075668964934625
46194498 28 17971744726153031263
465052 167 16200147763739024511
5104073 3 16558752269957968434
6786 2 17189545165893760617
6913067 236 18334848408061054386
7970288 3 17270336279992340190
999808 66 15553620487338300846

> <PUBCHEM_SHAPE_MULTIPOLES>
499.31
11.51
2.53
2.22
2.09
1.56
0.16
-9.34
-3.75
-0.85
-1.55
-0.08
0.57
0.96

> <PUBCHEM_SHAPE_SELFOVERLAP>
1101.613

> <PUBCHEM_SHAPE_VOLUME>
272.4

> <PUBCHEM_COORDINATE_TYPE>
2
5
10

$$$$
