25016360
  -OEChem-10052120443D

 57 61  0     0  0  0  0  0  0999 V2000
    0.5145   -2.4519   -1.2641 F   0  0  0  0  0  0  0  0  0  0  0  0
   -2.4634   -4.7535    1.5987 F   0  0  0  0  0  0  0  0  0  0  0  0
   -5.3382    1.7949   -2.7088 O   0  0  0  0  0  0  0  0  0  0  0  0
    1.9163    1.4408    0.5085 N   0  0  0  0  0  0  0  0  0  0  0  0
    4.5310    2.1579   -0.1295 N   0  0  0  0  0  0  0  0  0  0  0  0
    2.3936   -0.7366    0.3948 N   0  0  0  0  0  0  0  0  0  0  0  0
   -1.5101    1.1712    0.2507 N   0  0  0  0  0  0  0  0  0  0  0  0
   -3.7562    1.5146   -0.3347 N   0  0  0  0  0  0  0  0  0  0  0  0
   -2.9153    2.6406    1.5444 N   0  0  0  0  0  0  0  0  0  0  0  0
    5.5371   -0.3067   -1.7584 C   0  0  0  0  0  0  0  0  0  0  0  0
    4.6643   -1.2013   -2.5889 C   0  0  0  0  0  0  0  0  0  0  0  0
    6.0735   -1.6098   -2.2740 C   0  0  0  0  0  0  0  0  0  0  0  0
    5.2544   -0.1611   -0.3041 C   0  0  0  0  0  0  0  0  0  0  0  0
    4.2136    0.8915   -0.0505 C   0  0  0  0  0  0  0  0  0  0  0  0
    2.8694    0.4802    0.2774 C   0  0  0  0  0  0  0  0  0  0  0  0
    0.7494    0.7909    0.7937 C   0  0  0  0  0  0  0  0  0  0  0  0
    1.0689   -0.5490    0.7174 C   0  0  0  0  0  0  0  0  0  0  0  0
    2.2542    2.7780    0.4246 C   0  0  0  0  0  0  0  0  0  0  0  0
    3.5276    3.0872    0.1140 C   0  0  0  0  0  0  0  0  0  0  0  0
   -0.4977    1.4557    1.0961 C   0  0  0  0  0  0  0  0  0  0  0  0
    0.1594   -1.6329    0.9405 C   0  0  0  0  0  0  0  0  0  0  0  0
   -4.9878    0.5059   -2.1986 C   0  0  0  0  0  0  0  0  0  0  0  0
   -3.6500    0.6318   -1.4538 C   0  0  0  0  0  0  0  0  0  0  0  0
   -0.6153    2.3105    2.1730 C   0  0  0  0  0  0  0  0  0  0  0  0
   -0.0902   -2.5596   -0.0717 C   0  0  0  0  0  0  0  0  0  0  0  0
   -0.4773   -1.7603    2.1751 C   0  0  0  0  0  0  0  0  0  0  0  0
   -2.6738    1.7891    0.5295 C   0  0  0  0  0  0  0  0  0  0  0  0
   -6.1175    0.0108   -1.2915 C   0  0  0  0  0  0  0  0  0  0  0  0
   -4.8225   -0.4393   -3.3930 C   0  0  0  0  0  0  0  0  0  0  0  0
   -1.8598    2.8799    2.3501 C   0  0  0  0  0  0  0  0  0  0  0  0
   -0.9762   -3.6138    0.1506 C   0  0  0  0  0  0  0  0  0  0  0  0
   -1.3634   -2.8144    2.3975 C   0  0  0  0  0  0  0  0  0  0  0  0
   -1.6128   -3.7411    1.3851 C   0  0  0  0  0  0  0  0  0  0  0  0
    5.9168    0.6010   -2.2116 H   0  0  0  0  0  0  0  0  0  0  0  0
    3.8637   -1.7480   -2.1061 H   0  0  0  0  0  0  0  0  0  0  0  0
    4.4437   -0.8891   -3.6023 H   0  0  0  0  0  0  0  0  0  0  0  0
    6.7997   -1.5737   -3.0770 H   0  0  0  0  0  0  0  0  0  0  0  0
    6.2175   -2.4269   -1.5779 H   0  0  0  0  0  0  0  0  0  0  0  0
    6.1759    0.1482    0.2041 H   0  0  0  0  0  0  0  0  0  0  0  0
    4.9518   -1.1122    0.1486 H   0  0  0  0  0  0  0  0  0  0  0  0
    1.4971    3.5306    0.6007 H   0  0  0  0  0  0  0  0  0  0  0  0
    3.8288    4.1264    0.0361 H   0  0  0  0  0  0  0  0  0  0  0  0
   -2.8904    1.0220   -2.1433 H   0  0  0  0  0  0  0  0  0  0  0  0
   -3.3231   -0.3608   -1.1190 H   0  0  0  0  0  0  0  0  0  0  0  0
    0.2018    2.5265    2.8503 H   0  0  0  0  0  0  0  0  0  0  0  0
   -0.2912   -1.0552    2.9818 H   0  0  0  0  0  0  0  0  0  0  0  0
   -4.6120    2.0261   -0.1545 H   0  0  0  0  0  0  0  0  0  0  0  0
   -6.3543    0.7337   -0.5041 H   0  0  0  0  0  0  0  0  0  0  0  0
   -7.0435   -0.1204   -1.8638 H   0  0  0  0  0  0  0  0  0  0  0  0
   -5.8660   -0.9471   -0.8246 H   0  0  0  0  0  0  0  0  0  0  0  0
   -4.0554   -0.0670   -4.0818 H   0  0  0  0  0  0  0  0  0  0  0  0
   -4.5426   -1.4484   -3.0731 H   0  0  0  0  0  0  0  0  0  0  0  0
   -5.7505   -0.5051   -3.9726 H   0  0  0  0  0  0  0  0  0  0  0  0
   -2.0488    3.5636    3.1708 H   0  0  0  0  0  0  0  0  0  0  0  0
   -1.1705   -4.3353   -0.6374 H   0  0  0  0  0  0  0  0  0  0  0  0
   -1.8578   -2.9150    3.3591 H   0  0  0  0  0  0  0  0  0  0  0  0
   -6.1834    1.7108   -3.1824 H   0  0  0  0  0  0  0  0  0  0  0  0
  1 25  1  0  0  0  0
  2 33  1  0  0  0  0
  3 22  1  0  0  0  0
  3 57  1  0  0  0  0
  4 15  1  0  0  0  0
  4 16  1  0  0  0  0
  4 18  1  0  0  0  0
  5 14  2  0  0  0  0
  5 19  1  0  0  0  0
  6 15  2  0  0  0  0
  6 17  1  0  0  0  0
  7 20  2  0  0  0  0
  7 27  1  0  0  0  0
  8 23  1  0  0  0  0
  8 27  1  0  0  0  0
  8 47  1  0  0  0  0
  9 27  2  0  0  0  0
  9 30  1  0  0  0  0
 10 11  1  0  0  0  0
 10 12  1  0  0  0  0
 10 13  1  0  0  0  0
 10 34  1  0  0  0  0
 11 12  1  0  0  0  0
 11 35  1  0  0  0  0
 11 36  1  0  0  0  0
 12 37  1  0  0  0  0
 12 38  1  0  0  0  0
 13 14  1  0  0  0  0
 13 39  1  0  0  0  0
 13 40  1  0  0  0  0
 14 15  1  0  0  0  0
 16 17  2  0  0  0  0
 16 20  1  0  0  0  0
 17 21  1  0  0  0  0
 18 19  2  0  0  0  0
 18 41  1  0  0  0  0
 19 42  1  0  0  0  0
 20 24  1  0  0  0  0
 21 25  2  0  0  0  0
 21 26  1  0  0  0  0
 22 23  1  0  0  0  0
 22 28  1  0  0  0  0
 22 29  1  0  0  0  0
 23 43  1  0  0  0  0
 23 44  1  0  0  0  0
 24 30  2  0  0  0  0
 24 45  1  0  0  0  0
 25 31  1  0  0  0  0
 26 32  2  0  0  0  0
 26 46  1  0  0  0  0
 28 48  1  0  0  0  0
 28 49  1  0  0  0  0
 28 50  1  0  0  0  0
 29 51  1  0  0  0  0
 29 52  1  0  0  0  0
 29 53  1  0  0  0  0
 30 54  1  0  0  0  0
 31 33  2  0  0  0  0
 31 55  1  0  0  0  0
 32 33  1  0  0  0  0
 32 56  1  0  0  0  0
M  END
> <PUBCHEM_COMPOUND_CID>
25016360

> <PUBCHEM_CONFORMER_RMSD>
1

> <PUBCHEM_CONFORMER_DIVERSEORDER>
3
9
74
38
44
1
63
18
80
52
11
45
8
64
50
2
61
28
22
54
57
29
70
7
5
78
75
66
69
55
25
56
48
33
59
6
35
71
30
20
12
37
73
15
79
51
36
17
43
4
67
77
62
49
42
40
68
26
19
14
41
47
39
13
65
72
46
60
16
32
10
53
24
34
23
27
31
76
58
21

> <PUBCHEM_MMFF94_PARTIAL_CHARGES>
45
1 -0.19
10 -0.19
11 -0.2
12 -0.2
13 0.16
14 0.47
15 0.1
16 -0.2
17 0.17
18 -0.18
19 0.02
2 -0.19
20 0.36
21 0.05
22 0.28
23 0.37
24 -0.15
25 0.19
26 -0.15
27 0.72
3 -0.68
30 0.16
31 -0.15
32 -0.15
33 0.19
34 0.1
35 0.1
36 0.1
37 0.1
38 0.1
4 0.33
41 0.15
42 0.15
45 0.15
46 0.15
47 0.4
5 -0.62
54 0.15
55 0.15
56 0.15
57 0.4
6 -0.57
7 -0.62
8 -0.87
9 -0.62

> <PUBCHEM_EFFECTIVE_ROTOR_COUNT>
7.6

> <PUBCHEM_PHARMACOPHORE_FEATURES>
12
1 3 acceptor
1 3 donor
1 5 acceptor
1 7 acceptor
1 8 donor
3 22 28 29 hydrophobe
3 4 6 15 cation
4 7 8 9 27 cation
5 4 6 15 16 17 rings
6 21 25 26 31 32 33 rings
6 4 5 14 15 18 19 rings
6 7 9 20 24 27 30 rings

> <PUBCHEM_HEAVY_ATOM_COUNT>
33

> <PUBCHEM_ATOM_DEF_STEREO_COUNT>
0

> <PUBCHEM_ATOM_UDEF_STEREO_COUNT>
0

> <PUBCHEM_BOND_DEF_STEREO_COUNT>
0

> <PUBCHEM_BOND_UDEF_STEREO_COUNT>
0

> <PUBCHEM_ISOTOPIC_ATOM_COUNT>
0

> <PUBCHEM_COMPONENT_COUNT>
1

> <PUBCHEM_CACTVS_TAUTO_COUNT>
6

> <PUBCHEM_CONFORMER_ID>
017DB82800000003

> <PUBCHEM_MMFF94_ENERGY>
93.1375

> <PUBCHEM_FEATURE_SELFOVERLAP>
61.017

> <PUBCHEM_SHAPE_FINGERPRINT>
11285246 1 18273217490951759062
11578080 2 17896600773069498956
11991303 11 17676217883006714939
12422481 6 17837537172392739578
13540713 4 18193842763522866560
14289585 56 18190177893108826084
14931854 50 18341880867468582453
15361156 5 17700723708763369348
15775530 1 17404842131187495441
17138139 8 18056168441442317013
17909252 39 17346303947171821648
18603816 31 15982601507082611998
20505436 4 17625840270577982481
20775438 99 17270847839859379836
21344244 181 18272368702572874495
22182313 1 18269569402166634744
22393880 68 18270389478242123453
23536364 44 18412825811178539175
23559900 14 18270702887492260572
238 59 18262223427431688281
4015057 19 18130793377904227720
4058900 60 17969216729761228445
437795 51 18339917234417338743
4409770 3 18266179615759503995
44802255 64 17241065240192740406
563151 248 17201947850359634161
7970288 3 17059474353477167549

> <PUBCHEM_SHAPE_MULTIPOLES>
628.82
11.84
4.68
2.94
3.16
3.08
1.52
-1.92
13.7
-1.76
-3.26
-3.1
0.86
2.27

> <PUBCHEM_SHAPE_SELFOVERLAP>
1380.503

> <PUBCHEM_SHAPE_VOLUME>
342

> <PUBCHEM_COORDINATE_TYPE>
2
5
10

$$$$
