49831006
  -OEChem-10052120443D

 39 40  0     0  0  0  0  0  0999 V2000
    2.2901   -2.2140    0.8895 O   0  0  0  0  0  0  0  0  0  0  0  0
    1.0234   -1.2753   -2.0869 O   0  0  0  0  0  0  0  0  0  0  0  0
   -4.3367    0.5546    1.3763 O   0  0  0  0  0  0  0  0  0  0  0  0
    2.9232    0.0076    0.5309 N   0  0  0  0  0  0  0  0  0  0  0  0
    4.9967    1.8045   -0.2862 N   0  0  0  0  0  0  0  0  0  0  0  0
   -3.3903   -0.0172   -0.7014 N   0  0  0  0  0  0  0  0  0  0  0  0
    4.3029   -0.1996    0.9689 C   0  0  0  0  0  0  0  0  0  0  0  0
    2.5985    1.3892    0.1552 C   0  0  0  0  0  0  0  0  0  0  0  0
    5.2955    0.3950   -0.0254 C   0  0  0  0  0  0  0  0  0  0  0  0
    3.6382    1.9558   -0.8108 C   0  0  0  0  0  0  0  0  0  0  0  0
    2.0187   -1.0561    0.5747 C   0  0  0  0  0  0  0  0  0  0  0  0
    0.6166   -0.7895    0.2268 C   0  0  0  0  0  0  0  0  0  0  0  0
    0.1700   -0.9088   -1.0894 C   0  0  0  0  0  0  0  0  0  0  0  0
   -0.2726   -0.4129    1.2335 C   0  0  0  0  0  0  0  0  0  0  0  0
   -2.0546   -0.2745   -0.3922 C   0  0  0  0  0  0  0  0  0  0  0  0
   -1.1655   -0.6514   -1.3988 C   0  0  0  0  0  0  0  0  0  0  0  0
   -1.6081   -0.1552    0.9240 C   0  0  0  0  0  0  0  0  0  0  0  0
   -4.4241    0.3697    0.1669 C   0  0  0  0  0  0  0  0  0  0  0  0
   -5.7355    0.5466   -0.5838 C   0  0  0  0  0  0  0  0  0  0  0  0
   -6.8864    0.9319    0.3281 C   0  0  0  0  0  0  0  0  0  0  0  0
    4.4050    0.2825    1.9490 H   0  0  0  0  0  0  0  0  0  0  0  0
    4.5087   -1.2659    1.1073 H   0  0  0  0  0  0  0  0  0  0  0  0
    1.6065    1.4632   -0.2953 H   0  0  0  0  0  0  0  0  0  0  0  0
    2.5800    1.9745    1.0828 H   0  0  0  0  0  0  0  0  0  0  0  0
    5.2741   -0.1696   -0.9658 H   0  0  0  0  0  0  0  0  0  0  0  0
    6.3095    0.3123    0.3801 H   0  0  0  0  0  0  0  0  0  0  0  0
    3.4350    3.0189   -0.9784 H   0  0  0  0  0  0  0  0  0  0  0  0
    3.5595    1.4536   -1.7831 H   0  0  0  0  0  0  0  0  0  0  0  0
    5.6628    2.1697   -0.9663 H   0  0  0  0  0  0  0  0  0  0  0  0
    0.0654   -0.3168    2.2623 H   0  0  0  0  0  0  0  0  0  0  0  0
   -1.5063   -0.7464   -2.4273 H   0  0  0  0  0  0  0  0  0  0  0  0
   -2.2346    0.1314    1.7568 H   0  0  0  0  0  0  0  0  0  0  0  0
   -3.6365   -0.1261   -1.6831 H   0  0  0  0  0  0  0  0  0  0  0  0
   -5.9725   -0.3935   -1.0949 H   0  0  0  0  0  0  0  0  0  0  0  0
   -5.5954    1.3213   -1.3461 H   0  0  0  0  0  0  0  0  0  0  0  0
    1.9189   -1.4051   -1.7350 H   0  0  0  0  0  0  0  0  0  0  0  0
   -6.6833    1.8788    0.8391 H   0  0  0  0  0  0  0  0  0  0  0  0
   -7.8087    1.0464   -0.2497 H   0  0  0  0  0  0  0  0  0  0  0  0
   -7.0547    0.1669    1.0933 H   0  0  0  0  0  0  0  0  0  0  0  0
  1 11  2  0  0  0  0
  2 13  1  0  0  0  0
  2 36  1  0  0  0  0
  3 18  2  0  0  0  0
  4  7  1  0  0  0  0
  4  8  1  0  0  0  0
  4 11  1  0  0  0  0
  5  9  1  0  0  0  0
  5 10  1  0  0  0  0
  5 29  1  0  0  0  0
  6 15  1  0  0  0  0
  6 18  1  0  0  0  0
  6 33  1  0  0  0  0
  7  9  1  0  0  0  0
  7 21  1  0  0  0  0
  7 22  1  0  0  0  0
  8 10  1  0  0  0  0
  8 23  1  0  0  0  0
  8 24  1  0  0  0  0
  9 25  1  0  0  0  0
  9 26  1  0  0  0  0
 10 27  1  0  0  0  0
 10 28  1  0  0  0  0
 11 12  1  0  0  0  0
 12 13  2  0  0  0  0
 12 14  1  0  0  0  0
 13 16  1  0  0  0  0
 14 17  2  0  0  0  0
 14 30  1  0  0  0  0
 15 16  2  0  0  0  0
 15 17  1  0  0  0  0
 16 31  1  0  0  0  0
 17 32  1  0  0  0  0
 18 19  1  0  0  0  0
 19 20  1  0  0  0  0
 19 34  1  0  0  0  0
 19 35  1  0  0  0  0
 20 37  1  0  0  0  0
 20 38  1  0  0  0  0
 20 39  1  0  0  0  0
M  END
> <PUBCHEM_COMPOUND_CID>
49831006

> <PUBCHEM_CONFORMER_RMSD>
0.8

> <PUBCHEM_CONFORMER_DIVERSEORDER>
1
7
6
13
5
9
14
12
11
4
19
10
18
16
15
8
17
2
3

> <PUBCHEM_MMFF94_PARTIAL_CHARGES>
25
1 -0.57
10 0.27
11 0.54
12 0.09
13 0.08
14 -0.15
15 0.12
16 -0.15
17 -0.15
18 0.57
19 0.06
2 -0.53
29 0.36
3 -0.57
30 0.15
31 0.15
32 0.15
33 0.37
36 0.45
4 -0.66
5 -0.9
6 -0.55
7 0.3
8 0.3
9 0.27

> <PUBCHEM_EFFECTIVE_ROTOR_COUNT>
6.2

> <PUBCHEM_PHARMACOPHORE_FEATURES>
9
1 1 acceptor
1 2 donor
1 20 hydrophobe
1 3 acceptor
1 5 cation
1 5 donor
1 6 donor
6 12 13 14 15 16 17 rings
6 4 5 7 8 9 10 rings

> <PUBCHEM_HEAVY_ATOM_COUNT>
20

> <PUBCHEM_ATOM_DEF_STEREO_COUNT>
0

> <PUBCHEM_ATOM_UDEF_STEREO_COUNT>
0

> <PUBCHEM_BOND_DEF_STEREO_COUNT>
0

> <PUBCHEM_BOND_UDEF_STEREO_COUNT>
0

> <PUBCHEM_ISOTOPIC_ATOM_COUNT>
0

> <PUBCHEM_COMPONENT_COUNT>
1

> <PUBCHEM_CACTVS_TAUTO_COUNT>
17

> <PUBCHEM_CONFORMER_ID>
02F85C5E00000001

> <PUBCHEM_MMFF94_ENERGY>
47.8205

> <PUBCHEM_FEATURE_SELFOVERLAP>
45.671

> <PUBCHEM_SHAPE_FINGERPRINT>
10165383 225 17458349650347791358
10354089 29 18409727356929554688
10554248 39 17629472005161319557
106641 1 15068629313375613444
10670039 82 17060068007856511737
11045977 3 17531251681362119801
12236239 1 18201714063474619531
12403259 415 16805312271617407438
12507560 40 17677042439517680303
12616999 72 17346599647296475207
12633257 1 17313371370976235104
12670543 26 15267349500551406937
12730499 353 17967254178287753762
13140716 1 14924526237539776211
13167372 99 18336825282507260865
13533116 47 17313658253095141106
13583140 156 18334580178816199891
13675066 3 17095243592937763895
13685833 64 11167941377201626997
13760787 19 18272080617620285599
14251764 75 17389117938121441196
14341114 176 17603585214148173716
14911166 2 15913324710709757827
15048467 5 18411134732340700057
15342168 16 17968662743283280340
1601671 61 17489587844586006385
17857418 61 10665230358815255545
17980427 23 16878794948879318135
1813 80 17841155446691846094
18335252 114 18271800203289604645
19784866 140 13326859920244532047
20567600 234 17531250603731594709
20567600 247 10015576195366626189
20645476 183 17917141809943375222
21033648 29 17023728104950014213
21285901 2 14404915682300634000
22079108 93 17749387096010451299
22224240 67 17095239250055739627
22713019 99 13614525172841113900
22956985 138 12686467982524087161
23253445 4 17095242531653476629
23559900 14 16588314825765948178
2838139 119 18411410726639026117
3060560 45 16988840588152299788
3472631 163 17703221949014972944
4325135 7 18410009983886025959
4340502 62 18040156210494175835
474 4 18335422395653086984
4990 188 14117516541086307399
5104073 3 17895467158968570824
5718773 13 12175082986079321596
59682541 35 8430309101273559164
633830 44 18337669827928124670
8272917 22 18408884006126693314
9999458 23 18040434395752654166

> <PUBCHEM_SHAPE_MULTIPOLES>
379.04
13.14
1.56
1.34
13.5
0.18
0.37
7.1
-1.68
-1.97
0.1
0.19
-0.35
-0.67

> <PUBCHEM_SHAPE_SELFOVERLAP>
788.769

> <PUBCHEM_SHAPE_VOLUME>
213.9

> <PUBCHEM_COORDINATE_TYPE>
2
5
10

$$$$
