25165277
  -OEChem-10052115183D

 35 37  0     0  0  0  0  0  0999 V2000
   -1.3779   -1.8554   -0.0318 O   0  0  0  0  0  0  0  0  0  0  0  0
   -2.7467   -1.7020   -0.2162 N   0  0  0  0  0  0  0  0  0  0  0  0
    4.7397   -0.3839    0.3399 N   0  0  0  0  0  0  0  0  0  0  0  0
    5.0266    0.9066    0.1009 N   0  0  0  0  0  0  0  0  0  0  0  0
    3.6040    2.7540   -0.4421 N   0  0  0  0  0  0  0  0  0  0  0  0
   -5.0220    0.6398    0.4902 C   0  0  0  0  0  0  0  0  0  0  0  0
   -4.2634    0.1173   -0.7650 C   0  0  0  0  0  0  0  0  0  0  0  0
   -2.9137   -0.4083   -0.5052 C   0  0  0  0  0  0  0  0  0  0  0  0
   -4.2641    1.7838    1.1684 C   0  0  0  0  0  0  0  0  0  0  0  0
   -6.4348    1.1027    0.1256 C   0  0  0  0  0  0  0  0  0  0  0  0
    0.6703   -0.6599   -0.0538 C   0  0  0  0  0  0  0  0  0  0  0  0
   -0.7643   -0.6581   -0.2137 C   0  0  0  0  0  0  0  0  0  0  0  0
   -1.6979    0.2972   -0.5172 C   0  0  0  0  0  0  0  0  0  0  0  0
    2.7787    0.5102   -0.0650 C   0  0  0  0  0  0  0  0  0  0  0  0
    3.4077   -0.6876    0.2556 C   0  0  0  0  0  0  0  0  0  0  0  0
    1.3832    0.5334   -0.2244 C   0  0  0  0  0  0  0  0  0  0  0  0
    1.3273   -1.8490    0.2679 C   0  0  0  0  0  0  0  0  0  0  0  0
    2.7160   -1.8883    0.4303 C   0  0  0  0  0  0  0  0  0  0  0  0
    3.8311    1.4474   -0.1445 C   0  0  0  0  0  0  0  0  0  0  0  0
   -5.1107   -0.1825    1.2122 H   0  0  0  0  0  0  0  0  0  0  0  0
   -4.1975    0.9277   -1.5035 H   0  0  0  0  0  0  0  0  0  0  0  0
   -4.8716   -0.6645   -1.2399 H   0  0  0  0  0  0  0  0  0  0  0  0
   -4.0615    2.5991    0.4657 H   0  0  0  0  0  0  0  0  0  0  0  0
   -3.3118    1.4433    1.5860 H   0  0  0  0  0  0  0  0  0  0  0  0
   -4.8474    2.1944    2.0000 H   0  0  0  0  0  0  0  0  0  0  0  0
   -6.4079    1.9362   -0.5845 H   0  0  0  0  0  0  0  0  0  0  0  0
   -7.0032    0.2860   -0.3315 H   0  0  0  0  0  0  0  0  0  0  0  0
   -6.9802    1.4317    1.0164 H   0  0  0  0  0  0  0  0  0  0  0  0
   -1.5355    1.3460   -0.7187 H   0  0  0  0  0  0  0  0  0  0  0  0
    0.8858    1.4657   -0.4747 H   0  0  0  0  0  0  0  0  0  0  0  0
    0.7862   -2.7831    0.4034 H   0  0  0  0  0  0  0  0  0  0  0  0
    3.2285   -2.8106    0.6803 H   0  0  0  0  0  0  0  0  0  0  0  0
    5.5043   -1.0112    0.5561 H   0  0  0  0  0  0  0  0  0  0  0  0
    2.6777    3.1289   -0.6223 H   0  0  0  0  0  0  0  0  0  0  0  0
    4.3604    3.4288   -0.4987 H   0  0  0  0  0  0  0  0  0  0  0  0
  1  2  1  0  0  0  0
  1 12  1  0  0  0  0
  2  8  2  0  0  0  0
  3  4  1  0  0  0  0
  3 15  1  0  0  0  0
  3 33  1  0  0  0  0
  4 19  2  0  0  0  0
  5 19  1  0  0  0  0
  5 34  1  0  0  0  0
  5 35  1  0  0  0  0
  6  7  1  0  0  0  0
  6  9  1  0  0  0  0
  6 10  1  0  0  0  0
  6 20  1  0  0  0  0
  7  8  1  0  0  0  0
  7 21  1  0  0  0  0
  7 22  1  0  0  0  0
  8 13  1  0  0  0  0
  9 23  1  0  0  0  0
  9 24  1  0  0  0  0
  9 25  1  0  0  0  0
 10 26  1  0  0  0  0
 10 27  1  0  0  0  0
 10 28  1  0  0  0  0
 11 12  1  0  0  0  0
 11 16  2  0  0  0  0
 11 17  1  0  0  0  0
 12 13  2  0  0  0  0
 13 29  1  0  0  0  0
 14 15  2  0  0  0  0
 14 16  1  0  0  0  0
 14 19  1  0  0  0  0
 15 18  1  0  0  0  0
 16 30  1  0  0  0  0
 17 18  2  0  0  0  0
 17 31  1  0  0  0  0
 18 32  1  0  0  0  0
M  END
> <PUBCHEM_COMPOUND_CID>
25165277

> <PUBCHEM_CONFORMER_RMSD>
0.6

> <PUBCHEM_CONFORMER_DIVERSEORDER>
3
17
25
20
27
26
18
9
19
10
2
15
12
7
13
4
1
16
5
14
6
11
8
22
23
21
24

> <PUBCHEM_MMFF94_PARTIAL_CHARGES>
22
1 -0.02
11 0.05
12 0.09
13 -0.15
15 -0.15
16 -0.15
17 -0.15
18 -0.15
19 0.37
2 -0.41
29 0.15
3 0.3
30 0.15
31 0.15
32 0.15
33 0.27
34 0.4
35 0.4
4 -0.71
5 -0.88
7 0.18
8 0.11

> <PUBCHEM_EFFECTIVE_ROTOR_COUNT>
3

> <PUBCHEM_PHARMACOPHORE_FEATURES>
8
1 2 acceptor
1 3 donor
1 5 donor
3 4 5 19 cation
3 6 9 10 hydrophobe
5 1 2 8 12 13 rings
5 3 4 14 15 19 rings
6 11 14 15 16 17 18 rings

> <PUBCHEM_HEAVY_ATOM_COUNT>
19

> <PUBCHEM_ATOM_DEF_STEREO_COUNT>
0

> <PUBCHEM_ATOM_UDEF_STEREO_COUNT>
0

> <PUBCHEM_BOND_DEF_STEREO_COUNT>
0

> <PUBCHEM_BOND_UDEF_STEREO_COUNT>
0

> <PUBCHEM_ISOTOPIC_ATOM_COUNT>
0

> <PUBCHEM_COMPONENT_COUNT>
1

> <PUBCHEM_CACTVS_TAUTO_COUNT>
7

> <PUBCHEM_CONFORMER_ID>
017FFDDD00000003

> <PUBCHEM_MMFF94_ENERGY>
27.639

> <PUBCHEM_FEATURE_SELFOVERLAP>
40.687

> <PUBCHEM_SHAPE_FINGERPRINT>
10354089 29 18335423452141052281
10411042 1 17760644764056909850
10688039 33 17531245011172953612
11089746 13 17917985088011555360
11405975 8 18335136514150915050
12107183 9 17692534412434997595
12236239 1 18201997712132017479
12390115 104 18191884520112351820
12596602 18 18113902654687442313
12633257 1 18187916283794817290
12644460 14 18041273279832154938
12788726 201 17560527201023352289
12916748 109 18201727223934747113
13167372 99 18269556044612921121
13583140 156 15430580836347601703
13675066 3 17458062647215355967
13785724 45 17547572578736725819
14251764 75 17899710234475929996
14445660 50 18409166632006751391
15048467 5 18413387635523156433
15188451 53 16009326408911559595
15196674 1 18336543918972515110
15342168 16 18261397792408573773
15475509 35 16009584660272432202
17834072 33 18341608239881985815
17959699 21 18343865523873165953
18186145 218 18335134306764298750
19784866 9 18410290307136177290
20157964 124 18338516336128209479
20645477 56 17967807245811369335
21033648 29 17458890588098299845
21267235 1 18335703772257292178
212847 35 18272647935154137208
21652331 79 18408885105696310885
22956985 138 13191438493158225081
23402539 116 17918266558830247557
23402655 69 18342736355902184990
23559900 14 18343865494378412326
25147074 1 18340750599211403183
335352 9 18409729548143844534
3472631 163 18272091617089306493
34797466 226 15123217875857340105
351380 3 8142083161206092825
3545911 37 18408604755573484575
4047638 21 18408886222224121590
4214541 1 18410571812251622239
4340502 62 17530688688960140227
465052 167 7997963600653017849
474 4 18334296487087666552
5104073 3 18188484782735241778
5283173 99 11095616546167475643
542803 24 18060416911179725215
543358 83 18412263917776172298
54446538 1 18341612586283543689
633830 44 18339922718510619902
8272917 22 18341895147681446966
960060 61 11887952176750805840

> <PUBCHEM_SHAPE_MULTIPOLES>
365.22
12.62
2.12
0.79
9.78
0.33
-0.06
6.28
-1.34
-1.35
-0.11
0.51
0.12
-1.11

> <PUBCHEM_SHAPE_SELFOVERLAP>
797.539

> <PUBCHEM_SHAPE_VOLUME>
201.8

> <PUBCHEM_COORDINATE_TYPE>
2
5
10

$$$$
