46223254
  -OEChem-10052115183D

 60 64  0     0  0  0  0  0  0999 V2000
    4.6832    0.5580   -1.6568 S   0  0  0  0  0  0  0  0  0  0  0  0
  -12.0292   -2.0163    0.1620 F   0  0  0  0  0  0  0  0  0  0  0  0
  -10.7834   -2.1907   -1.6118 F   0  0  0  0  0  0  0  0  0  0  0  0
   10.1324    1.9867   -0.5412 O   0  0  0  0  0  0  0  0  0  0  0  0
   -4.0794   -0.3102   -0.5647 O   0  0  0  0  0  0  0  0  0  0  0  0
  -10.5654   -0.3737   -0.2780 O   0  0  0  0  0  0  0  0  0  0  0  0
    9.1570   -0.6942   -0.2670 N   0  0  0  0  0  0  0  0  0  0  0  0
    4.1507   -1.4381    2.3174 N   0  0  0  0  0  0  0  0  0  0  0  0
    8.7963   -1.3472   -1.3849 N   0  0  0  0  0  0  0  0  0  0  0  0
    1.8744   -0.8018    2.2829 N   0  0  0  0  0  0  0  0  0  0  0  0
   -3.0306    1.5457    0.4075 N   0  0  0  0  0  0  0  0  0  0  0  0
   -5.3351    1.3900    0.4360 N   0  0  0  0  0  0  0  0  0  0  0  0
    3.3467   -0.1986    0.4229 C   0  0  0  0  0  0  0  0  0  0  0  0
    4.6279   -0.2473   -0.1339 C   0  0  0  0  0  0  0  0  0  0  0  0
    2.4365    0.5095   -0.4311 C   0  0  0  0  0  0  0  0  0  0  0  0
    5.6830   -0.8895    0.5250 C   0  0  0  0  0  0  0  0  0  0  0  0
    7.0008   -0.9503   -0.0299 C   0  0  0  0  0  0  0  0  0  0  0  0
    1.0351    0.7754   -0.2169 C   0  0  0  0  0  0  0  0  0  0  0  0
    3.1425   -0.8140    1.6681 C   0  0  0  0  0  0  0  0  0  0  0  0
    3.0303    0.9684   -1.5829 C   0  0  0  0  0  0  0  0  0  0  0  0
    5.3703   -1.4618    1.7455 C   0  0  0  0  0  0  0  0  0  0  0  0
    8.1185   -0.4325    0.5777 C   0  0  0  0  0  0  0  0  0  0  0  0
    7.4781   -1.5007   -1.2345 C   0  0  0  0  0  0  0  0  0  0  0  0
    0.0760   -0.1304   -0.6704 C   0  0  0  0  0  0  0  0  0  0  0  0
    0.6389    1.9378    0.4445 C   0  0  0  0  0  0  0  0  0  0  0  0
   10.5404   -0.3397   -0.0588 C   0  0  0  0  0  0  0  0  0  0  0  0
   -1.6752    1.2890    0.1986 C   0  0  0  0  0  0  0  0  0  0  0  0
   -1.2791    0.1264   -0.4628 C   0  0  0  0  0  0  0  0  0  0  0  0
   -0.7163    2.1947    0.6522 C   0  0  0  0  0  0  0  0  0  0  0  0
   10.9565    0.8776   -0.8773 C   0  0  0  0  0  0  0  0  0  0  0  0
   -4.1474    0.7608    0.0298 C   0  0  0  0  0  0  0  0  0  0  0  0
   -6.6646    0.9413    0.2543 C   0  0  0  0  0  0  0  0  0  0  0  0
   -7.7296    1.7068    0.7290 C   0  0  0  0  0  0  0  0  0  0  0  0
   -6.9105   -0.2661   -0.3994 C   0  0  0  0  0  0  0  0  0  0  0  0
   -9.2862    0.0573   -0.1033 C   0  0  0  0  0  0  0  0  0  0  0  0
   -9.0405    1.2649    0.5504 C   0  0  0  0  0  0  0  0  0  0  0  0
   -8.2211   -0.7082   -0.5782 C   0  0  0  0  0  0  0  0  0  0  0  0
  -10.7819   -1.7793   -0.3201 C   0  0  0  0  0  0  0  0  0  0  0  0
    2.5800    1.5273   -2.3926 H   0  0  0  0  0  0  0  0  0  0  0  0
    6.1220   -1.9856    2.3305 H   0  0  0  0  0  0  0  0  0  0  0  0
    8.2612    0.0897    1.5148 H   0  0  0  0  0  0  0  0  0  0  0  0
    6.9259   -2.0118   -2.0108 H   0  0  0  0  0  0  0  0  0  0  0  0
    0.3695   -1.0417   -1.1864 H   0  0  0  0  0  0  0  0  0  0  0  0
    1.3738    2.6534    0.8056 H   0  0  0  0  0  0  0  0  0  0  0  0
   11.1538   -1.2108   -0.3126 H   0  0  0  0  0  0  0  0  0  0  0  0
   10.6658   -0.1345    1.0106 H   0  0  0  0  0  0  0  0  0  0  0  0
   -1.9585   -0.6229   -0.8430 H   0  0  0  0  0  0  0  0  0  0  0  0
   -1.0107    3.1043    1.1695 H   0  0  0  0  0  0  0  0  0  0  0  0
    1.7810   -1.2603    3.1801 H   0  0  0  0  0  0  0  0  0  0  0  0
    1.0664   -0.3633    1.8757 H   0  0  0  0  0  0  0  0  0  0  0  0
   10.8522    0.6847   -1.9501 H   0  0  0  0  0  0  0  0  0  0  0  0
   11.9981    1.1378   -0.6648 H   0  0  0  0  0  0  0  0  0  0  0  0
   -3.2408    2.4123    0.8965 H   0  0  0  0  0  0  0  0  0  0  0  0
   -5.2380    2.2784    0.9212 H   0  0  0  0  0  0  0  0  0  0  0  0
   10.4324    2.7383   -1.0802 H   0  0  0  0  0  0  0  0  0  0  0  0
   -7.5519    2.6496    1.2401 H   0  0  0  0  0  0  0  0  0  0  0  0
   -6.1419   -0.9111   -0.8006 H   0  0  0  0  0  0  0  0  0  0  0  0
   -9.8661    1.8654    0.9224 H   0  0  0  0  0  0  0  0  0  0  0  0
   -8.3726   -1.6399   -1.1152 H   0  0  0  0  0  0  0  0  0  0  0  0
  -10.0757   -2.3683    0.2757 H   0  0  0  0  0  0  0  0  0  0  0  0
  1 14  1  0  0  0  0
  1 20  1  0  0  0  0
  2 38  1  0  0  0  0
  3 38  1  0  0  0  0
  4 30  1  0  0  0  0
  4 55  1  0  0  0  0
  5 31  2  0  0  0  0
  6 35  1  0  0  0  0
  6 38  1  0  0  0  0
  7  9  1  0  0  0  0
  7 22  1  0  0  0  0
  7 26  1  0  0  0  0
  8 19  2  0  0  0  0
  8 21  1  0  0  0  0
  9 23  2  0  0  0  0
 10 19  1  0  0  0  0
 10 49  1  0  0  0  0
 10 50  1  0  0  0  0
 11 27  1  0  0  0  0
 11 31  1  0  0  0  0
 11 53  1  0  0  0  0
 12 31  1  0  0  0  0
 12 32  1  0  0  0  0
 12 54  1  0  0  0  0
 13 14  2  0  0  0  0
 13 15  1  0  0  0  0
 13 19  1  0  0  0  0
 14 16  1  0  0  0  0
 15 18  1  0  0  0  0
 15 20  2  0  0  0  0
 16 17  1  0  0  0  0
 16 21  2  0  0  0  0
 17 22  2  0  0  0  0
 17 23  1  0  0  0  0
 18 24  2  0  0  0  0
 18 25  1  0  0  0  0
 20 39  1  0  0  0  0
 21 40  1  0  0  0  0
 22 41  1  0  0  0  0
 23 42  1  0  0  0  0
 24 28  1  0  0  0  0
 24 43  1  0  0  0  0
 25 29  2  0  0  0  0
 25 44  1  0  0  0  0
 26 30  1  0  0  0  0
 26 45  1  0  0  0  0
 26 46  1  0  0  0  0
 27 28  2  0  0  0  0
 27 29  1  0  0  0  0
 28 47  1  0  0  0  0
 29 48  1  0  0  0  0
 30 51  1  0  0  0  0
 30 52  1  0  0  0  0
 32 33  2  0  0  0  0
 32 34  1  0  0  0  0
 33 36  1  0  0  0  0
 33 56  1  0  0  0  0
 34 37  2  0  0  0  0
 34 57  1  0  0  0  0
 35 36  2  0  0  0  0
 35 37  1  0  0  0  0
 36 58  1  0  0  0  0
 37 59  1  0  0  0  0
 38 60  1  0  0  0  0
M  END
> <PUBCHEM_COMPOUND_CID>
46223254

> <PUBCHEM_CONFORMER_RMSD>
1

> <PUBCHEM_CONFORMER_DIVERSEORDER>
1
7
8
6
12
10
13
9
5
11
4
3
2

> <PUBCHEM_MMFF94_PARTIAL_CHARGES>
54
1 -0.08
10 -0.9
11 -0.55
12 -0.55
14 0.04
15 -0.05
16 0.05
17 -0.05
18 0.05
19 0.41
2 -0.34
20 -0.11
21 0.16
22 -0.3
23 0.14
24 -0.15
25 -0.15
26 0.26
27 0.12
28 -0.15
29 -0.15
3 -0.34
30 0.28
31 0.69
32 0.12
33 -0.15
34 -0.15
35 0.08
36 -0.15
37 -0.15
38 0.96
39 0.15
4 -0.68
40 0.15
41 0.15
42 0.15
43 0.15
44 0.15
47 0.15
48 0.15
49 0.4
5 -0.57
50 0.4
53 0.37
54 0.37
55 0.4
56 0.15
57 0.15
58 0.15
59 0.15
6 -0.36
7 0.31
8 -0.62
9 -0.71

> <PUBCHEM_EFFECTIVE_ROTOR_COUNT>
10

> <PUBCHEM_PHARMACOPHORE_FEATURES>
14
1 10 donor
1 11 donor
1 12 donor
1 4 acceptor
1 4 donor
1 5 acceptor
1 6 acceptor
1 9 acceptor
3 8 10 19 cation
5 1 13 14 15 20 rings
5 7 9 17 22 23 rings
6 18 24 25 27 28 29 rings
6 32 33 34 35 36 37 rings
6 8 13 14 16 19 21 rings

> <PUBCHEM_HEAVY_ATOM_COUNT>
38

> <PUBCHEM_ATOM_DEF_STEREO_COUNT>
0

> <PUBCHEM_ATOM_UDEF_STEREO_COUNT>
0

> <PUBCHEM_BOND_DEF_STEREO_COUNT>
0

> <PUBCHEM_BOND_UDEF_STEREO_COUNT>
0

> <PUBCHEM_ISOTOPIC_ATOM_COUNT>
0

> <PUBCHEM_COMPONENT_COUNT>
1

> <PUBCHEM_CACTVS_TAUTO_COUNT>
6

> <PUBCHEM_CONFORMER_ID>
02C14F9600000001

> <PUBCHEM_MMFF94_ENERGY>
114.5834

> <PUBCHEM_FEATURE_SELFOVERLAP>
71.163

> <PUBCHEM_SHAPE_FINGERPRINT>
10076449 9 17894912906113316701
10162869 55 17530686510841839460
10299344 5 18186802457557995305
10533779 47 15626228991687181479
10883706 142 13326851137442613229
11456790 92 14117798029676492371
11534866 41 17203612570693229126
11607047 74 18270682103708444668
12013929 94 18342177769593351355
12089408 11 18334294219244811592
12144603 126 18408886235082402892
12559415 90 11963389660895376207
12592606 108 18409728457306235299
12664476 115 14562528487845539239
13947934 56 18187931737393291731
13947947 19 18410574006795346647
13947947 74 17167866343936051361
14118638 360 16588299437203905925
14251764 46 18410575076078419084
150020 25 14851607674806188865
15065858 18 18059855026061948677
15198563 99 15285631038006713055
15247644 1 18334014995718012299
15392192 104 18131068212787743126
15510794 2 17632298960360213911
15840311 113 18411420623156175628
15890870 6 18040997337006027923
16728433 110 18334858337909898301
1818759 1 18343018883388664535
19315958 150 15123793976531318957
20105231 36 18131070399100092094
232437 2 18273496771284577463
249057 3 17095531698673975564
3092352 35 18343303644727597766
3178227 256 15051725371046140390
335352 9 17822014206933014371
3383291 50 17775565365285523639
4874694 18 15864073165385521000
54039377 194 18413107265165378845
57303763 39 17775000249518416606
67123 10 18341896277510754364
9962374 69 18341889714510627861

> <PUBCHEM_SHAPE_MULTIPOLES>
723.83
45.33
1.89
1.44
55.81
0.07
-0.32
-15.84
10.24
1.86
-0.12
-1.85
-0.49
-2.88

> <PUBCHEM_SHAPE_SELFOVERLAP>
1586.276

> <PUBCHEM_SHAPE_VOLUME>
397.3

> <PUBCHEM_COORDINATE_TYPE>
2
5
10

$$$$
