44352905
  -OEChem-10062121583D

 68 75  0     1  0  0  0  0  0999 V2000
   -6.0198    0.3087    0.7128 S   0  0  0  0  0  0  0  0  0  0  0  0
   -0.9462   -0.4171    2.1723 O   0  0  0  0  0  0  0  0  0  0  0  0
   -1.8660    0.2189   -0.9699 O   0  0  0  0  0  0  0  0  0  0  0  0
    5.6643   -1.0231   -0.9945 O   0  0  0  0  0  0  0  0  0  0  0  0
   -0.2546    1.3463    0.8226 N   0  0  0  0  0  0  0  0  0  0  0  0
    0.4945   -1.5581    0.7462 N   0  0  0  0  0  0  0  0  0  0  0  0
   -4.1247   -1.4215   -0.2744 N   0  0  0  0  0  0  0  0  0  0  0  0
    5.4831    1.3080   -1.0828 N   0  0  0  0  0  0  0  0  0  0  0  0
   -5.8383   -0.7406   -1.7807 N   0  0  0  0  0  0  0  0  0  0  0  0
   -1.4184    0.6893    1.3984 C   0  0  1  0  0  0  0  0  0  0  0  0
   -2.4759    0.3025    0.3258 C   0  0  2  0  0  0  0  0  0  0  0  0
   -0.7504   -1.6238    1.4769 C   0  0  2  0  0  0  0  0  0  0  0  0
   -3.0842   -1.0576    0.6562 C   0  0  2  0  0  0  0  0  0  0  0  0
   -1.9684   -2.0985    0.6714 C   0  0  0  0  0  0  0  0  0  0  0  0
    0.9798    0.8529    0.4692 C   0  0  0  0  0  0  0  0  0  0  0  0
    1.3333   -0.5277    0.4228 C   0  0  0  0  0  0  0  0  0  0  0  0
    2.0212    1.7542    0.0309 C   0  0  0  0  0  0  0  0  0  0  0  0
    2.6804   -0.8046   -0.0487 C   0  0  0  0  0  0  0  0  0  0  0  0
   -0.1274    2.6926    0.4503 C   0  0  0  0  0  0  0  0  0  0  0  0
   -2.0940    1.5180    2.5163 C   0  0  0  0  0  0  0  0  0  0  0  0
    1.2771   -2.6741    0.4325 C   0  0  0  0  0  0  0  0  0  0  0  0
    1.2221    2.9734    0.0776 C   0  0  0  0  0  0  0  0  0  0  0  0
    3.3290    1.4735   -0.3512 C   0  0  0  0  0  0  0  0  0  0  0  0
    3.6580    0.1275   -0.3902 C   0  0  0  0  0  0  0  0  0  0  0  0
    2.5653   -2.2678   -0.0263 C   0  0  0  0  0  0  0  0  0  0  0  0
    4.4760    2.3111   -0.8082 C   0  0  0  0  0  0  0  0  0  0  0  0
   -1.0941    3.7179    0.3891 C   0  0  0  0  0  0  0  0  0  0  0  0
    5.0396    0.0095   -0.8518 C   0  0  0  0  0  0  0  0  0  0  0  0
    0.9421   -4.0403    0.5418 C   0  0  0  0  0  0  0  0  0  0  0  0
    1.5656    4.3082   -0.2566 C   0  0  0  0  0  0  0  0  0  0  0  0
   -3.8832   -2.6662   -1.0248 C   0  0  0  0  0  0  0  0  0  0  0  0
    3.4797   -3.2939   -0.3771 C   0  0  0  0  0  0  0  0  0  0  0  0
   -5.3078   -0.6466   -0.4900 C   0  0  0  0  0  0  0  0  0  0  0  0
   -2.8283    0.3358   -2.0099 C   0  0  0  0  0  0  0  0  0  0  0  0
   -0.7153    5.0179    0.0448 C   0  0  0  0  0  0  0  0  0  0  0  0
    0.6019    5.3159   -0.2587 C   0  0  0  0  0  0  0  0  0  0  0  0
    1.8776   -5.0106    0.1860 C   0  0  0  0  0  0  0  0  0  0  0  0
    3.1321   -4.6435   -0.2693 C   0  0  0  0  0  0  0  0  0  0  0  0
   -7.0258   -0.0668   -2.2785 C   0  0  0  0  0  0  0  0  0  0  0  0
   -3.2161    1.1080    0.2903 H   0  0  0  0  0  0  0  0  0  0  0  0
   -0.5721   -2.3671    2.2648 H   0  0  0  0  0  0  0  0  0  0  0  0
   -3.5386   -1.0193    1.6540 H   0  0  0  0  0  0  0  0  0  0  0  0
   -2.3314   -3.0224    1.1406 H   0  0  0  0  0  0  0  0  0  0  0  0
   -1.6048   -2.3726   -0.3239 H   0  0  0  0  0  0  0  0  0  0  0  0
   -1.3470    1.9253    3.2089 H   0  0  0  0  0  0  0  0  0  0  0  0
   -2.7579    0.8851    3.1194 H   0  0  0  0  0  0  0  0  0  0  0  0
   -2.7041    2.3443    2.1502 H   0  0  0  0  0  0  0  0  0  0  0  0
    4.2559    2.8536   -1.7308 H   0  0  0  0  0  0  0  0  0  0  0  0
    4.8418    2.9802   -0.0258 H   0  0  0  0  0  0  0  0  0  0  0  0
   -2.1419    3.5233    0.5844 H   0  0  0  0  0  0  0  0  0  0  0  0
   -0.0367   -4.3494    0.8971 H   0  0  0  0  0  0  0  0  0  0  0  0
    2.5854    4.5560   -0.5404 H   0  0  0  0  0  0  0  0  0  0  0  0
   -3.0495   -2.5762   -1.7229 H   0  0  0  0  0  0  0  0  0  0  0  0
   -4.7668   -2.9450   -1.6065 H   0  0  0  0  0  0  0  0  0  0  0  0
   -3.7429   -3.5041   -0.3361 H   0  0  0  0  0  0  0  0  0  0  0  0
    4.4723   -3.0545   -0.7415 H   0  0  0  0  0  0  0  0  0  0  0  0
    6.4176    1.5276   -1.4129 H   0  0  0  0  0  0  0  0  0  0  0  0
   -2.3128    0.8430   -2.8344 H   0  0  0  0  0  0  0  0  0  0  0  0
   -3.6737    0.9817   -1.7626 H   0  0  0  0  0  0  0  0  0  0  0  0
   -3.1127   -0.6255   -2.4261 H   0  0  0  0  0  0  0  0  0  0  0  0
   -1.4672    5.8020    0.0102 H   0  0  0  0  0  0  0  0  0  0  0  0
    0.8825    6.3308   -0.5257 H   0  0  0  0  0  0  0  0  0  0  0  0
    1.6179   -6.0625    0.2675 H   0  0  0  0  0  0  0  0  0  0  0  0
    3.8535   -5.4075   -0.5454 H   0  0  0  0  0  0  0  0  0  0  0  0
   -5.3058   -1.2442   -2.4803 H   0  0  0  0  0  0  0  0  0  0  0  0
   -7.8869   -0.3312   -1.6595 H   0  0  0  0  0  0  0  0  0  0  0  0
   -7.2002   -0.3924   -3.3069 H   0  0  0  0  0  0  0  0  0  0  0  0
   -6.8635    1.0139   -2.2574 H   0  0  0  0  0  0  0  0  0  0  0  0
  1 33  2  0  0  0  0
  2 10  1  0  0  0  0
  2 12  1  0  0  0  0
  3 11  1  0  0  0  0
  3 34  1  0  0  0  0
  4 28  2  0  0  0  0
  5 10  1  0  0  0  0
  5 15  1  0  0  0  0
  5 19  1  0  0  0  0
  6 12  1  0  0  0  0
  6 16  1  0  0  0  0
  6 21  1  0  0  0  0
  7 13  1  0  0  0  0
  7 31  1  0  0  0  0
  7 33  1  0  0  0  0
  8 26  1  0  0  0  0
  8 28  1  0  0  0  0
  8 57  1  0  0  0  0
  9 33  1  0  0  0  0
  9 39  1  0  0  0  0
  9 65  1  0  0  0  0
 10 11  1  0  0  0  0
 10 20  1  0  0  0  0
 11 13  1  0  0  0  0
 11 40  1  0  0  0  0
 12 14  1  0  0  0  0
 12 41  1  0  0  0  0
 13 14  1  0  0  0  0
 13 42  1  0  0  0  0
 14 43  1  0  0  0  0
 14 44  1  0  0  0  0
 15 16  2  0  0  0  0
 15 17  1  0  0  0  0
 16 18  1  0  0  0  0
 17 22  1  0  0  0  0
 17 23  2  0  0  0  0
 18 24  2  0  0  0  0
 18 25  1  0  0  0  0
 19 22  1  0  0  0  0
 19 27  2  0  0  0  0
 20 45  1  0  0  0  0
 20 46  1  0  0  0  0
 20 47  1  0  0  0  0
 21 25  1  0  0  0  0
 21 29  2  0  0  0  0
 22 30  2  0  0  0  0
 23 24  1  0  0  0  0
 23 26  1  0  0  0  0
 24 28  1  0  0  0  0
 25 32  2  0  0  0  0
 26 48  1  0  0  0  0
 26 49  1  0  0  0  0
 27 35  1  0  0  0  0
 27 50  1  0  0  0  0
 29 37  1  0  0  0  0
 29 51  1  0  0  0  0
 30 36  1  0  0  0  0
 30 52  1  0  0  0  0
 31 53  1  0  0  0  0
 31 54  1  0  0  0  0
 31 55  1  0  0  0  0
 32 38  1  0  0  0  0
 32 56  1  0  0  0  0
 34 58  1  0  0  0  0
 34 59  1  0  0  0  0
 34 60  1  0  0  0  0
 35 36  2  0  0  0  0
 35 61  1  0  0  0  0
 36 62  1  0  0  0  0
 37 38  2  0  0  0  0
 37 63  1  0  0  0  0
 38 64  1  0  0  0  0
 39 66  1  0  0  0  0
 39 67  1  0  0  0  0
 39 68  1  0  0  0  0
M  END
> <PUBCHEM_COMPOUND_CID>
44352905

> <PUBCHEM_CONFORMER_RMSD>
1

> <PUBCHEM_CONFORMER_DIVERSEORDER>
1
3
2

> <PUBCHEM_MMFF94_PARTIAL_CHARGES>
45
1 -0.38
10 0.54
11 0.28
12 0.54
13 0.3
15 -0.05
16 -0.05
17 -0.01
18 -0.01
19 -0.15
2 -0.56
21 -0.15
23 -0.14
24 0.09
26 0.44
27 -0.15
28 0.54
29 -0.15
3 -0.56
30 -0.15
31 0.3
32 -0.15
33 0.5
34 0.28
35 -0.15
36 -0.15
37 -0.15
38 -0.15
39 0.3
4 -0.57
5 -0.04
50 0.15
51 0.15
52 0.15
56 0.15
57 0.37
6 -0.04
61 0.15
62 0.15
63 0.15
64 0.15
65 0.37
7 -0.66
8 -0.73
9 -0.73

> <PUBCHEM_EFFECTIVE_ROTOR_COUNT>
5.2

> <PUBCHEM_PHARMACOPHORE_FEATURES>
16
1 1 acceptor
1 2 acceptor
1 3 acceptor
1 4 acceptor
1 5 cation
1 6 cation
1 8 donor
1 9 donor
5 5 15 17 19 22 rings
5 6 16 18 21 25 rings
5 8 23 24 26 28 rings
6 15 16 17 18 23 24 rings
6 19 22 27 30 35 36 rings
6 2 10 11 12 13 14 rings
6 21 25 29 32 37 38 rings
7 2 5 6 10 12 15 16 rings

> <PUBCHEM_HEAVY_ATOM_COUNT>
39

> <PUBCHEM_ATOM_DEF_STEREO_COUNT>
4

> <PUBCHEM_ATOM_UDEF_STEREO_COUNT>
0

> <PUBCHEM_BOND_DEF_STEREO_COUNT>
0

> <PUBCHEM_BOND_UDEF_STEREO_COUNT>
0

> <PUBCHEM_ISOTOPIC_ATOM_COUNT>
0

> <PUBCHEM_COMPONENT_COUNT>
1

> <PUBCHEM_CACTVS_TAUTO_COUNT>
4

> <PUBCHEM_CONFORMER_ID>
02A4C58900000001

> <PUBCHEM_MMFF94_ENERGY>
194.1946

> <PUBCHEM_FEATURE_SELFOVERLAP>
82.155

> <PUBCHEM_SHAPE_FINGERPRINT>
10675989 125 18409169922209967980
10693767 8 18202278117404019894
1100329 8 17763199329141415282
11115154 58 17918270966374405521
11135609 187 18338523057219778160
11135926 11 18409733975447725462
11445158 3 17393086062663856153
11513181 2 17981614762673116726
12788726 201 18262795159971088457
13140716 1 16829270944273737256
1361 2 18267303316495014275
13642711 20 18338510958143548406
13911987 19 18262533605606415820
14068700 675 18059574723621969920
14415360 78 18120931969404384301
14681490 219 18410010996838885909
15320467 1 18410300206771978720
15324884 4 17391919536713822297
15328829 1 17702687513665525963
15420108 30 17697062252879698113
15439362 3 17979355592432267977
15444296 8 17767692654595624047
15484559 13 18339913913427314502
15840311 113 18117290160261859517
15927050 60 17833563297553102068
20642791 105 16612225184024104216
20775438 99 17834350646088273517
21133410 171 17540208161575870395
23559900 14 18268427022074898385
24771293 8 18128813217671604656
24771750 20 17899710243139152421
283562 15 18341059540820424512
3388396 114 18338242574696485276
3882209 13 17901360330798484306
4353968 344 18340774720491231334
4394409 98 18117009981795567484
463206 1 18410013281492916679
484989 97 17760374683158755178
57527452 28 15984833678394094661
6004065 56 18268704094351388665
70251023 43 18192998106084544347

> <PUBCHEM_SHAPE_MULTIPOLES>
763.94
10.9
6.7
1.54
10.31
2.22
-0.04
-3.83
6.86
-5.52
-0.07
2.1
0.02
-1.08

> <PUBCHEM_SHAPE_SELFOVERLAP>
1729.442

> <PUBCHEM_SHAPE_VOLUME>
404.4

> <PUBCHEM_COORDINATE_TYPE>
2
5
10

$$$$
