25138012
  -OEChem-10052120443D

 42 44  0     0  0  0  0  0  0999 V2000
    0.1851   -2.8278   -1.6156 O   0  0  0  0  0  0  0  0  0  0  0  0
   -0.9975   -2.3291    1.4612 O   0  0  0  0  0  0  0  0  0  0  0  0
    2.6840    0.9937   -0.1304 N   0  0  0  0  0  0  0  0  0  0  0  0
   -1.7910    2.4968    0.0557 N   0  0  0  0  0  0  0  0  0  0  0  0
    0.4211    1.7296   -0.0378 N   0  0  0  0  0  0  0  0  0  0  0  0
   -0.0676    4.0813    0.1565 N   0  0  0  0  0  0  0  0  0  0  0  0
   -2.8725   -3.4764    0.8083 N   0  0  0  0  0  0  0  0  0  0  0  0
    2.5511   -0.3999   -0.2399 C   0  0  0  0  0  0  0  0  0  0  0  0
    3.5260   -1.2526    0.2778 C   0  0  0  0  0  0  0  0  0  0  0  0
    1.4279   -0.9291   -0.8756 C   0  0  0  0  0  0  0  0  0  0  0  0
    1.7341    2.0399   -0.0328 C   0  0  0  0  0  0  0  0  0  0  0  0
    3.3775   -2.6346    0.1602 C   0  0  0  0  0  0  0  0  0  0  0  0
   -2.5156    1.2895   -0.0297 C   0  0  0  0  0  0  0  0  0  0  0  0
    1.2796   -2.3110   -0.9932 C   0  0  0  0  0  0  0  0  0  0  0  0
    4.7378   -0.7132    0.9657 C   0  0  0  0  0  0  0  0  0  0  0  0
    2.2544   -3.1639   -0.4753 C   0  0  0  0  0  0  0  0  0  0  0  0
   -0.4122    2.7832    0.0583 C   0  0  0  0  0  0  0  0  0  0  0  0
   -1.9683    0.1100    0.4749 C   0  0  0  0  0  0  0  0  0  0  0  0
   -2.6860   -1.0832    0.3916 C   0  0  0  0  0  0  0  0  0  0  0  0
   -3.7805    1.2759   -0.6175 C   0  0  0  0  0  0  0  0  0  0  0  0
    2.2168    3.3292    0.0623 C   0  0  0  0  0  0  0  0  0  0  0  0
   -3.9509   -1.0969   -0.1963 C   0  0  0  0  0  0  0  0  0  0  0  0
   -4.4981    0.0826   -0.7008 C   0  0  0  0  0  0  0  0  0  0  0  0
    1.2605    4.3196    0.1556 C   0  0  0  0  0  0  0  0  0  0  0  0
   -2.1155   -2.3137    0.9171 C   0  0  0  0  0  0  0  0  0  0  0  0
    3.6210    1.3011    0.1123 H   0  0  0  0  0  0  0  0  0  0  0  0
    0.6762   -0.2917   -1.3300 H   0  0  0  0  0  0  0  0  0  0  0  0
    4.1273   -3.3135    0.5578 H   0  0  0  0  0  0  0  0  0  0  0  0
    5.3595   -0.1496    0.2622 H   0  0  0  0  0  0  0  0  0  0  0  0
    4.4530   -0.0670    1.8027 H   0  0  0  0  0  0  0  0  0  0  0  0
    5.3596   -1.5149    1.3791 H   0  0  0  0  0  0  0  0  0  0  0  0
    2.1441   -4.2412   -0.5641 H   0  0  0  0  0  0  0  0  0  0  0  0
   -2.3632    3.3335   -0.0067 H   0  0  0  0  0  0  0  0  0  0  0  0
   -1.0086    0.1103    0.9808 H   0  0  0  0  0  0  0  0  0  0  0  0
   -4.2180    2.1881   -1.0152 H   0  0  0  0  0  0  0  0  0  0  0  0
    3.2731    3.5676    0.0642 H   0  0  0  0  0  0  0  0  0  0  0  0
   -4.5638   -1.9846   -0.2948 H   0  0  0  0  0  0  0  0  0  0  0  0
   -5.4829    0.0733   -1.1589 H   0  0  0  0  0  0  0  0  0  0  0  0
    1.5440    5.3637    0.2340 H   0  0  0  0  0  0  0  0  0  0  0  0
   -0.3908   -2.0981   -1.9019 H   0  0  0  0  0  0  0  0  0  0  0  0
   -3.7888   -3.5526    0.3863 H   0  0  0  0  0  0  0  0  0  0  0  0
   -2.4993   -4.3472    1.1734 H   0  0  0  0  0  0  0  0  0  0  0  0
  1 14  1  0  0  0  0
  1 40  1  0  0  0  0
  2 25  2  0  0  0  0
  3  8  1  0  0  0  0
  3 11  1  0  0  0  0
  3 26  1  0  0  0  0
  4 13  1  0  0  0  0
  4 17  1  0  0  0  0
  4 33  1  0  0  0  0
  5 11  2  0  0  0  0
  5 17  1  0  0  0  0
  6 17  2  0  0  0  0
  6 24  1  0  0  0  0
  7 25  1  0  0  0  0
  7 41  1  0  0  0  0
  7 42  1  0  0  0  0
  8  9  2  0  0  0  0
  8 10  1  0  0  0  0
  9 12  1  0  0  0  0
  9 15  1  0  0  0  0
 10 14  2  0  0  0  0
 10 27  1  0  0  0  0
 11 21  1  0  0  0  0
 12 16  2  0  0  0  0
 12 28  1  0  0  0  0
 13 18  1  0  0  0  0
 13 20  2  0  0  0  0
 14 16  1  0  0  0  0
 15 29  1  0  0  0  0
 15 30  1  0  0  0  0
 15 31  1  0  0  0  0
 16 32  1  0  0  0  0
 18 19  2  0  0  0  0
 18 34  1  0  0  0  0
 19 22  1  0  0  0  0
 19 25  1  0  0  0  0
 20 23  1  0  0  0  0
 20 35  1  0  0  0  0
 21 24  2  0  0  0  0
 21 36  1  0  0  0  0
 22 23  2  0  0  0  0
 22 37  1  0  0  0  0
 23 38  1  0  0  0  0
 24 39  1  0  0  0  0
M  END
> <PUBCHEM_COMPOUND_CID>
25138012

> <PUBCHEM_CONFORMER_RMSD>
1

> <PUBCHEM_CONFORMER_DIVERSEORDER>
1
151
85
101
73
29
71
89
64
137
105
51
56
67
41
118
79
40
124
24
135
7
87
81
115
98
103
144
47
55
76
102
93
66
154
84
106
13
136
2
110
142
15
75
150
53
52
3
11
39
143
122
112
133
126
107
34
148
31
19
33
114
134
97
96
140
43
54
16
111
129
141
146
62
104
116
63
46
38
28
78
14
127
25
91
82
6
147
68
83
132
100
59
77
94
80
138
95
70
123
152
108
22
60
130
20
88
32
145
61
37
117
149
48
125
26
90
57
35
131
72
109
74
44
27
99
30
128
58
69
139
4
86
119
50
65
12
113
36
23
49
17
42
92
5
120
21
10
153
121
8
18
9
45

> <PUBCHEM_MMFF94_PARTIAL_CHARGES>
39
1 -0.53
10 -0.15
11 0.41
12 -0.15
13 0.1
14 0.08
15 0.14
16 -0.15
17 0.72
18 -0.15
19 0.09
2 -0.57
20 -0.15
21 -0.15
22 -0.15
23 -0.15
24 0.16
25 0.54
26 0.4
27 0.15
28 0.15
3 -0.6
32 0.15
33 0.4
34 0.15
35 0.15
36 0.15
37 0.15
38 0.15
39 0.15
4 -0.6
40 0.45
41 0.37
42 0.37
5 -0.62
6 -0.62
7 -0.8
8 0.1
9 -0.14

> <PUBCHEM_EFFECTIVE_ROTOR_COUNT>
5

> <PUBCHEM_PHARMACOPHORE_FEATURES>
9
1 1 donor
1 2 acceptor
1 3 donor
1 4 donor
1 7 donor
4 4 5 6 17 cation
6 13 18 19 20 22 23 rings
6 5 6 11 17 21 24 rings
6 8 9 10 12 14 16 rings

> <PUBCHEM_HEAVY_ATOM_COUNT>
25

> <PUBCHEM_ATOM_DEF_STEREO_COUNT>
0

> <PUBCHEM_ATOM_UDEF_STEREO_COUNT>
0

> <PUBCHEM_BOND_DEF_STEREO_COUNT>
0

> <PUBCHEM_BOND_UDEF_STEREO_COUNT>
0

> <PUBCHEM_ISOTOPIC_ATOM_COUNT>
0

> <PUBCHEM_COMPONENT_COUNT>
1

> <PUBCHEM_CACTVS_TAUTO_COUNT>
112

> <PUBCHEM_CONFORMER_ID>
017F935C00000001

> <PUBCHEM_MMFF94_ENERGY>
96.1264

> <PUBCHEM_FEATURE_SELFOVERLAP>
45.672

> <PUBCHEM_SHAPE_FINGERPRINT>
10616163 171 18048882089311861585
10675989 125 17035831245438981101
10693767 8 18126819730566223703
10906281 52 18339938003909173436
1100329 8 18266464192230343617
12038231 1 17834116342425468483
12553582 1 18267604436747374684
12633257 1 18408892832131174723
12788726 201 18048037368065747346
13122387 1 17618223905743787887
13140716 1 18340210794387983432
13402501 40 18339074887207042055
1361 2 16969704980173338619
13642711 20 17830142759643927581
138480 1 18411418414471963732
140371 6 18339644434457609504
14081887 123 17979627945108405866
14117953 113 18272368625225936223
14363568 33 18050597284543437898
14790565 3 18049164664127994852
17093844 170 18122899829034969536
19591789 44 18050576441236514292
19930381 70 18194680595483019983
20600515 1 18115315466335142390
20642791 13 18054500309961703821
20905425 154 18120101825218729951
22113638 7 18341885316237185622
23558518 356 17761499084432481316
23559900 14 18338227275495988417
238 59 18125427868355157943
3680242 22 18045784481630513795
6004065 56 18270095977846970885
81228 2 17981905041783858664
9709674 26 18264766739381332313

> <PUBCHEM_SHAPE_MULTIPOLES>
477.84
7.42
5.63
0.99
1.06
3.82
0.03
-3.51
-0.3
-1.35
-0.33
0.02
-0.73
0.86

> <PUBCHEM_SHAPE_SELFOVERLAP>
1040.684

> <PUBCHEM_SHAPE_VOLUME>
256.8

> <PUBCHEM_COORDINATE_TYPE>
2
5
10

$$$$
