10360970
  -OEChem-10062122043D

 46 49  0     0  0  0  0  0  0999 V2000
    2.2286    4.2580   -0.6014 O   0  0  0  0  0  0  0  0  0  0  0  0
   -2.2302    4.2562    0.6024 O   0  0  0  0  0  0  0  0  0  0  0  0
    1.3721   -1.0787   -0.3697 N   0  0  0  0  0  0  0  0  0  0  0  0
   -1.3714   -1.0793    0.3686 N   0  0  0  0  0  0  0  0  0  0  0  0
   -0.0008    4.6624    0.0007 N   0  0  0  0  0  0  0  0  0  0  0  0
    0.6700    2.5116   -0.1808 C   0  0  0  0  0  0  0  0  0  0  0  0
   -0.6707    2.5112    0.1800 C   0  0  0  0  0  0  0  0  0  0  0  0
    0.6812    0.1428   -0.1839 C   0  0  0  0  0  0  0  0  0  0  0  0
   -0.6806    0.1424    0.1825 C   0  0  0  0  0  0  0  0  0  0  0  0
    1.3754    1.3416   -0.3708 C   0  0  0  0  0  0  0  0  0  0  0  0
   -1.3756    1.3408    0.3697 C   0  0  0  0  0  0  0  0  0  0  0  0
    1.1059    3.9028   -0.2977 C   0  0  0  0  0  0  0  0  0  0  0  0
   -1.1072    3.9022    0.2983 C   0  0  0  0  0  0  0  0  0  0  0  0
    2.7172   -1.4440   -0.1942 C   0  0  0  0  0  0  0  0  0  0  0  0
   -2.7166   -1.4445    0.1937 C   0  0  0  0  0  0  0  0  0  0  0  0
    3.2815   -2.4495   -0.9840 C   0  0  0  0  0  0  0  0  0  0  0  0
   -3.2806   -2.4501    0.9839 C   0  0  0  0  0  0  0  0  0  0  0  0
    3.4993   -0.8037    0.7712 C   0  0  0  0  0  0  0  0  0  0  0  0
   -3.4991   -0.8043   -0.7714 C   0  0  0  0  0  0  0  0  0  0  0  0
    5.3938   -2.1705    0.1548 C   0  0  0  0  0  0  0  0  0  0  0  0
   -5.3934   -2.1711   -0.1540 C   0  0  0  0  0  0  0  0  0  0  0  0
    4.6170   -2.8121   -0.8098 C   0  0  0  0  0  0  0  0  0  0  0  0
   -4.6162   -2.8127    0.8102 C   0  0  0  0  0  0  0  0  0  0  0  0
    4.8349   -1.1663    0.9454 C   0  0  0  0  0  0  0  0  0  0  0  0
   -4.8348   -1.1669   -0.9449 C   0  0  0  0  0  0  0  0  0  0  0  0
    6.8214   -2.5589    0.3417 C   0  0  0  0  0  0  0  0  0  0  0  0
   -6.8211   -2.5595   -0.3405 C   0  0  0  0  0  0  0  0  0  0  0  0
    2.4155    1.3741   -0.6745 H   0  0  0  0  0  0  0  0  0  0  0  0
   -2.4156    1.3727    0.6737 H   0  0  0  0  0  0  0  0  0  0  0  0
    0.7828   -1.8279   -0.7213 H   0  0  0  0  0  0  0  0  0  0  0  0
   -0.7819   -1.8283    0.7201 H   0  0  0  0  0  0  0  0  0  0  0  0
   -0.0010    5.6763    0.0012 H   0  0  0  0  0  0  0  0  0  0  0  0
    2.6874   -2.9566   -1.7404 H   0  0  0  0  0  0  0  0  0  0  0  0
   -2.6862   -2.9571    1.7400 H   0  0  0  0  0  0  0  0  0  0  0  0
    3.0856   -0.0343    1.4176 H   0  0  0  0  0  0  0  0  0  0  0  0
   -3.0858   -0.0350   -1.4182 H   0  0  0  0  0  0  0  0  0  0  0  0
    5.0415   -3.5946   -1.4331 H   0  0  0  0  0  0  0  0  0  0  0  0
   -5.0404   -3.5952    1.4337 H   0  0  0  0  0  0  0  0  0  0  0  0
    5.4291   -0.6616    1.7026 H   0  0  0  0  0  0  0  0  0  0  0  0
   -5.4294   -0.6622   -1.7019 H   0  0  0  0  0  0  0  0  0  0  0  0
    6.9783   -3.6159    0.1007 H   0  0  0  0  0  0  0  0  0  0  0  0
    7.4634   -1.9526   -0.3051 H   0  0  0  0  0  0  0  0  0  0  0  0
    7.1366   -2.4177    1.3811 H   0  0  0  0  0  0  0  0  0  0  0  0
   -7.4630   -1.9516    0.3048 H   0  0  0  0  0  0  0  0  0  0  0  0
   -7.1359   -2.4203   -1.3803 H   0  0  0  0  0  0  0  0  0  0  0  0
   -6.9785   -3.6158   -0.0972 H   0  0  0  0  0  0  0  0  0  0  0  0
  1 12  2  0  0  0  0
  2 13  2  0  0  0  0
  3  8  1  0  0  0  0
  3 14  1  0  0  0  0
  3 30  1  0  0  0  0
  4  9  1  0  0  0  0
  4 15  1  0  0  0  0
  4 31  1  0  0  0  0
  5 12  1  0  0  0  0
  5 13  1  0  0  0  0
  5 32  1  0  0  0  0
  6  7  1  0  0  0  0
  6 10  2  0  0  0  0
  6 12  1  0  0  0  0
  7 11  2  0  0  0  0
  7 13  1  0  0  0  0
  8  9  2  0  0  0  0
  8 10  1  0  0  0  0
  9 11  1  0  0  0  0
 10 28  1  0  0  0  0
 11 29  1  0  0  0  0
 14 16  2  0  0  0  0
 14 18  1  0  0  0  0
 15 17  2  0  0  0  0
 15 19  1  0  0  0  0
 16 22  1  0  0  0  0
 16 33  1  0  0  0  0
 17 23  1  0  0  0  0
 17 34  1  0  0  0  0
 18 24  2  0  0  0  0
 18 35  1  0  0  0  0
 19 25  2  0  0  0  0
 19 36  1  0  0  0  0
 20 22  2  0  0  0  0
 20 24  1  0  0  0  0
 20 26  1  0  0  0  0
 21 23  2  0  0  0  0
 21 25  1  0  0  0  0
 21 27  1  0  0  0  0
 22 37  1  0  0  0  0
 23 38  1  0  0  0  0
 24 39  1  0  0  0  0
 25 40  1  0  0  0  0
 26 41  1  0  0  0  0
 26 42  1  0  0  0  0
 26 43  1  0  0  0  0
 27 44  1  0  0  0  0
 27 45  1  0  0  0  0
 27 46  1  0  0  0  0
M  END
> <PUBCHEM_COMPOUND_CID>
10360970

> <PUBCHEM_CONFORMER_RMSD>
0.8

> <PUBCHEM_CONFORMER_DIVERSEORDER>
1
14
3
9
2
5
11
12
10
16
8
15
4
7
6
13

> <PUBCHEM_MMFF94_PARTIAL_CHARGES>
40
1 -0.57
10 -0.15
11 -0.15
12 0.54
13 0.54
14 0.1
15 0.1
16 -0.15
17 -0.15
18 -0.15
19 -0.15
2 -0.57
20 -0.14
21 -0.14
22 -0.15
23 -0.15
24 -0.15
25 -0.15
26 0.14
27 0.14
28 0.15
29 0.15
3 -0.6
30 0.4
31 0.4
32 0.37
33 0.15
34 0.15
35 0.15
36 0.15
37 0.15
38 0.15
39 0.15
4 -0.6
40 0.15
5 -0.49
6 0.09
7 0.09
8 0.1
9 0.1

> <PUBCHEM_EFFECTIVE_ROTOR_COUNT>
4.2

> <PUBCHEM_PHARMACOPHORE_FEATURES>
11
1 1 acceptor
1 2 acceptor
1 3 cation
1 3 donor
1 4 cation
1 4 donor
1 5 donor
5 5 6 7 12 13 rings
6 14 16 18 20 22 24 rings
6 15 17 19 21 23 25 rings
6 6 7 8 9 10 11 rings

> <PUBCHEM_HEAVY_ATOM_COUNT>
27

> <PUBCHEM_ATOM_DEF_STEREO_COUNT>
0

> <PUBCHEM_ATOM_UDEF_STEREO_COUNT>
0

> <PUBCHEM_BOND_DEF_STEREO_COUNT>
0

> <PUBCHEM_BOND_UDEF_STEREO_COUNT>
0

> <PUBCHEM_ISOTOPIC_ATOM_COUNT>
0

> <PUBCHEM_COMPONENT_COUNT>
1

> <PUBCHEM_CACTVS_TAUTO_COUNT>
17

> <PUBCHEM_CONFORMER_ID>
009E188A00000001

> <PUBCHEM_MMFF94_ENERGY>
109.7936

> <PUBCHEM_FEATURE_SELFOVERLAP>
55.92

> <PUBCHEM_SHAPE_FINGERPRINT>
10319926 262 17979618054501116770
10411042 1 18410573985151899367
1100329 8 18337675205338474897
11101153 10 18409454687701450316
11265709 11 18410293605444447387
11488393 25 18118410776271991793
12107183 9 18342189843411117555
12440605 4 18266766677522805576
12516196 113 18410290328474545462
12553582 1 18266482986331971495
12623949 98 17561094566298625702
12730499 353 17832432273697495275
12788726 201 18334588919017072786
13004483 165 18340759395040349802
13757389 114 17907597830245526836
13782708 43 17823416175360974131
138480 1 14879190696871400640
13955234 65 17979641461370473667
140371 6 18410582776997615471
14068700 686 18270678646301716302
14508225 48 18410566258579359877
14844126 61 18118130160415178824
14866123 147 18122907525774697731
15042514 8 18266746770422526217
15927050 60 17619915402010781870
16087824 20 18122343476980347381
16992727 255 17898843553209477685
16992752 21 18410866443272492590
17686467 74 18410285901423047194
1813 80 18130239210726377695
18365409 1 18123185698328454645
1979834 28 18126552647465518768
20101258 96 18338248063279801288
20642791 13 18339642218312201750
21049683 271 18116440421454681396
21120745 212 18340221686942199124
21133410 58 18339350981408727631
21304303 172 18340488863676855913
2132832 1 18187375294341334420
21478907 32 18410857650820250953
21703447 108 18339348700832801698
21796203 349 18048913893350069026
23536364 44 18262785269278324575
23559900 14 18265046015514590491
24771750 20 17466798490151941268
255183 313 17838072415786375601
283562 15 18263081024578734626
3004659 81 17967531281257236630
3103668 31 18189612736364919717
3298306 158 17758966208731107068
3421961 26 18339642372814798067
4015057 19 18265888254506984495
437815 12 18408316697066394527
4408954 87 17126227676264555041
5309563 4 18411699885069661862
5385378 56 18050854617588489081
57527452 28 16199277964458867021
5969126 39 18341886351720163646
59755656 520 17760646963052602980
6004065 56 18338510975419161371
613672 6 18410849962570971343
6698420 124 17123112703745364432
6700243 42 17771658705507605878
7399639 24 18200574948892657778
77188 2 18410855490209283388
9658208 31 17694512442432660204
9981440 41 17182787563081585584

> <PUBCHEM_SHAPE_MULTIPOLES>
528.97
13.03
6.4
0.91
0.01
9.82
0
-21.47
0
0
0
0
-0.35
-0.09

> <PUBCHEM_SHAPE_SELFOVERLAP>
1173.977

> <PUBCHEM_SHAPE_VOLUME>
284.8

> <PUBCHEM_COORDINATE_TYPE>
2
5
10

$$$$
