49830545
  -OEChem-10052115193D

 34 36  0     0  0  0  0  0  0999 V2000
   -4.5793    2.9182   -0.6239 Cl  0  0  0  0  0  0  0  0  0  0  0  0
   -6.2114    1.5717    1.8248 Cl  0  0  0  0  0  0  0  0  0  0  0  0
    0.0383   -0.0388   -1.4546 O   0  0  0  0  0  0  0  0  0  0  0  0
    1.0806   -1.5324    0.0331 N   0  0  0  0  0  0  0  0  0  0  0  0
   -1.0816   -1.9120   -0.6925 N   0  0  0  0  0  0  0  0  0  0  0  0
    5.9742    0.8903    0.6140 N   0  0  0  0  0  0  0  0  0  0  0  0
    5.8912    1.9829   -0.1635 N   0  0  0  0  0  0  0  0  0  0  0  0
    3.9510    0.7706   -0.2233 C   0  0  0  0  0  0  0  0  0  0  0  0
    4.8427    0.1201    0.6221 C   0  0  0  0  0  0  0  0  0  0  0  0
    2.3437   -0.9700    0.2258 C   0  0  0  0  0  0  0  0  0  0  0  0
   -2.3118   -1.6757   -1.4123 C   0  0  0  0  0  0  0  0  0  0  0  0
    2.6746    0.2218   -0.4312 C   0  0  0  0  0  0  0  0  0  0  0  0
   -3.2805   -0.8520   -0.6140 C   0  0  0  0  0  0  0  0  0  0  0  0
    4.5329   -1.0685    1.2867 C   0  0  0  0  0  0  0  0  0  0  0  0
    3.2586   -1.6025    1.0697 C   0  0  0  0  0  0  0  0  0  0  0  0
    4.6590    1.9066   -0.6712 C   0  0  0  0  0  0  0  0  0  0  0  0
    0.0237   -1.0584   -0.7692 C   0  0  0  0  0  0  0  0  0  0  0  0
   -3.4767    0.4931   -0.9272 C   0  0  0  0  0  0  0  0  0  0  0  0
   -3.9848   -1.4324    0.4407 C   0  0  0  0  0  0  0  0  0  0  0  0
   -4.3773    1.2577   -0.1857 C   0  0  0  0  0  0  0  0  0  0  0  0
   -4.8854   -0.6676    1.1825 C   0  0  0  0  0  0  0  0  0  0  0  0
   -5.0816    0.6774    0.8692 C   0  0  0  0  0  0  0  0  0  0  0  0
   -2.7530   -2.6518   -1.6438 H   0  0  0  0  0  0  0  0  0  0  0  0
   -2.0829   -1.1936   -2.3698 H   0  0  0  0  0  0  0  0  0  0  0  0
    2.0195    0.7635   -1.0953 H   0  0  0  0  0  0  0  0  0  0  0  0
    5.2447   -1.5583    1.9416 H   0  0  0  0  0  0  0  0  0  0  0  0
    2.9904   -2.5283    1.5749 H   0  0  0  0  0  0  0  0  0  0  0  0
    0.9021   -2.3970    0.5381 H   0  0  0  0  0  0  0  0  0  0  0  0
   -1.0280   -2.7255   -0.0872 H   0  0  0  0  0  0  0  0  0  0  0  0
    4.3263    2.6817   -1.3471 H   0  0  0  0  0  0  0  0  0  0  0  0
    6.8374    0.7263    1.1169 H   0  0  0  0  0  0  0  0  0  0  0  0
   -2.9250    0.9428   -1.7498 H   0  0  0  0  0  0  0  0  0  0  0  0
   -3.8403   -2.4794    0.6939 H   0  0  0  0  0  0  0  0  0  0  0  0
   -5.4258   -1.1362    2.0012 H   0  0  0  0  0  0  0  0  0  0  0  0
  1 20  1  0  0  0  0
  2 22  1  0  0  0  0
  3 17  2  0  0  0  0
  4 10  1  0  0  0  0
  4 17  1  0  0  0  0
  4 28  1  0  0  0  0
  5 11  1  0  0  0  0
  5 17  1  0  0  0  0
  5 29  1  0  0  0  0
  6  7  1  0  0  0  0
  6  9  1  0  0  0  0
  6 31  1  0  0  0  0
  7 16  2  0  0  0  0
  8  9  2  0  0  0  0
  8 12  1  0  0  0  0
  8 16  1  0  0  0  0
  9 14  1  0  0  0  0
 10 12  2  0  0  0  0
 10 15  1  0  0  0  0
 11 13  1  0  0  0  0
 11 23  1  0  0  0  0
 11 24  1  0  0  0  0
 12 25  1  0  0  0  0
 13 18  2  0  0  0  0
 13 19  1  0  0  0  0
 14 15  2  0  0  0  0
 14 26  1  0  0  0  0
 15 27  1  0  0  0  0
 16 30  1  0  0  0  0
 18 20  1  0  0  0  0
 18 32  1  0  0  0  0
 19 21  2  0  0  0  0
 19 33  1  0  0  0  0
 20 22  2  0  0  0  0
 21 22  1  0  0  0  0
 21 34  1  0  0  0  0
M  END
> <PUBCHEM_COMPOUND_CID>
49830545

> <PUBCHEM_CONFORMER_RMSD>
0.8

> <PUBCHEM_CONFORMER_DIVERSEORDER>
1
109
32
92
13
62
111
28
86
15
44
61
9
75
43
85
25
66
29
103
67
23
18
108
31
114
106
37
69
47
72
98
11
78
27
100
56
68
33
74
2
113
8
52
84
102
76
99
12
88
55
50
7
59
73
79
14
30
89
83
24
38
80
35
77
57
91
117
6
115
22
63
65
26
95
34
105
71
87
46
118
40
58
20
81
17
90
39
48
42
36
5
101
70
3
82
54
51
110
116
104
41
93
96
119
19
64
10
94
60
49
53
45
21
4
107
16
97
112

> <PUBCHEM_MMFF94_PARTIAL_CHARGES>
31
1 -0.18
10 0.12
11 0.44
12 -0.15
13 -0.14
14 -0.15
15 -0.15
16 0.14
17 0.69
18 -0.15
19 -0.15
2 -0.18
20 0.18
21 -0.15
22 0.18
25 0.15
26 0.15
27 0.15
28 0.37
29 0.37
3 -0.57
30 0.15
31 0.27
32 0.15
33 0.15
34 0.15
4 -0.55
5 -0.73
6 0.3
7 -0.71
9 -0.15

> <PUBCHEM_EFFECTIVE_ROTOR_COUNT>
5

> <PUBCHEM_PHARMACOPHORE_FEATURES>
8
1 3 acceptor
1 4 donor
1 5 donor
1 6 donor
1 7 acceptor
5 6 7 8 9 16 rings
6 13 18 19 20 21 22 rings
6 8 9 10 12 14 15 rings

> <PUBCHEM_HEAVY_ATOM_COUNT>
22

> <PUBCHEM_ATOM_DEF_STEREO_COUNT>
0

> <PUBCHEM_ATOM_UDEF_STEREO_COUNT>
0

> <PUBCHEM_BOND_DEF_STEREO_COUNT>
0

> <PUBCHEM_BOND_UDEF_STEREO_COUNT>
0

> <PUBCHEM_ISOTOPIC_ATOM_COUNT>
0

> <PUBCHEM_COMPONENT_COUNT>
1

> <PUBCHEM_CACTVS_TAUTO_COUNT>
6

> <PUBCHEM_CONFORMER_ID>
02F85A9100000001

> <PUBCHEM_MMFF94_ENERGY>
47.5458

> <PUBCHEM_FEATURE_SELFOVERLAP>
40.736

> <PUBCHEM_SHAPE_FINGERPRINT>
10 15 18261401035731341689
105312 117 16773795917742766527
10670039 82 17131565959192209464
10912923 1 18338221760932222406
11370993 144 17968934176436697999
11552529 35 17824261716270323339
12107183 9 18047176463082733498
12596602 18 18040997341147117907
12760667 363 10665234748535478821
12892183 10 17967536736076315811
12969540 114 16200428074299556751
13398642 44 16953675058243953700
13782708 43 14852428971337276802
13785724 45 17906730307356277898
14251740 79 10879986978426503917
14251751 18 11891328768480651428
14341114 176 18113621161781768925
14341114 328 18409165523704800515
14790565 3 18336546131318490156
14848178 5 7781522503215509564
14849402 71 17750240382308221044
14950920 106 17603578599940502513
15163728 17 17632304445239276759
15183329 4 12607410970213747085
15188451 53 14634874175868685851
15238133 3 17988917877929020250
1601671 61 17989204871843539264
16110190 28 18407764733433678557
17349148 13 10809338897901682254
17844677 252 18334859385565037046
18785283 64 16226621826171563252
19377110 9 17531539779331401063
193927 3 12035731972515299379
19958102 18 11167938031221851233
20028762 73 8574447408948138664
20281389 69 18131347531437195850
20739085 24 17894633613306728262
21065198 48 18335132111508898895
21302155 148 18411422782701773109
21315759 148 17968105208867310475
22061861 79 12103847856111949120
22393880 68 12319453264688007871
2303208 19 15792001248054036642
25122255 55 11891321024612639888
270888 7 17917155988247448273
2748736 6 17987236638872533401
2838139 119 16773789252095947571
312425 54 16515968069213225233
38570 142 17388001865515626380
44062 13 9727631696690663801
484985 159 8358250489402572749
5104073 3 17822567222653395728
5718773 13 12324537484302748369
57724786 102 17986398785041546395
59755656 520 14907910418095749687
633830 44 18410848841911418830
636775 72 17910950563864917336
7808743 9 18272087231653403231
7970288 3 11746943109308858129
90127 26 18408610235941568534
960060 61 12895075145707311586

> <PUBCHEM_SHAPE_MULTIPOLES>
430.7
16.7
2.43
1.38
3.34
0.96
0.2
9.57
6.24
-0.88
-0.32
-1.21
-0.09
-1.27

> <PUBCHEM_SHAPE_SELFOVERLAP>
920.696

> <PUBCHEM_SHAPE_VOLUME>
240

> <PUBCHEM_COORDINATE_TYPE>
2
5
10

$$$$
