49830642
  -OEChem-10062121533D

 24 26  0     0  0  0  0  0  0999 V2000
    3.3946    0.2565   -0.6836 S   0  0  0  0  0  0  0  0  0  0  0  0
    0.9509   -0.5259    0.0420 N   0  0  0  0  0  0  0  0  0  0  0  0
    0.1537   -2.6003    0.0696 N   0  0  0  0  0  0  0  0  0  0  0  0
    2.5309   -2.2762    0.1084 N   0  0  0  0  0  0  0  0  0  0  0  0
    1.6476    1.7098    0.5488 N   0  0  0  0  0  0  0  0  0  0  0  0
   -4.2657    2.4841   -0.1228 N   0  0  0  0  0  0  0  0  0  0  0  0
   -0.4138   -0.3940    0.0127 C   0  0  0  0  0  0  0  0  0  0  0  0
   -0.8883   -1.7026    0.0307 C   0  0  0  0  0  0  0  0  0  0  0  0
    1.2406   -1.8615    0.0752 C   0  0  0  0  0  0  0  0  0  0  0  0
   -1.2483    0.7235   -0.0269 C   0  0  0  0  0  0  0  0  0  0  0  0
    1.8601    0.5168    0.0393 C   0  0  0  0  0  0  0  0  0  0  0  0
   -2.2749   -1.9286    0.0086 C   0  0  0  0  0  0  0  0  0  0  0  0
   -2.6256    0.4801   -0.0484 C   0  0  0  0  0  0  0  0  0  0  0  0
   -3.1319   -0.8215   -0.0309 C   0  0  0  0  0  0  0  0  0  0  0  0
    3.8253    1.8696   -0.2917 C   0  0  0  0  0  0  0  0  0  0  0  0
    2.7756    2.4839    0.3584 C   0  0  0  0  0  0  0  0  0  0  0  0
   -3.5309    1.5864   -0.0895 C   0  0  0  0  0  0  0  0  0  0  0  0
   -0.8563    1.7345   -0.0477 H   0  0  0  0  0  0  0  0  0  0  0  0
   -2.6780   -2.9362    0.0219 H   0  0  0  0  0  0  0  0  0  0  0  0
   -4.2060   -0.9962   -0.0481 H   0  0  0  0  0  0  0  0  0  0  0  0
    2.7573   -3.2658    0.1222 H   0  0  0  0  0  0  0  0  0  0  0  0
    3.3279   -1.6539    0.1738 H   0  0  0  0  0  0  0  0  0  0  0  0
    4.7929    2.2779   -0.5460 H   0  0  0  0  0  0  0  0  0  0  0  0
    2.7811    3.5043    0.7171 H   0  0  0  0  0  0  0  0  0  0  0  0
  1 11  1  0  0  0  0
  1 15  1  0  0  0  0
  2  7  1  0  0  0  0
  2  9  1  0  0  0  0
  2 11  1  0  0  0  0
  3  8  1  0  0  0  0
  3  9  2  0  0  0  0
  4  9  1  0  0  0  0
  4 21  1  0  0  0  0
  4 22  1  0  0  0  0
  5 11  2  0  0  0  0
  5 16  1  0  0  0  0
  6 17  3  0  0  0  0
  7  8  2  0  0  0  0
  7 10  1  0  0  0  0
  8 12  1  0  0  0  0
 10 13  2  0  0  0  0
 10 18  1  0  0  0  0
 12 14  2  0  0  0  0
 12 19  1  0  0  0  0
 13 14  1  0  0  0  0
 13 17  1  0  0  0  0
 14 20  1  0  0  0  0
 15 16  2  0  0  0  0
 15 23  1  0  0  0  0
 16 24  1  0  0  0  0
M  END
> <PUBCHEM_COMPOUND_CID>
49830642

> <PUBCHEM_CONFORMER_RMSD>
0.6

> <PUBCHEM_CONFORMER_DIVERSEORDER>
1
3
2
4

> <PUBCHEM_MMFF94_PARTIAL_CHARGES>
24
1 -0.08
10 -0.15
11 0.3
12 -0.15
13 0.07
14 -0.15
15 -0.11
16 0.08
17 0.48
18 0.15
19 0.15
2 0.38
20 0.15
21 0.4
22 0.4
23 0.15
24 0.15
3 -0.57
4 -0.88
5 -0.57
6 -0.56
7 -0.15
8 0.23
9 0.27

> <PUBCHEM_EFFECTIVE_ROTOR_COUNT>
1

> <PUBCHEM_PHARMACOPHORE_FEATURES>
6
1 4 donor
1 6 acceptor
4 2 3 4 9 cation
5 1 5 11 15 16 rings
5 2 3 7 8 9 rings
6 7 8 10 12 13 14 rings

> <PUBCHEM_HEAVY_ATOM_COUNT>
17

> <PUBCHEM_ATOM_DEF_STEREO_COUNT>
0

> <PUBCHEM_ATOM_UDEF_STEREO_COUNT>
0

> <PUBCHEM_BOND_DEF_STEREO_COUNT>
0

> <PUBCHEM_BOND_UDEF_STEREO_COUNT>
0

> <PUBCHEM_ISOTOPIC_ATOM_COUNT>
0

> <PUBCHEM_COMPONENT_COUNT>
1

> <PUBCHEM_CACTVS_TAUTO_COUNT>
2

> <PUBCHEM_CONFORMER_ID>
02F85AF200000001

> <PUBCHEM_MMFF94_ENERGY>
40.8491

> <PUBCHEM_FEATURE_SELFOVERLAP>
30.553

> <PUBCHEM_SHAPE_FINGERPRINT>
10411042 1 17041480515229688643
10498660 4 18264763444941047429
10608611 8 18411701027530325908
10756046 5 18343300349258580167
10967382 1 18194682566345293272
12173636 292 18122341547632085852
12390115 104 18269014118065646577
12403260 363 18266164214196294406
13140716 1 18334854970312205347
13380535 21 18409173203232698723
13464514 151 18340215111193703452
13897977 150 18410007711257443645
14123255 52 18410573989610429469
14648413 74 18338235964278027827
15042514 8 17760368090589469826
15196674 1 18410856577215408108
15475509 8 17124538795431488670
16945 1 18194959866645791555
17134986 127 18410292497400952884
18186145 218 18130240340497669104
20510252 161 18126008414557586305
20671657 1 18338796697927707675
21279426 13 18341059536677788684
21501502 16 18409722954741355759
21524375 3 18335414707640592958
22094290 62 18338796689411645619
22182937 141 18341342162320989409
2334 1 18410854395113617371
23366157 5 18113336397361724258
23402539 116 17909540997666308334
23558518 356 18188211021303756659
23559900 14 18272941557469719628
238 59 17540777670064951765
25 1 18410293584069675332
2748010 2 18409453600141203567
3071541 12 18339080380575838582
335352 9 18338516314226215902
350125 39 18409736174640006987
474 4 18339077065267417593
5104073 3 18407761425844098707
5939293 188 18267580204699925314
7364860 26 18412545379826068910
7832392 63 18411698772809593708
81228 2 16973635721035651266
84936 182 18271519819049834520
9709674 26 18126293184254273846

> <PUBCHEM_SHAPE_MULTIPOLES>
328.8
6.83
3.11
0.66
0.59
0.13
-0.03
-4.94
-0.65
0.25
0.19
-0.18
-0.06
0.21

> <PUBCHEM_SHAPE_SELFOVERLAP>
724.361

> <PUBCHEM_SHAPE_VOLUME>
178

> <PUBCHEM_COORDINATE_TYPE>
2
5
10

$$$$
