17758019
  -OEChem-10052120443D

 41 44  0     0  0  0  0  0  0999 V2000
   -5.4582   -0.4237    1.4128 Br  0  0  0  0  0  0  0  0  0  0  0  0
    3.4182    0.4866    2.6516 Cl  0  0  0  0  0  0  0  0  0  0  0  0
    5.4137    0.5644    0.4605 F   0  0  0  0  0  0  0  0  0  0  0  0
   -1.8036   -3.0930   -1.2484 N   0  0  0  0  0  0  0  0  0  0  0  0
    0.2405    1.5993   -1.2076 N   0  0  0  0  0  0  0  0  0  0  0  0
   -3.4165    1.8172    0.8491 N   0  0  0  0  0  0  0  0  0  0  0  0
    0.2284   -3.9715    0.7151 N   0  0  0  0  0  0  0  0  0  0  0  0
    1.3448   -3.7226    1.4182 N   0  0  0  0  0  0  0  0  0  0  0  0
    2.3337   -3.0325    0.8275 N   0  0  0  0  0  0  0  0  0  0  0  0
   -0.0243    5.0496   -0.2100 N   0  0  0  0  0  0  0  0  0  0  0  0
   -1.7899    0.5169   -0.3638 C   0  0  0  0  0  0  0  0  0  0  0  0
   -0.9966    1.6621   -0.5155 C   0  0  0  0  0  0  0  0  0  0  0  0
   -3.0090    0.6413    0.3351 C   0  0  0  0  0  0  0  0  0  0  0  0
   -2.2030   -1.8480   -0.7220 C   0  0  0  0  0  0  0  0  0  0  0  0
   -1.3957   -0.7262   -0.8872 C   0  0  0  0  0  0  0  0  0  0  0  0
   -3.7968   -0.4966    0.4853 C   0  0  0  0  0  0  0  0  0  0  0  0
   -3.4050   -1.7327   -0.0349 C   0  0  0  0  0  0  0  0  0  0  0  0
   -1.4139    2.8751    0.0131 C   0  0  0  0  0  0  0  0  0  0  0  0
   -0.4467   -3.3948   -1.5871 C   0  0  0  0  0  0  0  0  0  0  0  0
    1.5504    1.3366   -0.7804 C   0  0  0  0  0  0  0  0  0  0  0  0
   -2.6215    2.8985    0.6808 C   0  0  0  0  0  0  0  0  0  0  0  0
    0.5247   -3.3837   -0.4473 C   0  0  0  0  0  0  0  0  0  0  0  0
    1.8061    1.0730    0.5653 C   0  0  0  0  0  0  0  0  0  0  0  0
    2.5977    1.3391   -1.7018 C   0  0  0  0  0  0  0  0  0  0  0  0
    3.1089    0.8116    0.9896 C   0  0  0  0  0  0  0  0  0  0  0  0
    3.9005    1.0781   -1.2773 C   0  0  0  0  0  0  0  0  0  0  0  0
   -0.6468    4.0753   -0.1100 C   0  0  0  0  0  0  0  0  0  0  0  0
    1.8037   -2.8134   -0.3791 C   0  0  0  0  0  0  0  0  0  0  0  0
    4.1562    0.8141    0.0683 C   0  0  0  0  0  0  0  0  0  0  0  0
   -0.4667   -0.8004   -1.4434 H   0  0  0  0  0  0  0  0  0  0  0  0
   -4.0371   -2.6086    0.0954 H   0  0  0  0  0  0  0  0  0  0  0  0
   -2.4518   -3.8653   -1.1351 H   0  0  0  0  0  0  0  0  0  0  0  0
    0.1421    1.7741   -2.2034 H   0  0  0  0  0  0  0  0  0  0  0  0
   -0.0933   -2.7443   -2.3966 H   0  0  0  0  0  0  0  0  0  0  0  0
   -0.4260   -4.4060   -2.0147 H   0  0  0  0  0  0  0  0  0  0  0  0
   -3.0119    3.8119    1.1209 H   0  0  0  0  0  0  0  0  0  0  0  0
    0.9985    1.0666    1.2935 H   0  0  0  0  0  0  0  0  0  0  0  0
    2.4127    1.5424   -2.7534 H   0  0  0  0  0  0  0  0  0  0  0  0
    4.7160    1.0796   -1.9945 H   0  0  0  0  0  0  0  0  0  0  0  0
    2.3625   -2.2640   -1.1220 H   0  0  0  0  0  0  0  0  0  0  0  0
    1.4387   -4.0474    2.3740 H   0  0  0  0  0  0  0  0  0  0  0  0
  1 16  1  0  0  0  0
  2 25  1  0  0  0  0
  3 29  1  0  0  0  0
  4 14  1  0  0  0  0
  4 19  1  0  0  0  0
  4 32  1  0  0  0  0
  5 12  1  0  0  0  0
  5 20  1  0  0  0  0
  5 33  1  0  0  0  0
  6 13  2  0  0  0  0
  6 21  1  0  0  0  0
  7  8  1  0  0  0  0
  7 22  2  0  0  0  0
  8  9  1  0  0  0  0
  8 41  1  0  0  0  0
  9 28  2  0  0  0  0
 10 27  3  0  0  0  0
 11 12  2  0  0  0  0
 11 13  1  0  0  0  0
 11 15  1  0  0  0  0
 12 18  1  0  0  0  0
 13 16  1  0  0  0  0
 14 15  2  0  0  0  0
 14 17  1  0  0  0  0
 15 30  1  0  0  0  0
 16 17  2  0  0  0  0
 17 31  1  0  0  0  0
 18 21  2  0  0  0  0
 18 27  1  0  0  0  0
 19 22  1  0  0  0  0
 19 34  1  0  0  0  0
 19 35  1  0  0  0  0
 20 23  2  0  0  0  0
 20 24  1  0  0  0  0
 21 36  1  0  0  0  0
 22 28  1  0  0  0  0
 23 25  1  0  0  0  0
 23 37  1  0  0  0  0
 24 26  2  0  0  0  0
 24 38  1  0  0  0  0
 25 29  2  0  0  0  0
 26 29  1  0  0  0  0
 26 39  1  0  0  0  0
 28 40  1  0  0  0  0
M  END
> <PUBCHEM_COMPOUND_CID>
17758019

> <PUBCHEM_CONFORMER_RMSD>
0.8

> <PUBCHEM_CONFORMER_DIVERSEORDER>
2
131
187
97
11
6
63
240
108
125
171
209
220
214
71
200
7
88
49
133
74
102
241
35
243
44
132
95
144
48
224
148
186
179
231
140
51
80
16
77
121
145
57
225
135
46
229
138
81
146
69
72
61
101
136
193
234
244
10
92
103
13
139
15
137
62
127
60
191
184
36
66
197
176
84
245
17
14
107
117
126
221
82
50
163
159
228
161
111
93
3
129
189
52
246
116
29
122
199
12
130
151
202
239
208
40
188
78
41
211
55
158
141
223
33
91
20
28
152
142
233
226
56
26
54
198
83
119
204
19
4
237
236
147
94
134
219
216
201
24
242
114
170
180
39
25
31
238
167
185
143
168
22
64
123
118
110
178
128
18
162
183
109
79
177
23
58
235
85
5
182
76
90
87
65
104
75
153
30
195
210
149
27
169
115
181
230
164
157
160
217
150
21
96
32
68
38
165
37
213
42
196
172
194
70
156
222
227
53
100
192
67
1
113
43
154
166
86
73
98
45
106
34
112
120
99
9
8
47
89
59
203
155
175
218
205
212
215
207
190
105
174
232
173
206
124

> <PUBCHEM_MMFF94_PARTIAL_CHARGES>
38
1 -0.11
10 -0.56
12 0.1
13 0.31
14 0.1
15 -0.15
16 0.11
17 -0.15
18 0.07
19 0.55
2 -0.18
20 0.1
21 0.16
22 0.11
23 -0.15
24 -0.15
25 0.18
26 -0.15
27 0.48
28 0.14
29 0.19
3 -0.19
30 0.15
31 0.15
32 0.4
33 0.4
36 0.15
37 0.15
38 0.15
39 0.15
4 -0.87
40 0.15
41 0.27
5 -0.6
6 -0.62
7 -0.71
8 0.57
9 -0.71

> <PUBCHEM_EFFECTIVE_ROTOR_COUNT>
5

> <PUBCHEM_PHARMACOPHORE_FEATURES>
13
1 1 hydrophobe
1 10 acceptor
1 4 cation
1 4 donor
1 5 cation
1 5 donor
1 6 acceptor
1 7 acceptor
1 9 acceptor
5 7 8 9 22 28 rings
6 11 13 14 15 16 17 rings
6 20 23 24 25 26 29 rings
6 6 11 12 13 18 21 rings

> <PUBCHEM_HEAVY_ATOM_COUNT>
29

> <PUBCHEM_ATOM_DEF_STEREO_COUNT>
0

> <PUBCHEM_ATOM_UDEF_STEREO_COUNT>
0

> <PUBCHEM_BOND_DEF_STEREO_COUNT>
0

> <PUBCHEM_BOND_UDEF_STEREO_COUNT>
0

> <PUBCHEM_ISOTOPIC_ATOM_COUNT>
0

> <PUBCHEM_COMPONENT_COUNT>
1

> <PUBCHEM_CACTVS_TAUTO_COUNT>
9

> <PUBCHEM_CONFORMER_ID>
010EF74300000002

> <PUBCHEM_MMFF94_ENERGY>
94.6887

> <PUBCHEM_FEATURE_SELFOVERLAP>
66.052

> <PUBCHEM_SHAPE_FINGERPRINT>
10006869 2 18198912409975544945
10675989 125 17836344318989344087
1100329 8 18051418658436917815
12422481 6 17905859532901609738
12553582 1 18337950202929184909
12788726 201 17979085099490741414
13122387 1 17546727049724912494
13140716 1 18051986006742909217
14178342 30 18265044752677913788
15420108 30 18059305288382893703
19319366 153 17532935128612474304
20028762 73 17985841556253998495
20600515 1 18128822030374705325
20905425 154 18269848509893678991
21796203 349 17901703610106470152
23559900 14 18121502345387544765
3178227 256 18122647178353870595
338550 245 18335989701125385230
445580 8 18335693987757276763
5265222 85 18341907311914455244
57091435 65 18337397019700012478
602551 16 18271809068497456372
6287921 2 18339357448942984290

> <PUBCHEM_SHAPE_MULTIPOLES>
562.48
7.94
5.83
1.6
0.2
0.8
-0.55
-1.03
-3.14
-0.48
0.46
1.1
0.4
-1.1

> <PUBCHEM_SHAPE_SELFOVERLAP>
1221.532

> <PUBCHEM_SHAPE_VOLUME>
312.5

> <PUBCHEM_COORDINATE_TYPE>
2
5
10

$$$$
