16220223
  -OEChem-10062122003D

 62 66  0     0  0  0  0  0  0999 V2000
   -3.4230    0.6490   -2.4522 S   0  0  0  0  0  0  0  0  0  0  0  0
    1.1506    0.0609   -1.6880 O   0  0  0  0  0  0  0  0  0  0  0  0
   -8.3236   -0.8362    0.3894 O   0  0  0  0  0  0  0  0  0  0  0  0
   -9.4093   -3.4120    0.2591 O   0  0  0  0  0  0  0  0  0  0  0  0
    6.4685   -0.9327   -0.3476 N   0  0  0  0  0  0  0  0  0  0  0  0
    7.3356   -3.6015    0.3482 N   0  0  0  0  0  0  0  0  0  0  0  0
    0.4079    3.1899    1.5459 N   0  0  0  0  0  0  0  0  0  0  0  0
   -0.8720    3.0172    1.1207 N   0  0  0  0  0  0  0  0  0  0  0  0
    6.0242   -1.5794    0.8931 C   0  0  0  0  0  0  0  0  0  0  0  0
    7.7938   -1.4293   -0.7377 C   0  0  0  0  0  0  0  0  0  0  0  0
    6.0107   -3.1040    0.7385 C   0  0  0  0  0  0  0  0  0  0  0  0
    7.7816   -2.9540   -0.8916 C   0  0  0  0  0  0  0  0  0  0  0  0
    6.4820    0.5212   -0.1993 C   0  0  0  0  0  0  0  0  0  0  0  0
    5.1171    1.0640    0.1317 C   0  0  0  0  0  0  0  0  0  0  0  0
    2.7934    1.1309   -0.2288 C   0  0  0  0  0  0  0  0  0  0  0  0
    2.6619    2.1044    0.7962 C   0  0  0  0  0  0  0  0  0  0  0  0
    7.3207   -5.0554    0.1983 C   0  0  0  0  0  0  0  0  0  0  0  0
    4.0143    0.5964   -0.5776 C   0  0  0  0  0  0  0  0  0  0  0  0
    1.2685    2.4095    0.8651 C   0  0  0  0  0  0  0  0  0  0  0  0
    0.5417    1.6911   -0.0448 C   0  0  0  0  0  0  0  0  0  0  0  0
    4.9997    2.0287    1.1498 C   0  0  0  0  0  0  0  0  0  0  0  0
    1.4296    0.8388   -0.7980 C   0  0  0  0  0  0  0  0  0  0  0  0
    3.7535    2.5642    1.4950 C   0  0  0  0  0  0  0  0  0  0  0  0
   -0.7740    2.0942    0.1441 C   0  0  0  0  0  0  0  0  0  0  0  0
   -1.9106    1.6004   -0.6003 C   0  0  0  0  0  0  0  0  0  0  0  0
   -3.2222    1.5190   -0.0434 C   0  0  0  0  0  0  0  0  0  0  0  0
   -1.8814    1.1569   -1.9069 C   0  0  0  0  0  0  0  0  0  0  0  0
   -4.1393    1.0196   -0.9417 C   0  0  0  0  0  0  0  0  0  0  0  0
   -5.5238    0.8242   -0.6688 C   0  0  0  0  0  0  0  0  0  0  0  0
   -6.6981    0.6579   -0.4370 C   0  0  0  0  0  0  0  0  0  0  0  0
   -8.1198    0.4587   -0.1578 C   0  0  0  0  0  0  0  0  0  0  0  0
   -9.6956   -1.0722    0.6764 C   0  0  0  0  0  0  0  0  0  0  0  0
   -9.8507   -2.4742    1.2332 C   0  0  0  0  0  0  0  0  0  0  0  0
   -9.5118   -4.7461    0.7369 C   0  0  0  0  0  0  0  0  0  0  0  0
    6.6792   -1.3038    1.7314 H   0  0  0  0  0  0  0  0  0  0  0  0
    5.0069   -1.2858    1.1724 H   0  0  0  0  0  0  0  0  0  0  0  0
    8.0866   -0.9888   -1.6985 H   0  0  0  0  0  0  0  0  0  0  0  0
    8.5544   -1.1396    0.0000 H   0  0  0  0  0  0  0  0  0  0  0  0
    5.2498   -3.3938    0.0011 H   0  0  0  0  0  0  0  0  0  0  0  0
    5.7191   -3.5456    1.6994 H   0  0  0  0  0  0  0  0  0  0  0  0
    8.7984   -3.2839   -1.1369 H   0  0  0  0  0  0  0  0  0  0  0  0
    7.1349   -3.2343   -1.7343 H   0  0  0  0  0  0  0  0  0  0  0  0
    6.7990    0.9914   -1.1393 H   0  0  0  0  0  0  0  0  0  0  0  0
    7.2093    0.8208    0.5673 H   0  0  0  0  0  0  0  0  0  0  0  0
    4.0950   -0.1363   -1.3718 H   0  0  0  0  0  0  0  0  0  0  0  0
    6.6279   -5.3848   -0.5845 H   0  0  0  0  0  0  0  0  0  0  0  0
    8.3216   -5.4264   -0.0489 H   0  0  0  0  0  0  0  0  0  0  0  0
    7.0311   -5.5357    1.1395 H   0  0  0  0  0  0  0  0  0  0  0  0
    5.8819    2.3739    1.6842 H   0  0  0  0  0  0  0  0  0  0  0  0
    3.6646    3.3072    2.2789 H   0  0  0  0  0  0  0  0  0  0  0  0
    0.5869    3.8511    2.2921 H   0  0  0  0  0  0  0  0  0  0  0  0
   -3.4827    1.8099    0.9681 H   0  0  0  0  0  0  0  0  0  0  0  0
   -1.0442    1.1187   -2.5889 H   0  0  0  0  0  0  0  0  0  0  0  0
   -8.6967    0.5609   -1.0840 H   0  0  0  0  0  0  0  0  0  0  0  0
   -8.4678    1.2162    0.5537 H   0  0  0  0  0  0  0  0  0  0  0  0
  -10.2747   -0.9768   -0.2495 H   0  0  0  0  0  0  0  0  0  0  0  0
  -10.0549   -0.3388    1.4066 H   0  0  0  0  0  0  0  0  0  0  0  0
   -9.2374   -2.5839    2.1352 H   0  0  0  0  0  0  0  0  0  0  0  0
  -10.9005   -2.6637    1.4825 H   0  0  0  0  0  0  0  0  0  0  0  0
   -9.1652   -5.4211   -0.0502 H   0  0  0  0  0  0  0  0  0  0  0  0
   -8.8812   -4.8873    1.6200 H   0  0  0  0  0  0  0  0  0  0  0  0
  -10.5520   -4.9904    0.9731 H   0  0  0  0  0  0  0  0  0  0  0  0
  1 27  1  0  0  0  0
  1 28  1  0  0  0  0
  2 22  2  0  0  0  0
  3 31  1  0  0  0  0
  3 32  1  0  0  0  0
  4 33  1  0  0  0  0
  4 34  1  0  0  0  0
  5  9  1  0  0  0  0
  5 10  1  0  0  0  0
  5 13  1  0  0  0  0
  6 11  1  0  0  0  0
  6 12  1  0  0  0  0
  6 17  1  0  0  0  0
  7  8  1  0  0  0  0
  7 19  1  0  0  0  0
  7 51  1  0  0  0  0
  8 24  2  0  0  0  0
  9 11  1  0  0  0  0
  9 35  1  0  0  0  0
  9 36  1  0  0  0  0
 10 12  1  0  0  0  0
 10 37  1  0  0  0  0
 10 38  1  0  0  0  0
 11 39  1  0  0  0  0
 11 40  1  0  0  0  0
 12 41  1  0  0  0  0
 12 42  1  0  0  0  0
 13 14  1  0  0  0  0
 13 43  1  0  0  0  0
 13 44  1  0  0  0  0
 14 18  2  0  0  0  0
 14 21  1  0  0  0  0
 15 16  2  0  0  0  0
 15 18  1  0  0  0  0
 15 22  1  0  0  0  0
 16 19  1  0  0  0  0
 16 23  1  0  0  0  0
 17 46  1  0  0  0  0
 17 47  1  0  0  0  0
 17 48  1  0  0  0  0
 18 45  1  0  0  0  0
 19 20  2  0  0  0  0
 20 22  1  0  0  0  0
 20 24  1  0  0  0  0
 21 23  2  0  0  0  0
 21 49  1  0  0  0  0
 23 50  1  0  0  0  0
 24 25  1  0  0  0  0
 25 26  1  0  0  0  0
 25 27  2  0  0  0  0
 26 28  2  0  0  0  0
 26 52  1  0  0  0  0
 27 53  1  0  0  0  0
 28 29  1  0  0  0  0
 29 30  3  0  0  0  0
 30 31  1  0  0  0  0
 31 54  1  0  0  0  0
 31 55  1  0  0  0  0
 32 33  1  0  0  0  0
 32 56  1  0  0  0  0
 32 57  1  0  0  0  0
 33 58  1  0  0  0  0
 33 59  1  0  0  0  0
 34 60  1  0  0  0  0
 34 61  1  0  0  0  0
 34 62  1  0  0  0  0
M  END
> <PUBCHEM_COMPOUND_CID>
16220223

> <PUBCHEM_CONFORMER_RMSD>
1

> <PUBCHEM_CONFORMER_DIVERSEORDER>
1
131
80
92
121
9
55
91
119
28
66
26
124
64
94
83
50
122
123
88
20
17
82
102
105
25
126
139
129
114
81
96
6
56
79
67
18
42
134
143
133
77
11
84
90
101
110
36
69
8
37
72
132
60
44
89
24
47
21
142
107
99
48
112
146
74
75
138
78
104
34
97
86
148
141
29
62
10
7
65
145
57
149
14
5
33
118
46
4
87
117
109
15
106
125
59
13
30
76
128
23
113
108
58
45
98
70
22
38
135
116
53
49
32
40
103
130
144
51
43
52
136
63
95
19
68
41
150
3
93
140
100
73
39
111
137
2
27
35
127
16
61
12
54
85
147
31
120
71
115

> <PUBCHEM_MMFF94_PARTIAL_CHARGES>
39
1 -0.08
10 0.27
11 0.27
12 0.27
13 0.41
14 -0.14
15 0.09
16 0.05
17 0.27
18 -0.15
19 -0.2
2 -0.57
20 -0.09
21 -0.15
22 0.57
23 -0.15
24 0.29
26 -0.15
27 -0.11
28 0.06
29 -0.02
3 -0.56
30 -0.2
31 0.48
32 0.28
33 0.28
34 0.28
4 -0.56
45 0.15
49 0.15
5 -0.81
50 0.15
51 0.27
52 0.15
53 0.15
6 -0.81
7 0.3
8 -0.71
9 0.27

> <PUBCHEM_EFFECTIVE_ROTOR_COUNT>
8.2

> <PUBCHEM_PHARMACOPHORE_FEATURES>
12
1 2 acceptor
1 3 acceptor
1 4 acceptor
1 5 cation
1 6 cation
1 7 donor
1 8 acceptor
5 1 25 26 27 28 rings
5 15 16 19 20 22 rings
5 7 8 19 20 24 rings
6 14 15 16 18 21 23 rings
6 5 6 9 10 11 12 rings

> <PUBCHEM_HEAVY_ATOM_COUNT>
34

> <PUBCHEM_ATOM_DEF_STEREO_COUNT>
0

> <PUBCHEM_ATOM_UDEF_STEREO_COUNT>
0

> <PUBCHEM_BOND_DEF_STEREO_COUNT>
0

> <PUBCHEM_BOND_UDEF_STEREO_COUNT>
0

> <PUBCHEM_ISOTOPIC_ATOM_COUNT>
0

> <PUBCHEM_COMPONENT_COUNT>
1

> <PUBCHEM_CACTVS_TAUTO_COUNT>
4

> <PUBCHEM_CONFORMER_ID>
00F7803F00000001

> <PUBCHEM_MMFF94_ENERGY>
92.9177

> <PUBCHEM_FEATURE_SELFOVERLAP>
61.236

> <PUBCHEM_SHAPE_FINGERPRINT>
10258705 36 18335986445746637323
10280341 67 12750971988468225499
10429389 143 9511463317029173845
10740516 88 18335427837598801363
11408170 108 18334580183834366931
11456790 92 17346883355956802153
11607047 74 17679312020365194421
13533116 47 18270951372640664704
13782708 43 18337659816444033300
14017579 30 18194407916795523959
14415361 349 17313385664938847099
15604295 49 9727636095143948091
16993089 31 18334009489400244055
17134984 74 17968374547257855402
19301679 30 17916873400368032916
19841028 212 18408884005730879610
2026 5 18261110716969147395
20982279 24 18335435530027478171
21033648 29 12103843458224245577
21267235 1 17988924436523864260
21344244 181 18260546706258472674
21585482 111 9655275061508497170
23522609 53 17986417554529652808
23569943 247 18200864068272988071
23729417 116 12039165833297958177
3383291 50 18270389479049160298
34797466 226 17385722509034234812
3711267 37 10303825310982909023
4258327 124 10954041238040537124
439807 62 18339921524467695100
44575985 287 10953737765053895831
4461854 278 17346307164931087422
45377200 153 17967536817970806635
5104073 3 16844428587481797892
5937810 71 7925370532749421543
6058803 2 16555343972716701221
6201320 82 9655283886891148986

> <PUBCHEM_SHAPE_MULTIPOLES>
666.02
33
5.33
1.5
61.67
8.37
-0.48
50.45
6.12
-2.4
2.19
0.67
-0.58
4.05

> <PUBCHEM_SHAPE_SELFOVERLAP>
1431.165

> <PUBCHEM_SHAPE_VOLUME>
373.1

> <PUBCHEM_COORDINATE_TYPE>
2
5
10

$$$$
