49830792
  -OEChem-10062121553D

 34 36  0     0  0  0  0  0  0999 V2000
    4.5737    0.0098    0.2784 S   0  0  0  0  0  0  0  0  0  0  0  0
   -2.2462   -3.5858    0.0149 F   0  0  0  0  0  0  0  0  0  0  0  0
   -4.2012   -2.6626    0.2463 F   0  0  0  0  0  0  0  0  0  0  0  0
   -3.2441   -2.6956   -1.6996 F   0  0  0  0  0  0  0  0  0  0  0  0
   -2.2589    3.5812   -0.1144 F   0  0  0  0  0  0  0  0  0  0  0  0
   -3.2542    2.6261   -1.7952 F   0  0  0  0  0  0  0  0  0  0  0  0
   -4.2107    2.6602    0.1510 F   0  0  0  0  0  0  0  0  0  0  0  0
    5.3548   -0.0601   -2.5813 O   0  0  0  0  0  0  0  0  0  0  0  0
    2.1651    0.0672    3.4995 N   0  0  0  0  0  0  0  0  0  0  0  0
    3.2524   -0.0630   -3.4972 N   0  0  0  0  0  0  0  0  0  0  0  0
    0.8438    0.0306    1.4724 C   0  0  0  0  0  0  0  0  0  0  0  0
   -0.4503    0.0170    0.8369 C   0  0  0  0  0  0  0  0  0  0  0  0
    2.0239    0.0168    0.7046 C   0  0  0  0  0  0  0  0  0  0  0  0
   -1.0785    1.2182    0.5077 C   0  0  0  0  0  0  0  0  0  0  0  0
   -1.0737   -1.1975    0.5506 C   0  0  0  0  0  0  0  0  0  0  0  0
    3.2483    0.0294    1.3791 C   0  0  0  0  0  0  0  0  0  0  0  0
   -2.3303    1.2047   -0.1075 C   0  0  0  0  0  0  0  0  0  0  0  0
   -2.3255   -1.2109   -0.0646 C   0  0  0  0  0  0  0  0  0  0  0  0
    2.2154   -0.0093   -0.7175 C   0  0  0  0  0  0  0  0  0  0  0  0
   -2.9538   -0.0098   -0.3936 C   0  0  0  0  0  0  0  0  0  0  0  0
    0.9846    0.0554    2.8506 C   0  0  0  0  0  0  0  0  0  0  0  0
    3.5419   -0.0155   -1.0784 C   0  0  0  0  0  0  0  0  0  0  0  0
    3.3047    0.0546    2.7740 C   0  0  0  0  0  0  0  0  0  0  0  0
   -2.9921   -2.5096   -0.3702 C   0  0  0  0  0  0  0  0  0  0  0  0
   -3.0011    2.4892   -0.4600 C   0  0  0  0  0  0  0  0  0  0  0  0
    4.1120   -0.0407   -2.3864 C   0  0  0  0  0  0  0  0  0  0  0  0
   -0.5885    2.1632    0.7321 H   0  0  0  0  0  0  0  0  0  0  0  0
   -0.5803   -2.1320    0.8086 H   0  0  0  0  0  0  0  0  0  0  0  0
    1.3993   -0.0229   -1.4294 H   0  0  0  0  0  0  0  0  0  0  0  0
   -3.9296   -0.0202   -0.8734 H   0  0  0  0  0  0  0  0  0  0  0  0
    0.1162    0.0667    3.5039 H   0  0  0  0  0  0  0  0  0  0  0  0
    4.2350    0.0649    3.3285 H   0  0  0  0  0  0  0  0  0  0  0  0
    2.2414   -0.0558   -3.4171 H   0  0  0  0  0  0  0  0  0  0  0  0
    3.6308   -0.0873   -4.4384 H   0  0  0  0  0  0  0  0  0  0  0  0
  1 16  1  0  0  0  0
  1 22  1  0  0  0  0
  2 24  1  0  0  0  0
  3 24  1  0  0  0  0
  4 24  1  0  0  0  0
  5 25  1  0  0  0  0
  6 25  1  0  0  0  0
  7 25  1  0  0  0  0
  8 26  2  0  0  0  0
  9 21  1  0  0  0  0
  9 23  2  0  0  0  0
 10 26  1  0  0  0  0
 10 33  1  0  0  0  0
 10 34  1  0  0  0  0
 11 12  1  0  0  0  0
 11 13  1  0  0  0  0
 11 21  2  0  0  0  0
 12 14  2  0  0  0  0
 12 15  1  0  0  0  0
 13 16  2  0  0  0  0
 13 19  1  0  0  0  0
 14 17  1  0  0  0  0
 14 27  1  0  0  0  0
 15 18  2  0  0  0  0
 15 28  1  0  0  0  0
 16 23  1  0  0  0  0
 17 20  2  0  0  0  0
 17 25  1  0  0  0  0
 18 20  1  0  0  0  0
 18 24  1  0  0  0  0
 19 22  2  0  0  0  0
 19 29  1  0  0  0  0
 20 30  1  0  0  0  0
 21 31  1  0  0  0  0
 22 26  1  0  0  0  0
 23 32  1  0  0  0  0
M  END
> <PUBCHEM_COMPOUND_CID>
49830792

> <PUBCHEM_CONFORMER_RMSD>
0.8

> <PUBCHEM_CONFORMER_DIVERSEORDER>
1
2
3
4
5

> <PUBCHEM_MMFF94_PARTIAL_CHARGES>
31
1 -0.08
10 -0.8
14 -0.15
15 -0.15
16 0.04
17 -0.14
18 -0.14
19 -0.15
2 -0.34
20 -0.15
21 0.16
22 -0.05
23 0.16
24 1.16
25 1.16
26 0.71
27 0.15
28 0.15
29 0.15
3 -0.34
30 0.15
31 0.15
32 0.15
33 0.37
34 0.37
4 -0.34
5 -0.34
6 -0.34
7 -0.34
8 -0.57
9 -0.62

> <PUBCHEM_EFFECTIVE_ROTOR_COUNT>
4

> <PUBCHEM_PHARMACOPHORE_FEATURES>
6
1 10 donor
1 8 acceptor
1 9 acceptor
5 1 13 16 19 22 rings
6 12 14 15 17 18 20 rings
6 9 11 13 16 21 23 rings

> <PUBCHEM_HEAVY_ATOM_COUNT>
26

> <PUBCHEM_ATOM_DEF_STEREO_COUNT>
0

> <PUBCHEM_ATOM_UDEF_STEREO_COUNT>
0

> <PUBCHEM_BOND_DEF_STEREO_COUNT>
0

> <PUBCHEM_BOND_UDEF_STEREO_COUNT>
0

> <PUBCHEM_ISOTOPIC_ATOM_COUNT>
0

> <PUBCHEM_COMPONENT_COUNT>
1

> <PUBCHEM_CACTVS_TAUTO_COUNT>
2

> <PUBCHEM_CONFORMER_ID>
02F85B8800000001

> <PUBCHEM_MMFF94_ENERGY>
56.5445

> <PUBCHEM_FEATURE_SELFOVERLAP>
30.512

> <PUBCHEM_SHAPE_FINGERPRINT>
10165383 225 17984729752176191449
10764073 3 15981773647893730859
10794284 68 17609258750841922697
11049842 53 18192141603933372162
11578080 2 17846222197507957280
11640471 11 17676488281178041552
11796584 16 18271521976036176338
12160290 23 18338499886355980177
12236239 1 17604136060820159456
12293681 25 17203605944011864234
12553582 1 18191855937300630763
12623949 98 16770143494692575431
12714826 92 18130801082563775566
12788726 201 18041283257262768483
13009979 54 17678150772876498498
13583140 156 17772723105482499674
14022347 108 18120649386647760635
15475509 8 18271250525634246119
15842332 3 17603856789225059634
16752209 62 18263342798708958363
17980427 23 17677034807877941968
1813 80 18124310769116269131
18915476 22 16486394607802545040
20645477 70 16486960800609157800
20693207 138 17775012327119309766
21033650 10 18336841822657971776
21285901 2 17700674414806378671
21756936 100 17241633704846941116
21864079 5 16588590803442684004
22122407 14 16154832306792082357
22182313 1 17703500077863474194
22393880 68 18341063938929882238
22620623 9 18342744030818793383
23557571 272 18202273736394601993
23559900 14 18201427031648894514
23598291 2 17531239539668947770
238 59 16414892194196078572
25147074 1 17603578612888662296
312423 11 17603579725100790170
312425 83 18190486916637957550
340366 18 17899695661508975470
38570 142 16807887272716678212
46194498 28 17988081235384825456
474 4 16370731409368195328
484985 159 16985786076094588174
57527295 17 17058370267244827941
58260988 647 16343423917332482045
59025328 239 14547587125736468752
6049 1 17703505588121853400
621550 5 17844546589063119051
7615 1 17604131680037997856
81228 2 18268409387360836435
9658208 31 18130219347151252689

> <PUBCHEM_SHAPE_MULTIPOLES>
479.44
9.2
3.02
2.87
3.23
0.08
-0.05
-4.83
-0.12
5.28
0.04
-6.98
-0.91
0.27

> <PUBCHEM_SHAPE_SELFOVERLAP>
1055.155

> <PUBCHEM_SHAPE_VOLUME>
263.2

> <PUBCHEM_COORDINATE_TYPE>
2
5
10

$$$$
