136027090
  -OEChem-10062121533D

 44 46  0     0  0  0  0  0  0999 V2000
   -1.0884   -3.5263   -0.4324 O   0  0  0  0  0  0  0  0  0  0  0  0
   -0.9282    0.6526    1.6976 O   0  0  0  0  0  0  0  0  0  0  0  0
   -2.9861    3.4384    0.0307 O   0  0  0  0  0  0  0  0  0  0  0  0
    4.5397   -1.9455    0.1161 O   0  0  0  0  0  0  0  0  0  0  0  0
    7.2928    1.9332    0.3941 O   0  0  0  0  0  0  0  0  0  0  0  0
   -3.4707   -0.0265    0.0741 N   0  0  0  0  0  0  0  0  0  0  0  0
   -4.0624   -2.0940    0.0166 N   0  0  0  0  0  0  0  0  0  0  0  0
   -4.5006   -0.8536   -0.1685 N   0  0  0  0  0  0  0  0  0  0  0  0
    0.0291   -0.5245   -0.0517 N   0  0  0  0  0  0  0  0  0  0  0  0
    1.2552   -0.0128    0.1984 N   0  0  0  0  0  0  0  0  0  0  0  0
   -2.5277    2.1338    0.2241 N   0  0  0  0  0  0  0  0  0  0  0  0
   -4.3313    3.4510   -0.3433 N   0  0  0  0  0  0  0  0  0  0  0  0
   -5.8995    1.6649   -0.6856 N   0  0  0  0  0  0  0  0  0  0  0  0
   -2.3474   -0.7123    0.4203 C   0  0  0  0  0  0  0  0  0  0  0  0
   -2.7455   -2.0248    0.3776 C   0  0  0  0  0  0  0  0  0  0  0  0
   -1.9724   -3.2441    0.6549 C   0  0  0  0  0  0  0  0  0  0  0  0
   -1.0213   -0.1328    0.7576 C   0  0  0  0  0  0  0  0  0  0  0  0
   -3.5882    1.3693   -0.0306 C   0  0  0  0  0  0  0  0  0  0  0  0
    3.5813    0.2122   -0.3082 C   0  0  0  0  0  0  0  0  0  0  0  0
    2.2706   -0.3709   -0.5587 C   0  0  0  0  0  0  0  0  0  0  0  0
   -4.6785    2.1656   -0.3735 C   0  0  0  0  0  0  0  0  0  0  0  0
    4.6723   -0.5926    0.0205 C   0  0  0  0  0  0  0  0  0  0  0  0
    3.7377    1.5953   -0.4010 C   0  0  0  0  0  0  0  0  0  0  0  0
    2.1205   -1.3838   -1.6982 C   0  0  0  0  0  0  0  0  0  0  0  0
    5.9194   -0.0142    0.2565 C   0  0  0  0  0  0  0  0  0  0  0  0
    4.9849    2.1737   -0.1647 C   0  0  0  0  0  0  0  0  0  0  0  0
    6.0758    1.3688    0.1641 C   0  0  0  0  0  0  0  0  0  0  0  0
   -0.3310   -4.7000   -0.1871 C   0  0  0  0  0  0  0  0  0  0  0  0
   -1.3899   -3.1163    1.5752 H   0  0  0  0  0  0  0  0  0  0  0  0
   -2.6513   -4.0934    0.7970 H   0  0  0  0  0  0  0  0  0  0  0  0
   -0.0902   -1.1743   -0.8199 H   0  0  0  0  0  0  0  0  0  0  0  0
    2.8977    2.2352   -0.6595 H   0  0  0  0  0  0  0  0  0  0  0  0
    1.8119   -2.3507   -1.2914 H   0  0  0  0  0  0  0  0  0  0  0  0
    1.3758   -1.0246   -2.4142 H   0  0  0  0  0  0  0  0  0  0  0  0
    3.0649   -1.5128   -2.2344 H   0  0  0  0  0  0  0  0  0  0  0  0
    6.7708   -0.6403    0.5128 H   0  0  0  0  0  0  0  0  0  0  0  0
    5.1007    3.2515   -0.2390 H   0  0  0  0  0  0  0  0  0  0  0  0
    0.3252   -4.8718   -1.0446 H   0  0  0  0  0  0  0  0  0  0  0  0
   -0.9890   -5.5670   -0.0731 H   0  0  0  0  0  0  0  0  0  0  0  0
    0.2897   -4.5774    0.7058 H   0  0  0  0  0  0  0  0  0  0  0  0
   -6.1063    0.6708   -0.6918 H   0  0  0  0  0  0  0  0  0  0  0  0
   -6.6784    2.2675   -0.9322 H   0  0  0  0  0  0  0  0  0  0  0  0
    5.3998   -2.3340    0.3507 H   0  0  0  0  0  0  0  0  0  0  0  0
    7.9310    1.2310    0.6079 H   0  0  0  0  0  0  0  0  0  0  0  0
  1 16  1  0  0  0  0
  1 28  1  0  0  0  0
  2 17  2  0  0  0  0
  3 11  1  0  0  0  0
  3 12  1  0  0  0  0
  4 22  1  0  0  0  0
  4 43  1  0  0  0  0
  5 27  1  0  0  0  0
  5 44  1  0  0  0  0
  6  8  1  0  0  0  0
  6 14  1  0  0  0  0
  6 18  1  0  0  0  0
  7  8  2  0  0  0  0
  7 15  1  0  0  0  0
  9 10  1  0  0  0  0
  9 17  1  0  0  0  0
  9 31  1  0  0  0  0
 10 20  2  3  0  0  0
 11 18  2  0  0  0  0
 12 21  2  0  0  0  0
 13 21  1  0  0  0  0
 13 41  1  0  0  0  0
 13 42  1  0  0  0  0
 14 15  2  0  0  0  0
 14 17  1  0  0  0  0
 15 16  1  0  0  0  0
 16 29  1  0  0  0  0
 16 30  1  0  0  0  0
 18 21  1  0  0  0  0
 19 20  1  0  0  0  0
 19 22  2  0  0  0  0
 19 23  1  0  0  0  0
 20 24  1  0  0  0  0
 22 25  1  0  0  0  0
 23 26  2  0  0  0  0
 23 32  1  0  0  0  0
 24 33  1  0  0  0  0
 24 34  1  0  0  0  0
 24 35  1  0  0  0  0
 25 27  2  0  0  0  0
 25 36  1  0  0  0  0
 26 27  1  0  0  0  0
 26 37  1  0  0  0  0
 28 38  1  0  0  0  0
 28 39  1  0  0  0  0
 28 40  1  0  0  0  0
M  END
> <PUBCHEM_COMPOUND_CID>
136027090

> <PUBCHEM_CONFORMER_RMSD>
0.8

> <PUBCHEM_CONFORMER_DIVERSEORDER>
3
67
121
27
83
99
56
131
133
95
53
132
51
109
111
120
112
134
73
85
137
97
130
139
100
119
48
127
138
9
126
80
28
135
46
41
114
50
74
116
55
107
136
61
26
42
25
64
66
8
129
31
123
52
10
70
89
35
118
101
88
16
17
108
94
105
63
29
96
110
68
62
106
103
44
18
92
77
93
81
47
59
20
98
58
122
84
72
128
69
34
65
22
30
11
90
71
19
60
33
104
43
49
57
38
125
39
78
6
36
115
12
7
79
21
75
40
13
91
54
102
117
23
24
45
32
15
82
14
5
113
86
124
37
87
76
4
1
2

> <PUBCHEM_MMFF94_PARTIAL_CHARGES>
36
1 -0.56
10 -0.51
11 -0.41
12 -0.41
13 -0.88
14 -0.24
15 0.05
16 0.46
17 0.71
18 0.21
19 0.09
2 -0.57
20 0.3
21 0.37
22 0.08
23 -0.15
24 0.06
25 -0.15
26 -0.15
27 0.08
28 0.28
3 0.24
31 0.37
32 0.15
36 0.15
37 0.15
4 -0.53
41 0.4
42 0.4
43 0.45
44 0.45
5 -0.53
6 0.65
7 -0.23
8 -0.42
9 -0.37

> <PUBCHEM_EFFECTIVE_ROTOR_COUNT>
7

> <PUBCHEM_PHARMACOPHORE_FEATURES>
12
1 1 acceptor
1 10 acceptor
1 13 donor
1 2 acceptor
1 4 donor
1 5 donor
1 9 donor
3 12 13 21 cation
3 6 11 18 cation
5 3 11 12 18 21 rings
5 6 7 8 14 15 rings
6 19 22 23 25 26 27 rings

> <PUBCHEM_HEAVY_ATOM_COUNT>
28

> <PUBCHEM_ATOM_DEF_STEREO_COUNT>
0

> <PUBCHEM_ATOM_UDEF_STEREO_COUNT>
0

> <PUBCHEM_BOND_DEF_STEREO_COUNT>
0

> <PUBCHEM_BOND_UDEF_STEREO_COUNT>
1

> <PUBCHEM_ISOTOPIC_ATOM_COUNT>
0

> <PUBCHEM_COMPONENT_COUNT>
1

> <PUBCHEM_CACTVS_TAUTO_COUNT>
-1

> <PUBCHEM_CONFORMER_ID>
081B9BD200000003

> <PUBCHEM_MMFF94_ENERGY>
72.4158

> <PUBCHEM_FEATURE_SELFOVERLAP>
60.966

> <PUBCHEM_SHAPE_FINGERPRINT>
10411042 1 17832989725998624739
10595046 47 18334857277094407584
10675989 125 17907581324321957865
11370993 70 18339364071755901583
12107183 9 18117831110986505570
13073987 5 18260548922350898570
13583140 156 18130786823868036136
13911987 19 17060339643015479108
14713325 29 18334863810109417595
15463212 79 18260543420571625971
17844677 252 18336554905899771844
20511986 3 17967799562267792520
20715895 44 18266458693996964808
21033648 144 18057605580396828280
21033648 29 18271515477296723888
21859007 373 17460867402171955532
23559900 14 18057047913248198646
23569943 247 16227145043593630290
25019877 29 18342745113683543151
283562 15 18411420622971357963
4073 2 18041284348511385970
4214541 1 18408605868244327232
5104073 3 18186522077365234192
5283173 99 18410855451733750584
6327066 14 18189327992717617045
9981440 41 18335145258989276875

> <PUBCHEM_SHAPE_MULTIPOLES>
507.03
14.85
4.51
0.89
15.84
2.81
0.05
-10.94
0.19
-5.01
0.34
0.08
0.14
0.93

> <PUBCHEM_SHAPE_SELFOVERLAP>
1089.672

> <PUBCHEM_SHAPE_VOLUME>
279.6

> <PUBCHEM_COORDINATE_TYPE>
2
5
10

$$$$
