23996921
  -OEChem-10062121553D

 48 51  0     1  0  0  0  0  0999 V2000
    1.5231   -0.7063   -1.8220 O   0  0  0  0  0  0  0  0  0  0  0  0
    1.8924    1.2192   -0.5263 N   0  0  0  0  0  0  0  0  0  0  0  0
    5.9590    0.9173    0.5238 N   0  0  0  0  0  0  0  0  0  0  0  0
   -1.3771   -0.1020   -0.9565 C   0  0  0  0  0  0  0  0  0  0  0  0
   -0.2500    0.7471   -1.4670 C   0  0  2  0  0  0  0  0  0  0  0  0
   -1.1135   -0.0122   -2.4310 C   0  0  0  0  0  0  0  0  0  0  0  0
   -1.0721   -1.3938   -0.2794 C   0  0  0  0  0  0  0  0  0  0  0  0
   -2.5804    0.6000   -0.4257 C   0  0  0  0  0  0  0  0  0  0  0  0
    1.1546    0.3343   -1.2948 C   0  0  0  0  0  0  0  0  0  0  0  0
   -0.2366   -1.4159    0.8375 C   0  0  0  0  0  0  0  0  0  0  0  0
   -2.4508    1.5115    0.6224 C   0  0  0  0  0  0  0  0  0  0  0  0
   -1.6224   -2.5810   -0.7625 C   0  0  0  0  0  0  0  0  0  0  0  0
   -3.8360    0.3454   -0.9773 C   0  0  0  0  0  0  0  0  0  0  0  0
    0.0487   -2.6256    1.4711 C   0  0  0  0  0  0  0  0  0  0  0  0
   -3.5770    2.1679    1.1190 C   0  0  0  0  0  0  0  0  0  0  0  0
   -1.3371   -3.7904   -0.1290 C   0  0  0  0  0  0  0  0  0  0  0  0
   -4.9620    1.0018   -0.4809 C   0  0  0  0  0  0  0  0  0  0  0  0
   -0.5015   -3.8127    0.9878 C   0  0  0  0  0  0  0  0  0  0  0  0
   -4.8326    1.9131    0.5672 C   0  0  0  0  0  0  0  0  0  0  0  0
    3.2595    1.1178   -0.1737 C   0  0  0  0  0  0  0  0  0  0  0  0
    0.9423   -2.6499    2.6648 C   0  0  0  0  0  0  0  0  0  0  0  0
   -3.4392    3.1419    2.2398 C   0  0  0  0  0  0  0  0  0  0  0  0
    3.8524    2.1003    0.6117 C   0  0  0  0  0  0  0  0  0  0  0  0
    4.0147    0.0353   -0.6108 C   0  0  0  0  0  0  0  0  0  0  0  0
    5.1931    1.9547    0.9298 C   0  0  0  0  0  0  0  0  0  0  0  0
    5.3482   -0.0179   -0.2379 C   0  0  0  0  0  0  0  0  0  0  0  0
   -0.4011    1.8254   -1.4787 H   0  0  0  0  0  0  0  0  0  0  0  0
   -1.7752    0.5737   -3.0615 H   0  0  0  0  0  0  0  0  0  0  0  0
   -0.7028   -0.8676   -2.9559 H   0  0  0  0  0  0  0  0  0  0  0  0
    0.1820   -0.4938    1.2330 H   0  0  0  0  0  0  0  0  0  0  0  0
   -1.4738    1.7098    1.0574 H   0  0  0  0  0  0  0  0  0  0  0  0
   -2.2779   -2.5812   -1.6294 H   0  0  0  0  0  0  0  0  0  0  0  0
   -3.9552   -0.3642   -1.7918 H   0  0  0  0  0  0  0  0  0  0  0  0
    1.4127    2.0393   -0.1613 H   0  0  0  0  0  0  0  0  0  0  0  0
   -1.7658   -4.7147   -0.5050 H   0  0  0  0  0  0  0  0  0  0  0  0
   -5.9398    0.8024   -0.9094 H   0  0  0  0  0  0  0  0  0  0  0  0
   -0.2860   -4.7621    1.4707 H   0  0  0  0  0  0  0  0  0  0  0  0
   -5.7180    2.4164    0.9465 H   0  0  0  0  0  0  0  0  0  0  0  0
    1.9903   -2.6479    2.3490 H   0  0  0  0  0  0  0  0  0  0  0  0
    0.7637   -1.7781    3.3034 H   0  0  0  0  0  0  0  0  0  0  0  0
    0.7661   -3.5393    3.2791 H   0  0  0  0  0  0  0  0  0  0  0  0
   -3.5064    2.6212    3.2002 H   0  0  0  0  0  0  0  0  0  0  0  0
   -2.4786    3.6659    2.1900 H   0  0  0  0  0  0  0  0  0  0  0  0
   -4.2229    3.9061    2.2002 H   0  0  0  0  0  0  0  0  0  0  0  0
    3.2934    2.9581    0.9704 H   0  0  0  0  0  0  0  0  0  0  0  0
    3.6435   -0.7741   -1.2210 H   0  0  0  0  0  0  0  0  0  0  0  0
    5.7025    2.6934    1.5399 H   0  0  0  0  0  0  0  0  0  0  0  0
    5.9812   -0.8414   -0.5521 H   0  0  0  0  0  0  0  0  0  0  0  0
  1  9  2  0  0  0  0
  2  9  1  0  0  0  0
  2 20  1  0  0  0  0
  2 34  1  0  0  0  0
  3 25  2  0  0  0  0
  3 26  1  0  0  0  0
  4  5  1  0  0  0  0
  4  6  1  0  0  0  0
  4  7  1  0  0  0  0
  4  8  1  0  0  0  0
  5  6  1  0  0  0  0
  5  9  1  0  0  0  0
  5 27  1  0  0  0  0
  6 28  1  0  0  0  0
  6 29  1  0  0  0  0
  7 10  1  0  0  0  0
  7 12  2  0  0  0  0
  8 11  1  0  0  0  0
  8 13  2  0  0  0  0
 10 14  2  0  0  0  0
 10 30  1  0  0  0  0
 11 15  2  0  0  0  0
 11 31  1  0  0  0  0
 12 16  1  0  0  0  0
 12 32  1  0  0  0  0
 13 17  1  0  0  0  0
 13 33  1  0  0  0  0
 14 18  1  0  0  0  0
 14 21  1  0  0  0  0
 15 19  1  0  0  0  0
 15 22  1  0  0  0  0
 16 18  2  0  0  0  0
 16 35  1  0  0  0  0
 17 19  2  0  0  0  0
 17 36  1  0  0  0  0
 18 37  1  0  0  0  0
 19 38  1  0  0  0  0
 20 23  2  0  0  0  0
 20 24  1  0  0  0  0
 21 39  1  0  0  0  0
 21 40  1  0  0  0  0
 21 41  1  0  0  0  0
 22 42  1  0  0  0  0
 22 43  1  0  0  0  0
 22 44  1  0  0  0  0
 23 25  1  0  0  0  0
 23 45  1  0  0  0  0
 24 26  2  0  0  0  0
 24 46  1  0  0  0  0
 25 47  1  0  0  0  0
 26 48  1  0  0  0  0
M  END
> <PUBCHEM_COMPOUND_CID>
23996921

> <PUBCHEM_CONFORMER_RMSD>
0.8

> <PUBCHEM_CONFORMER_DIVERSEORDER>
1
59
33
60
48
18
19
55
51
9
58
35
53
23
34
17
54
44
36
40
49
22
52
25
5
37
3
7
21
27
32
57
28
47
39
20
15
26
8
56
38
24
31
46
30
41
4
29
45
16
2
6
42
12
43
14
50
11
13
10

> <PUBCHEM_MMFF94_PARTIAL_CHARGES>
42
1 -0.57
10 -0.15
11 -0.15
12 -0.15
13 -0.15
14 -0.14
15 -0.14
16 -0.15
17 -0.15
18 -0.15
19 -0.15
2 -0.55
20 0.12
21 0.14
22 0.14
23 -0.15
24 -0.15
25 0.16
26 0.16
27 0.1
28 0.1
29 0.1
3 -0.62
30 0.15
31 0.15
32 0.15
33 0.15
34 0.37
35 0.15
36 0.15
37 0.15
38 0.15
4 0.06
45 0.15
46 0.15
47 0.15
48 0.15
5 -0.1
6 -0.2
7 -0.03
8 -0.03
9 0.63

> <PUBCHEM_EFFECTIVE_ROTOR_COUNT>
5.6

> <PUBCHEM_PHARMACOPHORE_FEATURES>
6
1 1 acceptor
1 2 donor
1 3 acceptor
6 3 20 23 24 25 26 rings
6 7 10 12 14 16 18 rings
6 8 11 13 15 17 19 rings

> <PUBCHEM_HEAVY_ATOM_COUNT>
26

> <PUBCHEM_ATOM_DEF_STEREO_COUNT>
0

> <PUBCHEM_ATOM_UDEF_STEREO_COUNT>
1

> <PUBCHEM_BOND_DEF_STEREO_COUNT>
0

> <PUBCHEM_BOND_UDEF_STEREO_COUNT>
0

> <PUBCHEM_ISOTOPIC_ATOM_COUNT>
0

> <PUBCHEM_COMPONENT_COUNT>
1

> <PUBCHEM_CACTVS_TAUTO_COUNT>
3

> <PUBCHEM_CONFORMER_ID>
016E29F900000001

> <PUBCHEM_MMFF94_ENERGY>
75.7643

> <PUBCHEM_FEATURE_SELFOVERLAP>
30.446

> <PUBCHEM_SHAPE_FINGERPRINT>
11036077 3 18261676986979189422
11115154 58 17693074672446693783
11552529 35 18049717714207321590
12160290 23 17972625413207349671
12422481 6 17313376769533828410
12633257 1 18114170978522096084
12788726 201 17829629596482311495
13135754 10 17169855463702823258
13583140 156 17560238175725788168
14251757 17 15410600463523344144
14468879 13 17775285014571651884
15420108 30 18263354820538541623
15537594 2 17167853163588125202
16067690 210 17771875420625042880
20197701 30 18335420162518019235
20642791 268 17693648217682467811
21033648 29 18189595229377010380
21304303 64 15482677904932207603
21403212 168 18263353716125304429
22956985 138 16735228189330213451
23558518 356 17899980735509654628
23559900 14 18338813273045267494
244849 19 17914365469931796270
2838139 119 17489584532950540648
3493558 16 15621458013418582934
35225 105 17830215545853266761
392239 28 18269288992389247593
4073 2 18339077216266363224
4258327 124 17751369597069856252
4340502 62 18408890620592152349
46194498 28 11382393324891885425
484985 159 15864903390985162274
58807428 26 18040431083868690842
59755656 520 18408880737471523270
9981440 41 17775287183382501982

> <PUBCHEM_SHAPE_MULTIPOLES>
519.24
10.1
4.08
2
10.08
3.81
-0.37
-10.42
-1.77
-2.05
-2.73
-0.62
0.25
-1.19

> <PUBCHEM_SHAPE_SELFOVERLAP>
1139.209

> <PUBCHEM_SHAPE_VOLUME>
280.3

> <PUBCHEM_COORDINATE_TYPE>
2
5
10

$$$$
