44328574
  -OEChem-10062122053D

 66 68  0     1  0  0  0  0  0999 V2000
   -4.1092   -0.7363   -1.7702 O   0  0  0  0  0  0  0  0  0  0  0  0
    1.1982    4.9367   -0.6139 O   0  0  0  0  0  0  0  0  0  0  0  0
    4.3367    1.6343   -0.1415 O   0  0  0  0  0  0  0  0  0  0  0  0
   -0.2128    2.8051    0.6706 N   0  0  0  0  0  0  0  0  0  0  0  0
   -4.5642   -0.1161    0.4173 N   0  0  0  0  0  0  0  0  0  0  0  0
    2.5976   -0.5919    0.6132 N   0  0  0  0  0  0  0  0  0  0  0  0
    3.0375    3.5138   -0.5665 N   0  0  0  0  0  0  0  0  0  0  0  0
   -4.4634   -3.1687    0.1878 N   0  0  0  0  0  0  0  0  0  0  0  0
    0.9368   -1.2857   -2.3132 N   0  0  0  0  0  0  0  0  0  0  0  0
    2.9286   -0.7190   -3.3541 N   0  0  0  0  0  0  0  0  0  0  0  0
    2.1294   -2.8213   -3.7239 N   0  0  0  0  0  0  0  0  0  0  0  0
   -3.1353    2.5033    0.2195 C   0  0  0  0  0  0  0  0  0  0  0  0
   -2.4719    3.7121    0.8883 C   0  0  0  0  0  0  0  0  0  0  0  0
   -4.5836    2.3364    0.6907 C   0  0  0  0  0  0  0  0  0  0  0  0
   -1.0473    3.9496    0.3947 C   0  0  0  0  0  0  0  0  0  0  0  0
   -5.2574    1.1070    0.0902 C   0  0  0  0  0  0  0  0  0  0  0  0
   -3.3828   -2.1949    0.0223 C   0  0  1  0  0  0  0  0  0  0  0  0
   -2.2901   -2.7677   -0.8924 C   0  0  0  0  0  0  0  0  0  0  0  0
    1.0973    2.7343    0.3389 C   0  0  0  0  0  0  0  0  0  0  0  0
    2.0161    1.7652    0.4806 C   0  0  0  0  0  0  0  0  0  0  0  0
    1.8282    0.4414    1.0764 C   0  0  0  0  0  0  0  0  0  0  0  0
   -4.0396   -0.9484   -0.5609 C   0  0  0  0  0  0  0  0  0  0  0  0
   -1.1712   -1.7507   -1.1580 C   0  0  0  0  0  0  0  0  0  0  0  0
    2.2870   -1.7533    1.2840 C   0  0  0  0  0  0  0  0  0  0  0  0
    1.2845   -1.4405    2.2046 C   0  0  0  0  0  0  0  0  0  0  0  0
    1.0051   -0.0525    2.0622 C   0  0  0  0  0  0  0  0  0  0  0  0
    1.7455    3.8833   -0.3351 C   0  0  0  0  0  0  0  0  0  0  0  0
    3.2877    2.2546   -0.1061 C   0  0  0  0  0  0  0  0  0  0  0  0
   -0.0901   -2.3028   -2.0815 C   0  0  0  0  0  0  0  0  0  0  0  0
    2.8115   -3.0435    1.1478 C   0  0  0  0  0  0  0  0  0  0  0  0
    0.7792   -2.4639    3.0309 C   0  0  0  0  0  0  0  0  0  0  0  0
    2.2946   -4.0424    1.9777 C   0  0  0  0  0  0  0  0  0  0  0  0
    1.2940   -3.7593    2.9055 C   0  0  0  0  0  0  0  0  0  0  0  0
    1.9235   -1.6182   -3.0861 C   0  0  0  0  0  0  0  0  0  0  0  0
   -2.5696    1.5942    0.4472 H   0  0  0  0  0  0  0  0  0  0  0  0
   -3.1197    2.6289   -0.8700 H   0  0  0  0  0  0  0  0  0  0  0  0
   -2.4629    3.5633    1.9755 H   0  0  0  0  0  0  0  0  0  0  0  0
   -3.0678    4.6118    0.6928 H   0  0  0  0  0  0  0  0  0  0  0  0
   -5.1645    3.2283    0.4280 H   0  0  0  0  0  0  0  0  0  0  0  0
   -4.5974    2.2542    1.7848 H   0  0  0  0  0  0  0  0  0  0  0  0
   -0.6660    4.8373    0.9127 H   0  0  0  0  0  0  0  0  0  0  0  0
   -1.0897    4.1487   -0.6827 H   0  0  0  0  0  0  0  0  0  0  0  0
   -5.3443    1.2196   -0.9957 H   0  0  0  0  0  0  0  0  0  0  0  0
   -6.2712    1.0131    0.4936 H   0  0  0  0  0  0  0  0  0  0  0  0
   -2.9473   -1.9605    1.0010 H   0  0  0  0  0  0  0  0  0  0  0  0
   -1.8603   -3.6673   -0.4337 H   0  0  0  0  0  0  0  0  0  0  0  0
   -2.7237   -3.0757   -1.8530 H   0  0  0  0  0  0  0  0  0  0  0  0
   -0.6074    2.0114    1.1616 H   0  0  0  0  0  0  0  0  0  0  0  0
   -4.5053   -0.3874    1.3943 H   0  0  0  0  0  0  0  0  0  0  0  0
   -0.7195   -1.4529   -0.2050 H   0  0  0  0  0  0  0  0  0  0  0  0
   -1.5716   -0.8342   -1.6051 H   0  0  0  0  0  0  0  0  0  0  0  0
    3.2919   -0.5252   -0.1189 H   0  0  0  0  0  0  0  0  0  0  0  0
    0.2817    0.5150    2.6319 H   0  0  0  0  0  0  0  0  0  0  0  0
    3.7271    4.1033   -1.0186 H   0  0  0  0  0  0  0  0  0  0  0  0
   -0.5505   -2.5982   -3.0322 H   0  0  0  0  0  0  0  0  0  0  0  0
    0.3548   -3.1913   -1.6166 H   0  0  0  0  0  0  0  0  0  0  0  0
   -5.1301   -2.8251    0.8785 H   0  0  0  0  0  0  0  0  0  0  0  0
   -4.0854   -4.0361    0.5672 H   0  0  0  0  0  0  0  0  0  0  0  0
    3.5894   -3.2648    0.4248 H   0  0  0  0  0  0  0  0  0  0  0  0
   -0.0013   -2.2572    3.7576 H   0  0  0  0  0  0  0  0  0  0  0  0
    2.6797   -5.0558    1.8968 H   0  0  0  0  0  0  0  0  0  0  0  0
    0.9075   -4.5528    3.5396 H   0  0  0  0  0  0  0  0  0  0  0  0
    2.9187    0.2120   -2.9515 H   0  0  0  0  0  0  0  0  0  0  0  0
    3.7095   -0.9593   -3.9546 H   0  0  0  0  0  0  0  0  0  0  0  0
    1.4843   -3.5983   -3.6350 H   0  0  0  0  0  0  0  0  0  0  0  0
    2.9447   -2.9697   -4.3088 H   0  0  0  0  0  0  0  0  0  0  0  0
  1 22  2  0  0  0  0
  2 27  2  0  0  0  0
  3 28  2  0  0  0  0
  4 15  1  0  0  0  0
  4 19  1  0  0  0  0
  4 48  1  0  0  0  0
  5 16  1  0  0  0  0
  5 22  1  0  0  0  0
  5 49  1  0  0  0  0
  6 21  1  0  0  0  0
  6 24  1  0  0  0  0
  6 52  1  0  0  0  0
  7 27  1  0  0  0  0
  7 28  1  0  0  0  0
  7 54  1  0  0  0  0
  8 17  1  0  0  0  0
  8 57  1  0  0  0  0
  8 58  1  0  0  0  0
  9 29  1  0  0  0  0
  9 34  2  0  0  0  0
 10 34  1  0  0  0  0
 10 63  1  0  0  0  0
 10 64  1  0  0  0  0
 11 34  1  0  0  0  0
 11 65  1  0  0  0  0
 11 66  1  0  0  0  0
 12 13  1  0  0  0  0
 12 14  1  0  0  0  0
 12 35  1  0  0  0  0
 12 36  1  0  0  0  0
 13 15  1  0  0  0  0
 13 37  1  0  0  0  0
 13 38  1  0  0  0  0
 14 16  1  0  0  0  0
 14 39  1  0  0  0  0
 14 40  1  0  0  0  0
 15 41  1  0  0  0  0
 15 42  1  0  0  0  0
 16 43  1  0  0  0  0
 16 44  1  0  0  0  0
 17 18  1  0  0  0  0
 17 22  1  0  0  0  0
 17 45  1  0  0  0  0
 18 23  1  0  0  0  0
 18 46  1  0  0  0  0
 18 47  1  0  0  0  0
 19 20  2  0  0  0  0
 19 27  1  0  0  0  0
 20 21  1  0  0  0  0
 20 28  1  0  0  0  0
 21 26  2  0  0  0  0
 23 29  1  0  0  0  0
 23 50  1  0  0  0  0
 23 51  1  0  0  0  0
 24 25  1  0  0  0  0
 24 30  2  0  0  0  0
 25 26  1  0  0  0  0
 25 31  2  0  0  0  0
 26 53  1  0  0  0  0
 29 55  1  0  0  0  0
 29 56  1  0  0  0  0
 30 32  1  0  0  0  0
 30 59  1  0  0  0  0
 31 33  1  0  0  0  0
 31 60  1  0  0  0  0
 32 33  2  0  0  0  0
 32 61  1  0  0  0  0
 33 62  1  0  0  0  0
M  END
> <PUBCHEM_COMPOUND_CID>
44328574

> <PUBCHEM_CONFORMER_RMSD>
1.6

> <PUBCHEM_CONFORMER_DIVERSEORDER>
1
5
76
23
51
34
18
122
78
63
71
128
113
89
105
74
49
127
31
8
53
86
40
87
65
134
124
54
36
130
102
52
84
35
4
17
50
97
132
24
100
98
112
3
29
28
103
83
131
110
119
70
45
44
9
123
81
25
96
117
118
33
12
14
2
58
116
67
125
47
90
95
7
88
15
82
73
111
43
62
55
38
107
57
59
101
109
106
92
11
32
104
69
115
85
60
13
26
93
80
126
121
68
22
48
133
56
16
46
79
42
114
66
39
19
72
27
61
94
41
30
6
108
91
129
64
10
37
21
77
120
20
99
75

> <PUBCHEM_MMFF94_PARTIAL_CHARGES>
43
1 -0.57
10 -0.85
11 -0.85
15 0.37
16 0.3
17 0.33
19 0.11
2 -0.57
20 0.06
21 -0.2
22 0.57
24 -0.15
26 -0.15
27 0.62
28 0.62
29 0.25
3 -0.57
30 -0.15
31 -0.15
32 -0.15
33 -0.15
34 0.55
4 -0.87
48 0.4
49 0.37
5 -0.73
52 0.27
53 0.15
54 0.37
57 0.36
58 0.36
59 0.15
6 0.03
60 0.15
61 0.15
62 0.15
63 0.4
64 0.4
65 0.4
66 0.4
7 -0.49
8 -0.99
9 -0.7

> <PUBCHEM_EFFECTIVE_ROTOR_COUNT>
14.2

> <PUBCHEM_PHARMACOPHORE_FEATURES>
17
1 1 acceptor
1 10 donor
1 11 donor
1 2 acceptor
1 3 acceptor
1 4 cation
1 4 donor
1 5 donor
1 6 cation
1 6 donor
1 7 donor
1 8 cation
1 8 donor
4 9 10 11 34 cation
5 6 21 24 25 26 rings
5 7 19 20 27 28 rings
6 24 25 30 31 32 33 rings

> <PUBCHEM_HEAVY_ATOM_COUNT>
34

> <PUBCHEM_ATOM_DEF_STEREO_COUNT>
0

> <PUBCHEM_ATOM_UDEF_STEREO_COUNT>
1

> <PUBCHEM_BOND_DEF_STEREO_COUNT>
0

> <PUBCHEM_BOND_UDEF_STEREO_COUNT>
0

> <PUBCHEM_ISOTOPIC_ATOM_COUNT>
0

> <PUBCHEM_COMPONENT_COUNT>
1

> <PUBCHEM_CACTVS_TAUTO_COUNT>
32

> <PUBCHEM_CONFORMER_ID>
02A4667E00000001

> <PUBCHEM_MMFF94_ENERGY>
54.4844

> <PUBCHEM_FEATURE_SELFOVERLAP>
86.425

> <PUBCHEM_SHAPE_FINGERPRINT>
11578080 2 17102292807070729476
12156800 1 17693379932329140766
12293681 4 17327453030951967112
13165054 49 17335608096559704000
13642711 20 18046095827730475090
14117953 113 17474093312301405445
14279260 333 18120364617884710384
144659 178 17544481851302607847
14932702 115 15897300067237442895
15274700 242 18191558983894301088
17921350 177 18339072701279743869
17977149 70 17840040541230400236
19319366 153 17830998484221694081
20531524 4 17046825245124612999
20764821 26 17475796451364291141
238918 7 17125047899660144123
3052486 1 17836369246135718551
469060 322 17411950212300787214
5080951 261 15513322058561429250
550186 7 17110457831330441102

> <PUBCHEM_SHAPE_MULTIPOLES>
642.25
8.02
6.91
3.13
10.36
5.03
2.27
-2.33
-0.67
-0.52
-0.67
-4.1
-3.53
-2.46

> <PUBCHEM_SHAPE_SELFOVERLAP>
1350.843

> <PUBCHEM_SHAPE_VOLUME>
360.7

> <PUBCHEM_COORDINATE_TYPE>
2
5
10

$$$$
