22413670
  -OEChem-10062121553D

 44 45  0     1  0  0  0  0  0999 V2000
    1.7447    3.1671    0.7236 O   0  0  0  0  0  0  0  0  0  0  0  0
   -1.2718    3.6452    0.6887 O   0  0  0  0  0  0  0  0  0  0  0  0
   -4.3261    0.4633   -0.5593 O   0  0  0  0  0  0  0  0  0  0  0  0
    1.4190    0.0733   -0.0819 N   0  0  0  0  0  0  0  0  0  0  0  0
   -1.9526    0.4238   -0.1665 N   0  0  0  0  0  0  0  0  0  0  0  0
   -1.6981   -3.7387    0.7347 N   0  0  0  0  0  0  0  0  0  0  0  0
    3.6376   -0.8258   -0.7184 C   0  0  0  0  0  0  0  0  0  0  0  0
    2.8497    0.2502    0.0958 C   0  0  2  0  0  0  0  0  0  0  0  0
    3.2332   -0.7544   -2.2078 C   0  0  0  0  0  0  0  0  0  0  0  0
    3.2887   -2.2398   -0.2094 C   0  0  0  0  0  0  0  0  0  0  0  0
    5.1640   -0.6387   -0.6185 C   0  0  0  0  0  0  0  0  0  0  0  0
    3.1390    0.2747    1.5982 C   0  0  0  0  0  0  0  0  0  0  0  0
    0.5542    1.0345    0.1185 C   0  0  0  0  0  0  0  0  0  0  0  0
   -0.7866    1.2478    0.1036 C   0  0  0  0  0  0  0  0  0  0  0  0
    0.8309    2.4214    0.4862 C   0  0  0  0  0  0  0  0  0  0  0  0
   -0.6273    2.6535    0.4697 C   0  0  0  0  0  0  0  0  0  0  0  0
   -1.8653   -1.0115    0.1446 C   0  0  0  0  0  0  0  0  0  0  0  0
   -3.1908    0.9182   -0.7194 C   0  0  0  0  0  0  0  0  0  0  0  0
   -1.0513   -1.4526    1.1821 C   0  0  0  0  0  0  0  0  0  0  0  0
   -2.5958   -1.9324   -0.5980 C   0  0  0  0  0  0  0  0  0  0  0  0
   -3.0137    2.1075   -1.6352 C   0  0  0  0  0  0  0  0  0  0  0  0
   -1.0031   -2.8141    1.4346 C   0  0  0  0  0  0  0  0  0  0  0  0
   -2.4784   -3.2726   -0.2660 C   0  0  0  0  0  0  0  0  0  0  0  0
    3.1513    1.2227   -0.3172 H   0  0  0  0  0  0  0  0  0  0  0  0
    2.1755   -0.9903   -2.3651 H   0  0  0  0  0  0  0  0  0  0  0  0
    3.8122   -1.4667   -2.8074 H   0  0  0  0  0  0  0  0  0  0  0  0
    3.4192    0.2460   -2.6146 H   0  0  0  0  0  0  0  0  0  0  0  0
    2.2304   -2.4925   -0.3182 H   0  0  0  0  0  0  0  0  0  0  0  0
    3.5632   -2.3729    0.8419 H   0  0  0  0  0  0  0  0  0  0  0  0
    3.8461   -2.9966   -0.7757 H   0  0  0  0  0  0  0  0  0  0  0  0
    5.4541    0.3717   -0.9268 H   0  0  0  0  0  0  0  0  0  0  0  0
    5.5265   -0.7978    0.4020 H   0  0  0  0  0  0  0  0  0  0  0  0
    5.6944   -1.3484   -1.2638 H   0  0  0  0  0  0  0  0  0  0  0  0
    1.1036   -0.8556   -0.3406 H   0  0  0  0  0  0  0  0  0  0  0  0
    2.8078   -0.6458    2.0904 H   0  0  0  0  0  0  0  0  0  0  0  0
    2.6261    1.0979    2.1047 H   0  0  0  0  0  0  0  0  0  0  0  0
    4.2070    0.4026    1.7960 H   0  0  0  0  0  0  0  0  0  0  0  0
   -0.4994   -0.7850    1.8333 H   0  0  0  0  0  0  0  0  0  0  0  0
   -3.2222   -1.6495   -1.4363 H   0  0  0  0  0  0  0  0  0  0  0  0
   -3.7684    2.0589   -2.4267 H   0  0  0  0  0  0  0  0  0  0  0  0
   -2.0337    2.1110   -2.1185 H   0  0  0  0  0  0  0  0  0  0  0  0
   -3.1611    3.0304   -1.0700 H   0  0  0  0  0  0  0  0  0  0  0  0
   -0.3932   -3.2082    2.2409 H   0  0  0  0  0  0  0  0  0  0  0  0
   -3.0213   -4.0317   -0.8194 H   0  0  0  0  0  0  0  0  0  0  0  0
  1 15  2  0  0  0  0
  2 16  2  0  0  0  0
  3 18  2  0  0  0  0
  4  8  1  0  0  0  0
  4 13  1  0  0  0  0
  4 34  1  0  0  0  0
  5 14  1  0  0  0  0
  5 17  1  0  0  0  0
  5 18  1  0  0  0  0
  6 22  2  0  0  0  0
  6 23  1  0  0  0  0
  7  8  1  0  0  0  0
  7  9  1  0  0  0  0
  7 10  1  0  0  0  0
  7 11  1  0  0  0  0
  8 12  1  0  0  0  0
  8 24  1  0  0  0  0
  9 25  1  0  0  0  0
  9 26  1  0  0  0  0
  9 27  1  0  0  0  0
 10 28  1  0  0  0  0
 10 29  1  0  0  0  0
 10 30  1  0  0  0  0
 11 31  1  0  0  0  0
 11 32  1  0  0  0  0
 11 33  1  0  0  0  0
 12 35  1  0  0  0  0
 12 36  1  0  0  0  0
 12 37  1  0  0  0  0
 13 14  2  0  0  0  0
 13 15  1  0  0  0  0
 14 16  1  0  0  0  0
 15 16  1  0  0  0  0
 17 19  2  0  0  0  0
 17 20  1  0  0  0  0
 18 21  1  0  0  0  0
 19 22  1  0  0  0  0
 19 38  1  0  0  0  0
 20 23  2  0  0  0  0
 20 39  1  0  0  0  0
 21 40  1  0  0  0  0
 21 41  1  0  0  0  0
 21 42  1  0  0  0  0
 22 43  1  0  0  0  0
 23 44  1  0  0  0  0
M  END
> <PUBCHEM_COMPOUND_CID>
22413670

> <PUBCHEM_CONFORMER_RMSD>
0.8

> <PUBCHEM_CONFORMER_DIVERSEORDER>
9
19
49
78
95
36
37
87
44
103
81
73
101
45
62
74
82
102
47
55
21
75
25
70
43
104
27
33
48
29
26
100
88
99
42
106
35
90
18
56
54
83
46
32
84
31
91
38
24
52
34
71
85
6
77
98
97
108
105
51
3
28
13
17
89
66
30
109
76
86
92
20
67
4
107
14
79
11
68
93
53
57
69
59
39
40
94
50
63
41
96
16
58
22
5
10
23
60
65
80
1
61
72
2
64
7
12
8
15

> <PUBCHEM_MMFF94_PARTIAL_CHARGES>
23
1 -0.57
13 0.03
14 0.01
15 0.64
16 0.64
17 0.12
18 0.57
19 -0.15
2 -0.57
20 -0.15
21 0.06
22 0.16
23 0.16
3 -0.57
34 0.4
38 0.15
39 0.15
4 -0.87
43 0.15
44 0.15
5 -0.25
6 -0.62
8 0.37

> <PUBCHEM_EFFECTIVE_ROTOR_COUNT>
6

> <PUBCHEM_PHARMACOPHORE_FEATURES>
9
1 1 acceptor
1 2 acceptor
1 3 acceptor
1 4 cation
1 4 donor
1 6 acceptor
4 13 14 15 16 rings
4 7 9 10 11 hydrophobe
6 6 17 19 20 22 23 rings

> <PUBCHEM_HEAVY_ATOM_COUNT>
23

> <PUBCHEM_ATOM_DEF_STEREO_COUNT>
0

> <PUBCHEM_ATOM_UDEF_STEREO_COUNT>
1

> <PUBCHEM_BOND_DEF_STEREO_COUNT>
0

> <PUBCHEM_BOND_UDEF_STEREO_COUNT>
0

> <PUBCHEM_ISOTOPIC_ATOM_COUNT>
0

> <PUBCHEM_COMPONENT_COUNT>
1

> <PUBCHEM_CACTVS_TAUTO_COUNT>
3

> <PUBCHEM_CONFORMER_ID>
0156016600000009

> <PUBCHEM_MMFF94_ENERGY>
87.4171

> <PUBCHEM_FEATURE_SELFOVERLAP>
45.672

> <PUBCHEM_SHAPE_FINGERPRINT>
10366900 7 18060135397880650710
10693767 8 17913180132726827743
10906281 52 18129681715423704500
11578080 2 16771248469971997251
12035759 4 17618772566726085549
12363563 72 18267308818749631706
12553582 1 18339936977659656354
12714826 92 18188226384470144771
12788726 201 18268713814257700416
13140716 1 18339357590565680737
13149001 5 18410566314535390421
140371 6 18342733040051192080
14081887 123 18412816985263144482
14115302 16 18260272944810962124
14223421 5 17979353388928441465
14251757 17 18339912762570504057
14251757 5 18335148595804111382
14790565 3 18195255407888816817
15415430 2 18341335487493073848
15635459 17 17760370285212042186
16752209 62 18191864530949544816
18981168 100 8141547668619638998
19591789 44 18051699832575896921
20600515 1 18195217015265608272
20645476 183 17458351801166453810
20645477 70 17691115359372498143
20871999 31 18407761438771249974
20905425 154 17830723614741135216
23184049 29 18118955038854200667
23557571 272 18339635750370723888
23558518 356 18200031733575846936
23559900 14 18412538800426489552
2748010 2 18196930187214081680
3084891 72 18339355245740376935
3178227 256 18336843987685862777
4280585 95 18408036326117688132
81228 2 18200038334961413536
8809292 202 18410573998126088836
9709674 26 18195239146988919111

> <PUBCHEM_SHAPE_MULTIPOLES>
440.78
7.23
4.36
1.4
5.47
0.36
0.29
1.92
2.87
-3.15
-1.2
0.53
0.12
1.35

> <PUBCHEM_SHAPE_SELFOVERLAP>
923.803

> <PUBCHEM_SHAPE_VOLUME>
245.1

> <PUBCHEM_COORDINATE_TYPE>
2
5
10

$$$$
