25165481
  -OEChem-10052115143D

 51 55  0     0  0  0  0  0  0999 V2000
    6.8470   -0.0413   -0.7950 F   0  0  0  0  0  0  0  0  0  0  0  0
   -6.6721   -0.0576   -0.5786 O   0  0  0  0  0  0  0  0  0  0  0  0
   -4.1679   -1.2957   -0.0330 N   0  0  0  0  0  0  0  0  0  0  0  0
   -0.4684   -1.8848    0.5640 N   0  0  0  0  0  0  0  0  0  0  0  0
    1.3063   -3.1441    0.1208 N   0  0  0  0  0  0  0  0  0  0  0  0
    0.0441    4.4936    0.5874 N   0  0  0  0  0  0  0  0  0  0  0  0
   -0.2397    4.8340   -0.6809 N   0  0  0  0  0  0  0  0  0  0  0  0
   -2.7842   -1.6242   -0.3694 C   0  0  0  0  0  0  0  0  0  0  0  0
   -1.9028   -1.5401    0.8763 C   0  0  0  0  0  0  0  0  0  0  0  0
   -5.0925   -1.8414   -1.0366 C   0  0  0  0  0  0  0  0  0  0  0  0
   -4.3468    0.1586    0.0783 C   0  0  0  0  0  0  0  0  0  0  0  0
   -6.5283   -1.4754   -0.6715 C   0  0  0  0  0  0  0  0  0  0  0  0
   -5.8001    0.4768    0.4181 C   0  0  0  0  0  0  0  0  0  0  0  0
    0.5763   -1.0178    0.4089 C   0  0  0  0  0  0  0  0  0  0  0  0
    1.6605   -1.8182    0.1364 C   0  0  0  0  0  0  0  0  0  0  0  0
    0.4523    0.4166    0.5288 C   0  0  0  0  0  0  0  0  0  0  0  0
    0.0180   -3.1495    0.3820 C   0  0  0  0  0  0  0  0  0  0  0  0
    2.9960   -1.3600   -0.1035 C   0  0  0  0  0  0  0  0  0  0  0  0
    0.1512    1.1787   -0.6071 C   0  0  0  0  0  0  0  0  0  0  0  0
    0.6337    1.0233    1.7731 C   0  0  0  0  0  0  0  0  0  0  0  0
    0.0349    2.5719   -0.4690 C   0  0  0  0  0  0  0  0  0  0  0  0
    0.2206    3.1502    0.7818 C   0  0  0  0  0  0  0  0  0  0  0  0
    0.5211    2.4089    1.9266 C   0  0  0  0  0  0  0  0  0  0  0  0
    3.2572   -0.4978   -1.1683 C   0  0  0  0  0  0  0  0  0  0  0  0
    4.0355   -1.7763    0.7282 C   0  0  0  0  0  0  0  0  0  0  0  0
   -0.2443    3.6623   -1.3205 C   0  0  0  0  0  0  0  0  0  0  0  0
    4.5581   -0.0520   -1.4018 C   0  0  0  0  0  0  0  0  0  0  0  0
    5.3364   -1.3304    0.4948 C   0  0  0  0  0  0  0  0  0  0  0  0
    5.5977   -0.4684   -0.5703 C   0  0  0  0  0  0  0  0  0  0  0  0
   -2.3946   -0.9876   -1.1746 H   0  0  0  0  0  0  0  0  0  0  0  0
   -2.7257   -2.6553   -0.7433 H   0  0  0  0  0  0  0  0  0  0  0  0
   -2.2104   -2.2666    1.6383 H   0  0  0  0  0  0  0  0  0  0  0  0
   -1.8919   -0.5493    1.3365 H   0  0  0  0  0  0  0  0  0  0  0  0
   -5.0087   -2.9333   -1.0809 H   0  0  0  0  0  0  0  0  0  0  0  0
   -4.8532   -1.4402   -2.0301 H   0  0  0  0  0  0  0  0  0  0  0  0
   -4.0816    0.6488   -0.8677 H   0  0  0  0  0  0  0  0  0  0  0  0
   -3.7136    0.5799    0.8654 H   0  0  0  0  0  0  0  0  0  0  0  0
   -7.2123   -1.8288   -1.4497 H   0  0  0  0  0  0  0  0  0  0  0  0
   -6.8355   -1.9373    0.2747 H   0  0  0  0  0  0  0  0  0  0  0  0
   -6.0819    0.0816    1.4017 H   0  0  0  0  0  0  0  0  0  0  0  0
   -5.9483    1.5612    0.4421 H   0  0  0  0  0  0  0  0  0  0  0  0
   -0.6079   -4.0286    0.4511 H   0  0  0  0  0  0  0  0  0  0  0  0
    0.0044    0.7114   -1.5771 H   0  0  0  0  0  0  0  0  0  0  0  0
    0.8674    0.4223    2.6502 H   0  0  0  0  0  0  0  0  0  0  0  0
    0.6617    2.8818    2.8921 H   0  0  0  0  0  0  0  0  0  0  0  0
    2.4692   -0.1762   -1.8440 H   0  0  0  0  0  0  0  0  0  0  0  0
    3.8493   -2.4469    1.5638 H   0  0  0  0  0  0  0  0  0  0  0  0
   -0.4511    3.6498   -2.3813 H   0  0  0  0  0  0  0  0  0  0  0  0
    0.1035    5.2313    1.2782 H   0  0  0  0  0  0  0  0  0  0  0  0
    4.7629    0.6154   -2.2338 H   0  0  0  0  0  0  0  0  0  0  0  0
    6.1462   -1.6541    1.1421 H   0  0  0  0  0  0  0  0  0  0  0  0
  1 29  1  0  0  0  0
  2 12  1  0  0  0  0
  2 13  1  0  0  0  0
  3  8  1  0  0  0  0
  3 10  1  0  0  0  0
  3 11  1  0  0  0  0
  4  9  1  0  0  0  0
  4 14  1  0  0  0  0
  4 17  1  0  0  0  0
  5 15  1  0  0  0  0
  5 17  2  0  0  0  0
  6  7  1  0  0  0  0
  6 22  1  0  0  0  0
  6 49  1  0  0  0  0
  7 26  2  0  0  0  0
  8  9  1  0  0  0  0
  8 30  1  0  0  0  0
  8 31  1  0  0  0  0
  9 32  1  0  0  0  0
  9 33  1  0  0  0  0
 10 12  1  0  0  0  0
 10 34  1  0  0  0  0
 10 35  1  0  0  0  0
 11 13  1  0  0  0  0
 11 36  1  0  0  0  0
 11 37  1  0  0  0  0
 12 38  1  0  0  0  0
 12 39  1  0  0  0  0
 13 40  1  0  0  0  0
 13 41  1  0  0  0  0
 14 15  2  0  0  0  0
 14 16  1  0  0  0  0
 15 18  1  0  0  0  0
 16 19  2  0  0  0  0
 16 20  1  0  0  0  0
 17 42  1  0  0  0  0
 18 24  2  0  0  0  0
 18 25  1  0  0  0  0
 19 21  1  0  0  0  0
 19 43  1  0  0  0  0
 20 23  2  0  0  0  0
 20 44  1  0  0  0  0
 21 22  2  0  0  0  0
 21 26  1  0  0  0  0
 22 23  1  0  0  0  0
 23 45  1  0  0  0  0
 24 27  1  0  0  0  0
 24 46  1  0  0  0  0
 25 28  2  0  0  0  0
 25 47  1  0  0  0  0
 26 48  1  0  0  0  0
 27 29  2  0  0  0  0
 27 50  1  0  0  0  0
 28 29  1  0  0  0  0
 28 51  1  0  0  0  0
M  END
> <PUBCHEM_COMPOUND_CID>
25165481

> <PUBCHEM_CONFORMER_RMSD>
0.8

> <PUBCHEM_CONFORMER_DIVERSEORDER>
1
39
50
51
48
38
35
23
40
12
20
7
52
22
42
44
11
60
49
19
30
36
8
47
54
29
56
62
58
4
31
33
14
28
43
6
41
3
34
27
37
15
5
25
9
26
32
57
16
18
59
21
45
10
61
24
17
55
46
53
2
13

> <PUBCHEM_MMFF94_PARTIAL_CHARGES>
38
1 -0.19
10 0.27
11 0.27
12 0.28
13 0.28
14 -0.2
15 0.17
16 0.05
17 0.04
18 0.05
19 -0.15
2 -0.56
20 -0.15
22 -0.15
23 -0.15
24 -0.15
25 -0.15
26 0.14
27 -0.15
28 -0.15
29 0.19
3 -0.81
4 0.05
42 0.15
43 0.15
44 0.15
45 0.15
46 0.15
47 0.15
48 0.15
49 0.27
5 -0.57
50 0.15
51 0.15
6 0.3
7 -0.71
8 0.27
9 0.26

> <PUBCHEM_EFFECTIVE_ROTOR_COUNT>
6.2

> <PUBCHEM_PHARMACOPHORE_FEATURES>
10
1 2 acceptor
1 3 cation
1 6 donor
1 7 acceptor
3 4 5 17 cation
5 4 5 14 15 17 rings
5 6 7 21 22 26 rings
6 16 19 20 21 22 23 rings
6 18 24 25 27 28 29 rings
6 2 3 10 11 12 13 rings

> <PUBCHEM_HEAVY_ATOM_COUNT>
29

> <PUBCHEM_ATOM_DEF_STEREO_COUNT>
0

> <PUBCHEM_ATOM_UDEF_STEREO_COUNT>
0

> <PUBCHEM_BOND_DEF_STEREO_COUNT>
0

> <PUBCHEM_BOND_UDEF_STEREO_COUNT>
0

> <PUBCHEM_ISOTOPIC_ATOM_COUNT>
0

> <PUBCHEM_COMPONENT_COUNT>
1

> <PUBCHEM_CACTVS_TAUTO_COUNT>
2

> <PUBCHEM_CONFORMER_ID>
017FFEA900000001

> <PUBCHEM_MMFF94_ENERGY>
59.2981

> <PUBCHEM_FEATURE_SELFOVERLAP>
50.839

> <PUBCHEM_SHAPE_FINGERPRINT>
10483366 6 18262810695174110668
10675989 125 18261114101840394788
10930396 42 18194937813043385784
10940486 97 18058441174674110319
11049842 53 17471009654204862212
11421498 54 18189048711888718579
11582403 64 15333759156460308273
12516196 113 18412261739980073791
12788726 201 18334575694764886722
13590594 115 18410014317297258569
13726171 33 15503199087137659055
13911987 19 18189353375610313502
14068700 675 18131067147772640177
14170010 4 18271239534322130363
14294032 229 18123479280532804400
14347329 18 16734362960358675759
14347332 77 18197785393282870894
14394314 77 18337678525042343457
14849402 71 18264777721892270025
15210252 30 18260835916175987668
15439362 3 18121497122908130109
15849732 13 17489586783702860175
1601671 61 18342737390826227563
16728300 4 12462190696212213124
16988056 13 18338221774233836629
18681886 176 18271516598489240875
20642791 105 18047455743874098050
20642791 239 18045521943359913028
21049683 271 18261396693192435909
21285901 2 18059583429768780894
21304303 64 18261120689719073997
21641784 216 18190194411752817684
22224240 67 8070027748921926031
23419403 2 17774703330119092104
23559900 14 18337945822822068331
23576562 1 18195242450251819975
24771293 8 18200582717955415032
24771750 20 17975145545207532837
249057 3 18272647970658899599
283562 15 18337676300327859938
3178227 256 18336841870166889019
340366 18 17988358299361733895
4353968 344 18268435625622633334
465052 167 11312054369953478870
469060 322 18337399218865582856
5081480 168 18341882035399272837
7164475 11 18192995920405093646

> <PUBCHEM_SHAPE_MULTIPOLES>
558.76
12.74
4.84
1.29
8.51
6.63
-0.18
-8.5
4.3
0.3
0
-0.48
0.64
-0.57

> <PUBCHEM_SHAPE_SELFOVERLAP>
1235.517

> <PUBCHEM_SHAPE_VOLUME>
303.3

> <PUBCHEM_COORDINATE_TYPE>
2
5
10

$$$$
