24905236
  -OEChem-10052115143D

 35 37  0     0  0  0  0  0  0999 V2000
    5.0772    0.2021    1.0707 F   0  0  0  0  0  0  0  0  0  0  0  0
   -2.3644    1.0242   -0.0430 N   0  0  0  0  0  0  0  0  0  0  0  0
   -1.0882    1.3966    0.1681 N   0  0  0  0  0  0  0  0  0  0  0  0
   -3.6820   -0.9860   -0.3347 N   0  0  0  0  0  0  0  0  0  0  0  0
   -2.3021   -2.9941   -0.2157 N   0  0  0  0  0  0  0  0  0  0  0  0
    0.0558   -2.9192    0.1476 N   0  0  0  0  0  0  0  0  0  0  0  0
    4.8604    0.3632   -2.4689 N   0  0  0  0  0  0  0  0  0  0  0  0
   -3.3913    2.0330   -0.1533 C   0  0  0  0  0  0  0  0  0  0  0  0
   -2.5311   -0.3260   -0.1296 C   0  0  0  0  0  0  0  0  0  0  0  0
   -1.2729   -0.8777    0.0368 C   0  0  0  0  0  0  0  0  0  0  0  0
   -0.4286    0.2340    0.2157 C   0  0  0  0  0  0  0  0  0  0  0  0
   -3.1483    2.9550   -1.3509 C   0  0  0  0  0  0  0  0  0  0  0  0
   -3.5268    2.8422    1.1389 C   0  0  0  0  0  0  0  0  0  0  0  0
    0.9963    0.2273    0.4319 C   0  0  0  0  0  0  0  0  0  0  0  0
   -1.1790   -2.2645   -0.0117 C   0  0  0  0  0  0  0  0  0  0  0  0
    1.8681    0.2767   -0.6557 C   0  0  0  0  0  0  0  0  0  0  0  0
    1.5034    0.1698    1.7302 C   0  0  0  0  0  0  0  0  0  0  0  0
   -3.4672   -2.3191   -0.3624 C   0  0  0  0  0  0  0  0  0  0  0  0
    3.2470    0.2687   -0.4453 C   0  0  0  0  0  0  0  0  0  0  0  0
    2.8822    0.1618    1.9407 C   0  0  0  0  0  0  0  0  0  0  0  0
    3.7540    0.2113    0.8529 C   0  0  0  0  0  0  0  0  0  0  0  0
    4.1375    0.3209   -1.5621 C   0  0  0  0  0  0  0  0  0  0  0  0
   -4.3426    1.5140   -0.3215 H   0  0  0  0  0  0  0  0  0  0  0  0
   -3.9787    3.6588   -1.4715 H   0  0  0  0  0  0  0  0  0  0  0  0
   -3.0597    2.3758   -2.2768 H   0  0  0  0  0  0  0  0  0  0  0  0
   -2.2279    3.5377   -1.2338 H   0  0  0  0  0  0  0  0  0  0  0  0
   -3.7089    2.1824    1.9945 H   0  0  0  0  0  0  0  0  0  0  0  0
   -4.3649    3.5437    1.0694 H   0  0  0  0  0  0  0  0  0  0  0  0
   -2.6210    3.4206    1.3518 H   0  0  0  0  0  0  0  0  0  0  0  0
    1.4728    0.3211   -1.6693 H   0  0  0  0  0  0  0  0  0  0  0  0
    0.8373    0.1299    2.5888 H   0  0  0  0  0  0  0  0  0  0  0  0
   -4.3464   -2.9335   -0.5241 H   0  0  0  0  0  0  0  0  0  0  0  0
    3.2773    0.1165    2.9512 H   0  0  0  0  0  0  0  0  0  0  0  0
    0.9090   -2.4025    0.3017 H   0  0  0  0  0  0  0  0  0  0  0  0
    0.0793   -3.9293    0.1063 H   0  0  0  0  0  0  0  0  0  0  0  0
  1 21  1  0  0  0  0
  2  3  1  0  0  0  0
  2  8  1  0  0  0  0
  2  9  1  0  0  0  0
  3 11  2  0  0  0  0
  4  9  2  0  0  0  0
  4 18  1  0  0  0  0
  5 15  1  0  0  0  0
  5 18  2  0  0  0  0
  6 15  1  0  0  0  0
  6 34  1  0  0  0  0
  6 35  1  0  0  0  0
  7 22  3  0  0  0  0
  8 12  1  0  0  0  0
  8 13  1  0  0  0  0
  8 23  1  0  0  0  0
  9 10  1  0  0  0  0
 10 11  1  0  0  0  0
 10 15  2  0  0  0  0
 11 14  1  0  0  0  0
 12 24  1  0  0  0  0
 12 25  1  0  0  0  0
 12 26  1  0  0  0  0
 13 27  1  0  0  0  0
 13 28  1  0  0  0  0
 13 29  1  0  0  0  0
 14 16  2  0  0  0  0
 14 17  1  0  0  0  0
 16 19  1  0  0  0  0
 16 30  1  0  0  0  0
 17 20  2  0  0  0  0
 17 31  1  0  0  0  0
 18 32  1  0  0  0  0
 19 21  2  0  0  0  0
 19 22  1  0  0  0  0
 20 21  1  0  0  0  0
 20 33  1  0  0  0  0
M  END
> <PUBCHEM_COMPOUND_CID>
24905236

> <PUBCHEM_CONFORMER_RMSD>
0.6

> <PUBCHEM_CONFORMER_DIVERSEORDER>
1
6
3
5
4
2

> <PUBCHEM_MMFF94_PARTIAL_CHARGES>
25
1 -0.19
11 0.23
14 0.05
15 0.41
16 -0.15
17 -0.15
18 0.47
19 0.07
2 0.31
20 -0.15
21 0.19
22 0.48
3 -0.71
30 0.15
31 0.15
32 0.15
33 0.15
34 0.4
35 0.4
4 -0.57
5 -0.62
6 -0.9
7 -0.56
8 0.26
9 0.11

> <PUBCHEM_EFFECTIVE_ROTOR_COUNT>
2

> <PUBCHEM_PHARMACOPHORE_FEATURES>
10
1 3 acceptor
1 6 cation
1 6 donor
1 7 acceptor
3 2 4 9 cation
3 4 5 18 cation
3 8 12 13 hydrophobe
5 2 3 9 10 11 rings
6 14 16 17 19 20 21 rings
6 4 5 9 10 15 18 rings

> <PUBCHEM_HEAVY_ATOM_COUNT>
22

> <PUBCHEM_ATOM_DEF_STEREO_COUNT>
0

> <PUBCHEM_ATOM_UDEF_STEREO_COUNT>
0

> <PUBCHEM_BOND_DEF_STEREO_COUNT>
0

> <PUBCHEM_BOND_UDEF_STEREO_COUNT>
0

> <PUBCHEM_ISOTOPIC_ATOM_COUNT>
0

> <PUBCHEM_COMPONENT_COUNT>
1

> <PUBCHEM_CACTVS_TAUTO_COUNT>
5

> <PUBCHEM_CONFORMER_ID>
017C061400000001

> <PUBCHEM_MMFF94_ENERGY>
46.4014

> <PUBCHEM_FEATURE_SELFOVERLAP>
51.025

> <PUBCHEM_SHAPE_FINGERPRINT>
10165383 225 18197235654263528537
10319926 262 18199161002745617352
11582403 64 16263979790577010328
11796584 16 18200038335768548182
12173636 292 18338226055967791693
12236239 1 17748816441128430418
12390115 104 18129394709140994585
12500047 106 18340754966991975176
12553582 1 18192430994561046403
12714826 92 18270408298714240459
12788726 201 18189340224314717659
13140716 1 18122903390032447579
14022347 108 18047183339573326643
15042514 8 18265611164475637907
15842332 3 17821999913587776210
16752209 62 18337098051421426739
16945 1 18339069484723850155
18186145 218 17917998247886172552
19049666 15 17918276428591377066
20510252 161 18271799172744873449
20645477 70 16343986888607823764
20693207 138 17774454892088331052
20871999 31 18340781415500921252
21065201 7 18342457054200089914
21618674 53 17894926117432504472
22182313 1 17632294609980186392
22907989 373 18188195581418210341
23366157 5 17826227398326713435
23402539 116 18269539685050647367
23557571 272 18201437030090556080
23559900 14 18130508531752268094
23598291 2 17676483943503314982
2748010 2 18194966241126104727
312425 83 18118151167722716180
350125 39 18195528095804940803
458136 41 17980772536892548081
474 4 16879638322043557724
57527295 17 17202486584881180516
59755656 215 18202284684920315231
59755656 520 17630349457962618377
6049 1 17774724267804766712
633830 44 17703219599261836081
7615 1 17677035919710020768
77492 1 17676759937964612466
81228 2 18338792442158423619
9862522 239 17896587389424020069

> <PUBCHEM_SHAPE_MULTIPOLES>
415.59
8.82
3.02
1.56
7.11
0.84
0.18
-3.02
1.99
-5.52
0.32
2.24
-0.65
-0.36

> <PUBCHEM_SHAPE_SELFOVERLAP>
914.612

> <PUBCHEM_SHAPE_VOLUME>
224.9

> <PUBCHEM_COORDINATE_TYPE>
2
5
10

$$$$
