6398883
  -OEChem-10052115143D

 43 45  0     0  0  0  0  0  0999 V2000
    6.1721   -1.3552   -0.4759 F   0  0  0  0  0  0  0  0  0  0  0  0
    4.6413   -1.5089   -2.0047 F   0  0  0  0  0  0  0  0  0  0  0  0
    5.6146    0.3998   -1.6325 F   0  0  0  0  0  0  0  0  0  0  0  0
   -0.4087    1.5708    2.1640 O   0  0  0  0  0  0  0  0  0  0  0  0
   -2.5300    0.2898   -0.1618 N   0  0  0  0  0  0  0  0  0  0  0  0
    0.7734    1.3352    0.1508 N   0  0  0  0  0  0  0  0  0  0  0  0
   -3.0682   -4.6339    0.2574 N   0  0  0  0  0  0  0  0  0  0  0  0
   -2.4630    1.6946   -0.2968 C   0  0  0  0  0  0  0  0  0  0  0  0
   -1.3917    2.4147    0.2321 C   0  0  0  0  0  0  0  0  0  0  0  0
   -3.6072   -0.4881   -0.6875 C   0  0  0  0  0  0  0  0  0  0  0  0
   -0.3066    1.7483    0.9409 C   0  0  0  0  0  0  0  0  0  0  0  0
   -3.4180   -1.9424   -0.3560 C   0  0  0  0  0  0  0  0  0  0  0  0
    1.9458    0.6493    0.5530 C   0  0  0  0  0  0  0  0  0  0  0  0
   -3.4867    2.3613   -0.9703 C   0  0  0  0  0  0  0  0  0  0  0  0
   -1.3443    3.8013    0.0874 C   0  0  0  0  0  0  0  0  0  0  0  0
    4.0565   -0.3454    0.0016 C   0  0  0  0  0  0  0  0  0  0  0  0
    2.9024    0.3300   -0.3955 C   0  0  0  0  0  0  0  0  0  0  0  0
   -3.4392    3.7478   -1.1150 C   0  0  0  0  0  0  0  0  0  0  0  0
   -2.3680    4.4677   -0.5861 C   0  0  0  0  0  0  0  0  0  0  0  0
    2.1080    0.3134    1.8862 C   0  0  0  0  0  0  0  0  0  0  0  0
    4.2363   -0.6913    1.3410 C   0  0  0  0  0  0  0  0  0  0  0  0
   -3.9428   -2.4513    0.8194 C   0  0  0  0  0  0  0  0  0  0  0  0
   -2.7210   -2.7593   -1.2293 C   0  0  0  0  0  0  0  0  0  0  0  0
    3.2622   -0.3618    2.2832 C   0  0  0  0  0  0  0  0  0  0  0  0
    5.0986   -0.6973   -1.0058 C   0  0  0  0  0  0  0  0  0  0  0  0
   -3.7416   -3.7974    1.0787 C   0  0  0  0  0  0  0  0  0  0  0  0
   -2.5743   -4.0917   -0.8783 C   0  0  0  0  0  0  0  0  0  0  0  0
   -3.6746   -0.3793   -1.7779 H   0  0  0  0  0  0  0  0  0  0  0  0
   -4.5698   -0.1591   -0.2745 H   0  0  0  0  0  0  0  0  0  0  0  0
   -1.7692   -0.1727    0.3231 H   0  0  0  0  0  0  0  0  0  0  0  0
   -4.3394    1.8450   -1.4002 H   0  0  0  0  0  0  0  0  0  0  0  0
   -0.5150    4.3740    0.4951 H   0  0  0  0  0  0  0  0  0  0  0  0
    0.7193    1.5456   -0.8438 H   0  0  0  0  0  0  0  0  0  0  0  0
    2.7630    0.5992   -1.4394 H   0  0  0  0  0  0  0  0  0  0  0  0
   -4.2357    4.2673   -1.6396 H   0  0  0  0  0  0  0  0  0  0  0  0
   -2.3310    5.5473   -0.6989 H   0  0  0  0  0  0  0  0  0  0  0  0
    1.4027    0.5317    2.6739 H   0  0  0  0  0  0  0  0  0  0  0  0
    5.1284   -1.2174    1.6696 H   0  0  0  0  0  0  0  0  0  0  0  0
    3.4034   -0.6319    3.3259 H   0  0  0  0  0  0  0  0  0  0  0  0
   -4.4907   -1.8316    1.5204 H   0  0  0  0  0  0  0  0  0  0  0  0
   -2.2987   -2.3840   -2.1548 H   0  0  0  0  0  0  0  0  0  0  0  0
   -4.1288   -4.2525    1.9843 H   0  0  0  0  0  0  0  0  0  0  0  0
   -2.0370   -4.7798   -1.5226 H   0  0  0  0  0  0  0  0  0  0  0  0
  1 25  1  0  0  0  0
  2 25  1  0  0  0  0
  3 25  1  0  0  0  0
  4 11  2  0  0  0  0
  5  8  1  0  0  0  0
  5 10  1  0  0  0  0
  5 30  1  0  0  0  0
  6 11  1  0  0  0  0
  6 13  1  0  0  0  0
  6 33  1  0  0  0  0
  7 26  2  0  0  0  0
  7 27  1  0  0  0  0
  8  9  1  0  0  0  0
  8 14  2  0  0  0  0
  9 11  1  0  0  0  0
  9 15  2  0  0  0  0
 10 12  1  0  0  0  0
 10 28  1  0  0  0  0
 10 29  1  0  0  0  0
 12 22  2  0  0  0  0
 12 23  1  0  0  0  0
 13 17  1  0  0  0  0
 13 20  2  0  0  0  0
 14 18  1  0  0  0  0
 14 31  1  0  0  0  0
 15 19  1  0  0  0  0
 15 32  1  0  0  0  0
 16 17  2  0  0  0  0
 16 21  1  0  0  0  0
 16 25  1  0  0  0  0
 17 34  1  0  0  0  0
 18 19  2  0  0  0  0
 18 35  1  0  0  0  0
 19 36  1  0  0  0  0
 20 24  1  0  0  0  0
 20 37  1  0  0  0  0
 21 24  2  0  0  0  0
 21 38  1  0  0  0  0
 22 26  1  0  0  0  0
 22 40  1  0  0  0  0
 23 27  2  0  0  0  0
 23 41  1  0  0  0  0
 24 39  1  0  0  0  0
 26 42  1  0  0  0  0
 27 43  1  0  0  0  0
M  END
> <PUBCHEM_COMPOUND_CID>
6398883

> <PUBCHEM_CONFORMER_RMSD>
0.8

> <PUBCHEM_CONFORMER_DIVERSEORDER>
2
90
18
98
28
38
71
63
81
39
11
45
51
91
26
25
66
72
49
99
79
56
47
64
67
6
93
95
94
96
101
40
77
92
87
88
30
44
46
74
3
15
33
84
48
59
22
82
100
32
29
31
80
73
69
41
78
27
7
24
61
19
13
75
54
17
10
65
37
97
4
83
1
36
20
5
42
86
85
8
50
14
70
9
35
57
58
68
53
62
16
23
34
89
76
21
43
12
60
52
55

> <PUBCHEM_MMFF94_PARTIAL_CHARGES>
41
1 -0.34
10 0.51
11 0.54
12 -0.14
13 0.12
14 -0.15
15 -0.15
16 -0.14
17 -0.15
18 -0.15
19 -0.15
2 -0.34
20 -0.15
21 -0.15
22 -0.15
23 -0.15
24 -0.15
25 1.16
26 0.16
27 0.16
3 -0.34
30 0.4
31 0.15
32 0.15
33 0.37
34 0.15
35 0.15
36 0.15
37 0.15
38 0.15
39 0.15
4 -0.57
40 0.15
41 0.15
42 0.15
43 0.15
5 -0.87
6 -0.55
7 -0.62
8 0.1
9 0.09

> <PUBCHEM_EFFECTIVE_ROTOR_COUNT>
7

> <PUBCHEM_PHARMACOPHORE_FEATURES>
8
1 4 acceptor
1 5 cation
1 5 donor
1 6 donor
1 7 acceptor
6 13 16 17 20 21 24 rings
6 7 12 22 23 26 27 rings
6 8 9 14 15 18 19 rings

> <PUBCHEM_HEAVY_ATOM_COUNT>
27

> <PUBCHEM_ATOM_DEF_STEREO_COUNT>
0

> <PUBCHEM_ATOM_UDEF_STEREO_COUNT>
0

> <PUBCHEM_BOND_DEF_STEREO_COUNT>
0

> <PUBCHEM_BOND_UDEF_STEREO_COUNT>
0

> <PUBCHEM_ISOTOPIC_ATOM_COUNT>
0

> <PUBCHEM_COMPONENT_COUNT>
1

> <PUBCHEM_CACTVS_TAUTO_COUNT>
5

> <PUBCHEM_CONFORMER_ID>
0061A3A300000002

> <PUBCHEM_MMFF94_ENERGY>
87.4614

> <PUBCHEM_FEATURE_SELFOVERLAP>
40.596

> <PUBCHEM_SHAPE_FINGERPRINT>
10462674 296 17552629666794676678
107951 10 18125718989971022429
10928967 22 18191864741467071315
11049842 53 17041461831647113752
11056379 131 18410293571053209908
11069576 57 16903262574875361415
11488393 25 17324373285765432849
11621639 254 17754493280319896308
12107183 9 18122638408236997779
12553582 1 18265041600150852251
12788726 201 18187363242278343539
12990986 174 18265317568594192363
13257819 37 18117265975032056093
13690498 29 18335991934197038660
13785724 45 18049166863372523531
13941206 138 18049441435887747101
14114206 34 18115289194336976295
14251757 5 18410011014018670485
14950920 106 14836121117157447110
15064981 113 17613136495981918804
15320294 125 17681245816298977082
15463212 79 18041836186561745793
15484559 13 13634451317587531164
16090146 7 18053960454216628305
17909252 39 18196665205550130024
18603816 31 17826496779266324010
19958102 18 18192419780058149477
20505436 4 17606127182137240432
20775530 9 18193553595890612655
22849339 104 18338796719634802477
23366157 5 16895950242788087505
23379529 103 18340773753084280950
23466295 7 18412553127930811537
23559900 14 18129648709101337744
24771750 20 17042880189247781365
249999 5 17259055196275858705
3117164 225 9943265696627252716
3737641 26 18049727613700808953
4015057 19 16915349196423995233
4058900 60 17691974760937980781
4371632 12 7817838822826038626
44426695 248 17977984253136167385
5080951 261 18411983525067943690
508706 21 18342736308267739663
56633871 153 18056767756995668551
57307002 85 17846502482831136948
613672 6 18051106375596918015
6898599 12 18260549991592650956

> <PUBCHEM_SHAPE_MULTIPOLES>
513.01
11.28
6.15
1.71
16.89
0.55
-0.4
7.11
3.63
-12.39
0.9
1.84
0.38
1.55

> <PUBCHEM_SHAPE_SELFOVERLAP>
1116.334

> <PUBCHEM_SHAPE_VOLUME>
279.1

> <PUBCHEM_COORDINATE_TYPE>
2
5
10

$$$$
