13441298
  -OEChem-10062122043D

 21 23  0     0  0  0  0  0  0999 V2000
    3.9231    1.4437    0.0007 F   0  0  0  0  0  0  0  0  0  0  0  0
   -0.5233   -1.7232   -0.0004 N   0  0  0  0  0  0  0  0  0  0  0  0
   -3.7212    0.1147    0.0006 N   0  0  0  0  0  0  0  0  0  0  0  0
    0.4667    0.2758   -0.0004 C   0  0  0  0  0  0  0  0  0  0  0  0
   -0.9514    0.4660   -0.0005 C   0  0  0  0  0  0  0  0  0  0  0  0
    0.7026   -1.0996   -0.0003 C   0  0  0  0  0  0  0  0  0  0  0  0
   -1.5391   -0.7986    0.0002 C   0  0  0  0  0  0  0  0  0  0  0  0
    1.5740    1.1497   -0.0003 C   0  0  0  0  0  0  0  0  0  0  0  0
    1.9909   -1.6468   -0.0005 C   0  0  0  0  0  0  0  0  0  0  0  0
   -1.7895    1.5921   -0.0007 C   0  0  0  0  0  0  0  0  0  0  0  0
   -2.9169   -0.9732    0.0010 C   0  0  0  0  0  0  0  0  0  0  0  0
    2.8683    0.6174    0.0006 C   0  0  0  0  0  0  0  0  0  0  0  0
    3.0712   -0.7605    0.0002 C   0  0  0  0  0  0  0  0  0  0  0  0
   -3.1554    1.3427   -0.0002 C   0  0  0  0  0  0  0  0  0  0  0  0
   -0.6575   -2.7249   -0.0004 H   0  0  0  0  0  0  0  0  0  0  0  0
    1.4324    2.2268   -0.0004 H   0  0  0  0  0  0  0  0  0  0  0  0
    2.1497   -2.7200   -0.0008 H   0  0  0  0  0  0  0  0  0  0  0  0
   -1.4007    2.6039   -0.0012 H   0  0  0  0  0  0  0  0  0  0  0  0
   -3.3957   -1.9437    0.0014 H   0  0  0  0  0  0  0  0  0  0  0  0
    4.0846   -1.1534    0.0003 H   0  0  0  0  0  0  0  0  0  0  0  0
   -3.8609    2.1682   -0.0003 H   0  0  0  0  0  0  0  0  0  0  0  0
  1 12  1  0  0  0  0
  2  6  1  0  0  0  0
  2  7  1  0  0  0  0
  2 15  1  0  0  0  0
  3 11  2  0  0  0  0
  3 14  1  0  0  0  0
  4  5  1  0  0  0  0
  4  6  2  0  0  0  0
  4  8  1  0  0  0  0
  5  7  2  0  0  0  0
  5 10  1  0  0  0  0
  6  9  1  0  0  0  0
  7 11  1  0  0  0  0
  8 12  2  0  0  0  0
  8 16  1  0  0  0  0
  9 13  2  0  0  0  0
  9 17  1  0  0  0  0
 10 14  2  0  0  0  0
 10 18  1  0  0  0  0
 11 19  1  0  0  0  0
 12 13  1  0  0  0  0
 13 20  1  0  0  0  0
 14 21  1  0  0  0  0
M  END
> <PUBCHEM_COMPOUND_CID>
13441298

> <PUBCHEM_CONFORMER_RMSD>
0.4

> <PUBCHEM_CONFORMER_DIVERSEORDER>
1

> <PUBCHEM_MMFF94_PARTIAL_CHARGES>
19
1 -0.19
10 -0.15
11 0.16
12 0.19
13 -0.15
14 0.16
15 0.27
16 0.15
17 0.15
18 0.15
19 0.15
2 0.03
20 0.15
21 0.15
3 -0.62
6 -0.15
7 -0.15
8 -0.15
9 -0.15

> <PUBCHEM_EFFECTIVE_ROTOR_COUNT>
0

> <PUBCHEM_PHARMACOPHORE_FEATURES>
6
1 2 cation
1 2 donor
1 3 acceptor
5 2 4 5 6 7 rings
6 3 5 7 10 11 14 rings
6 4 6 8 9 12 13 rings

> <PUBCHEM_HEAVY_ATOM_COUNT>
14

> <PUBCHEM_ATOM_DEF_STEREO_COUNT>
0

> <PUBCHEM_ATOM_UDEF_STEREO_COUNT>
0

> <PUBCHEM_BOND_DEF_STEREO_COUNT>
0

> <PUBCHEM_BOND_UDEF_STEREO_COUNT>
0

> <PUBCHEM_ISOTOPIC_ATOM_COUNT>
0

> <PUBCHEM_COMPONENT_COUNT>
1

> <PUBCHEM_CACTVS_TAUTO_COUNT>
2

> <PUBCHEM_CONFORMER_ID>
00CD191200000001

> <PUBCHEM_MMFF94_ENERGY>
28.3482

> <PUBCHEM_FEATURE_SELFOVERLAP>
30.632

> <PUBCHEM_SHAPE_FINGERPRINT>
10608611 8 18410008801841786485
10967382 1 18410575080389210631
10980938 120 18410575067799792378
11132069 177 18411693283714782409
11471102 20 18411132519925984597
12346645 44 18410011065563572248
12491281 212 18340217288446918473
12932764 1 17459187387154013227
13380535 21 18411428297117540442
13380535 76 18410009957383122458
14144814 61 18409730642574235377
14325111 11 18410855442980084033
14897335 6 18411415124658416044
15196674 1 18410856555365940773
15219456 202 18410857641997960919
15442244 35 18123187901018123850
15536298 74 18342739594307486998
15775835 57 18413674616542419481
16945 1 18338517563645006182
17844478 74 18260277338889332377
18186145 218 18270404879925573396
193761 8 17257934221972882439
19591789 44 15595564016299744867
200 152 18130494285018641421
20510252 161 18343305868370559913
20645477 70 18342173315422427119
21267235 1 18411145705444337387
21501502 16 18411133610874181315
2334 1 18410573967976856705
23402539 116 18341038709474008895
23402655 69 18270389508912919541
23463225 33 18335699395326518666
23559900 14 18198902518470884854
2748010 2 18410294661969219215
5104073 3 18410293596854240875
528886 8 18411132537084780746
53812653 166 18343297102352877648
57096353 35 18340203093653683039
69090 78 18342733018586073351
7364860 26 18269836428578274094
9709674 26 18411705395602178574

> <PUBCHEM_SHAPE_MULTIPOLES>
270.88
5.95
1.81
0.6
0.13
0.05
0
-1.38
0
0.22
0
-0.01
0
0

> <PUBCHEM_SHAPE_SELFOVERLAP>
617.531

> <PUBCHEM_SHAPE_VOLUME>
142.4

> <PUBCHEM_COORDINATE_TYPE>
2
5
10

$$$$
