56604907
  -OEChem-10062121563D

 64 68  0     1  0  0  0  0  0999 V2000
    1.7729    3.8050    0.4363 F   0  0  0  0  0  0  0  0  0  0  0  0
   -3.8769   -0.8241   -0.9428 O   0  0  0  0  0  0  0  0  0  0  0  0
    3.5001    1.6628    0.4730 O   0  0  0  0  0  0  0  0  0  0  0  0
   -2.8780    3.0317    0.2692 O   0  0  0  0  0  0  0  0  0  0  0  0
    6.8389   -1.6648    2.3829 O   0  0  0  0  0  0  0  0  0  0  0  0
    8.2914   -2.5816    0.1989 O   0  0  0  0  0  0  0  0  0  0  0  0
   -6.5737    0.8681    0.4278 N   0  0  1  0  0  0  0  0  0  0  0  0
   -6.0697   -0.2801   -0.2023 N   0  0  0  0  0  0  0  0  0  0  0  0
   -2.0031    0.8452    0.2779 N   0  0  0  0  0  0  0  0  0  0  0  0
    5.7554    0.1973   -2.7096 N   0  0  0  0  0  0  0  0  0  0  0  0
   -5.4904    1.7060    0.6964 C   0  0  0  0  0  0  0  0  0  0  0  0
   -4.3435    1.2134    0.2029 C   0  0  0  0  0  0  0  0  0  0  0  0
   -4.7033   -0.0896   -0.4259 C   0  0  0  0  0  0  0  0  0  0  0  0
   -6.7744   -1.5081   -0.2659 C   0  0  0  0  0  0  0  0  0  0  0  0
   -7.8446    1.4142   -0.0391 C   0  0  0  0  0  0  0  0  0  0  0  0
   -5.6951    2.9990    1.4146 C   0  0  0  0  0  0  0  0  0  0  0  0
   -3.0148    1.8028    0.2531 C   0  0  0  0  0  0  0  0  0  0  0  0
   -7.9000   -1.7086    0.5330 C   0  0  0  0  0  0  0  0  0  0  0  0
   -6.3423   -2.5163   -1.1277 C   0  0  0  0  0  0  0  0  0  0  0  0
   -0.6032    1.0542    0.3267 C   0  0  0  0  0  0  0  0  0  0  0  0
    5.2743    0.2164   -0.3483 C   0  0  0  0  0  0  0  0  0  0  0  0
   -8.5937   -2.9170    0.4701 C   0  0  0  0  0  0  0  0  0  0  0  0
   -7.0360   -3.7249   -1.1907 C   0  0  0  0  0  0  0  0  0  0  0  0
    4.2631    1.1613   -0.5682 C   0  0  0  0  0  0  0  0  0  0  0  0
    6.0061   -0.2447   -1.4627 C   0  0  0  0  0  0  0  0  0  0  0  0
   -8.1617   -3.9252   -0.3918 C   0  0  0  0  0  0  0  0  0  0  0  0
   -0.0914    2.3514    0.3568 C   0  0  0  0  0  0  0  0  0  0  0  0
    0.2641   -0.0383    0.3454 C   0  0  0  0  0  0  0  0  0  0  0  0
    2.1545    1.4640    0.4245 C   0  0  0  0  0  0  0  0  0  0  0  0
    5.5625   -0.2669    0.9392 C   0  0  0  0  0  0  0  0  0  0  0  0
    1.2873    2.5563    0.4057 C   0  0  0  0  0  0  0  0  0  0  0  0
    1.6429    0.1666    0.3944 C   0  0  0  0  0  0  0  0  0  0  0  0
    6.5726   -1.2057    1.1294 C   0  0  0  0  0  0  0  0  0  0  0  0
    7.0109   -1.1832   -1.2436 C   0  0  0  0  0  0  0  0  0  0  0  0
    7.2976   -1.6639    0.0364 C   0  0  0  0  0  0  0  0  0  0  0  0
    4.0023    1.6186   -1.8520 C   0  0  0  0  0  0  0  0  0  0  0  0
    4.7705    1.1090   -2.8790 C   0  0  0  0  0  0  0  0  0  0  0  0
    6.1244   -2.8215    2.8156 C   0  0  0  0  0  0  0  0  0  0  0  0
    9.6042   -2.0789    0.4398 C   0  0  0  0  0  0  0  0  0  0  0  0
   -8.3304    1.9766    0.7653 H   0  0  0  0  0  0  0  0  0  0  0  0
   -7.6795    2.0944   -0.8829 H   0  0  0  0  0  0  0  0  0  0  0  0
   -8.5510    0.6530   -0.3791 H   0  0  0  0  0  0  0  0  0  0  0  0
   -6.1378    3.7441    0.7463 H   0  0  0  0  0  0  0  0  0  0  0  0
   -4.7659    3.4080    1.8197 H   0  0  0  0  0  0  0  0  0  0  0  0
   -6.3697    2.8565    2.2660 H   0  0  0  0  0  0  0  0  0  0  0  0
   -8.2467   -0.9648    1.2443 H   0  0  0  0  0  0  0  0  0  0  0  0
   -5.4896   -2.3887   -1.7862 H   0  0  0  0  0  0  0  0  0  0  0  0
   -2.2769   -0.1349    0.2708 H   0  0  0  0  0  0  0  0  0  0  0  0
   -9.4653   -3.0768    1.0981 H   0  0  0  0  0  0  0  0  0  0  0  0
   -6.7037   -4.5078   -1.8662 H   0  0  0  0  0  0  0  0  0  0  0  0
   -8.7016   -4.8663   -0.4404 H   0  0  0  0  0  0  0  0  0  0  0  0
   -0.7005    3.2443    0.3453 H   0  0  0  0  0  0  0  0  0  0  0  0
   -0.1216   -1.0544    0.3245 H   0  0  0  0  0  0  0  0  0  0  0  0
    5.0037    0.0840    1.8044 H   0  0  0  0  0  0  0  0  0  0  0  0
    2.3028   -0.6963    0.4187 H   0  0  0  0  0  0  0  0  0  0  0  0
    7.5888   -1.5542   -2.0889 H   0  0  0  0  0  0  0  0  0  0  0  0
    3.2357    2.3568   -2.0589 H   0  0  0  0  0  0  0  0  0  0  0  0
    4.6140    1.4314   -3.9032 H   0  0  0  0  0  0  0  0  0  0  0  0
    6.4499   -3.0653    3.8305 H   0  0  0  0  0  0  0  0  0  0  0  0
    6.3410   -3.6740    2.1641 H   0  0  0  0  0  0  0  0  0  0  0  0
    5.0479   -2.6235    2.8307 H   0  0  0  0  0  0  0  0  0  0  0  0
   10.2813   -2.9299    0.5535 H   0  0  0  0  0  0  0  0  0  0  0  0
    9.6276   -1.4876    1.3606 H   0  0  0  0  0  0  0  0  0  0  0  0
    9.9435   -1.4719   -0.4057 H   0  0  0  0  0  0  0  0  0  0  0  0
  1 31  1  0  0  0  0
  2 13  2  0  0  0  0
  3 24  1  0  0  0  0
  3 29  1  0  0  0  0
  4 17  2  0  0  0  0
  5 33  1  0  0  0  0
  5 38  1  0  0  0  0
  6 35  1  0  0  0  0
  6 39  1  0  0  0  0
  7  8  1  0  0  0  0
  7 11  1  0  0  0  0
  7 15  1  0  0  0  0
  8 13  1  0  0  0  0
  8 14  1  0  0  0  0
  9 17  1  0  0  0  0
  9 20  1  0  0  0  0
  9 48  1  0  0  0  0
 10 25  2  0  0  0  0
 10 37  1  0  0  0  0
 11 12  2  0  0  0  0
 11 16  1  0  0  0  0
 12 13  1  0  0  0  0
 12 17  1  0  0  0  0
 14 18  2  0  0  0  0
 14 19  1  0  0  0  0
 15 40  1  0  0  0  0
 15 41  1  0  0  0  0
 15 42  1  0  0  0  0
 16 43  1  0  0  0  0
 16 44  1  0  0  0  0
 16 45  1  0  0  0  0
 18 22  1  0  0  0  0
 18 46  1  0  0  0  0
 19 23  2  0  0  0  0
 19 47  1  0  0  0  0
 20 27  2  0  0  0  0
 20 28  1  0  0  0  0
 21 24  2  0  0  0  0
 21 25  1  0  0  0  0
 21 30  1  0  0  0  0
 22 26  2  0  0  0  0
 22 49  1  0  0  0  0
 23 26  1  0  0  0  0
 23 50  1  0  0  0  0
 24 36  1  0  0  0  0
 25 34  1  0  0  0  0
 26 51  1  0  0  0  0
 27 31  1  0  0  0  0
 27 52  1  0  0  0  0
 28 32  2  0  0  0  0
 28 53  1  0  0  0  0
 29 31  2  0  0  0  0
 29 32  1  0  0  0  0
 30 33  2  0  0  0  0
 30 54  1  0  0  0  0
 32 55  1  0  0  0  0
 33 35  1  0  0  0  0
 34 35  2  0  0  0  0
 34 56  1  0  0  0  0
 36 37  2  0  0  0  0
 36 57  1  0  0  0  0
 37 58  1  0  0  0  0
 38 59  1  0  0  0  0
 38 60  1  0  0  0  0
 38 61  1  0  0  0  0
 39 62  1  0  0  0  0
 39 63  1  0  0  0  0
 39 64  1  0  0  0  0
M  END
> <PUBCHEM_COMPOUND_CID>
56604907

> <PUBCHEM_CONFORMER_RMSD>
1

> <PUBCHEM_CONFORMER_DIVERSEORDER>
1
72
85
68
147
169
63
64
176
111
172
192
177
104
183
24
90
161
134
8
151
117
132
175
180
103
57
159
125
199
140
194
114
29
75
135
150
129
189
142
174
17
100
155
133
76
42
137
162
66
11
123
138
83
115
50
197
193
148
136
154
139
128
65
15
80
12
23
190
182
81
86
173
101
156
82
131
143
187
119
144
157
58
126
186
33
188
96
178
145
198
171
149
92
32
53
170
158
118
13
116
179
91
7
73
67
28
77
120
124
56
130
98
195
105
167
35
99
84
5
70
74
106
141
108
113
153
3
185
127
71
62
89
110
87
166
102
51
122
36
46
191
160
14
107
168
112
6
181
55
69
22
19
37
184
93
2
109
44
59
196
41
88
94
54
4
48
20
25
49
31
39
79
95
146
164
97
61
16
163
60
121
27
26
21
45
78
165
30
34
40
10
43
38
9
52
152
18
47

> <PUBCHEM_MMFF94_PARTIAL_CHARGES>
51
1 -0.19
10 -0.62
11 -0.04
12 0.03
13 0.62
14 0.12
15 0.37
16 0.14
17 0.62
18 -0.15
19 -0.15
2 -0.57
20 0.12
22 -0.15
23 -0.15
24 0.08
25 0.31
26 -0.15
27 -0.15
28 -0.15
29 0.08
3 -0.17
30 -0.15
31 0.19
32 -0.15
33 0.08
34 -0.15
35 0.08
36 -0.15
37 0.16
38 0.28
39 0.28
4 -0.57
46 0.15
47 0.15
48 0.37
49 0.15
5 -0.36
50 0.15
51 0.15
52 0.15
53 0.15
54 0.15
55 0.15
56 0.15
57 0.15
58 0.15
6 -0.36
7 -0.49
8 -0.16
9 -0.55

> <PUBCHEM_EFFECTIVE_ROTOR_COUNT>
8

> <PUBCHEM_PHARMACOPHORE_FEATURES>
12
1 10 acceptor
1 2 acceptor
1 3 acceptor
1 4 acceptor
1 5 acceptor
1 6 acceptor
1 9 donor
5 7 8 11 12 13 rings
6 10 21 24 25 36 37 rings
6 14 18 19 22 23 26 rings
6 20 27 28 29 31 32 rings
6 21 25 30 33 34 35 rings

> <PUBCHEM_HEAVY_ATOM_COUNT>
39

> <PUBCHEM_ATOM_DEF_STEREO_COUNT>
0

> <PUBCHEM_ATOM_UDEF_STEREO_COUNT>
0

> <PUBCHEM_BOND_DEF_STEREO_COUNT>
0

> <PUBCHEM_BOND_UDEF_STEREO_COUNT>
0

> <PUBCHEM_ISOTOPIC_ATOM_COUNT>
0

> <PUBCHEM_COMPONENT_COUNT>
1

> <PUBCHEM_CACTVS_TAUTO_COUNT>
2

> <PUBCHEM_CONFORMER_ID>
035FB8EB00000001

> <PUBCHEM_MMFF94_ENERGY>
168.4594

> <PUBCHEM_FEATURE_SELFOVERLAP>
60.938

> <PUBCHEM_SHAPE_FINGERPRINT>
10 15 10375864178145586749
10119406 146 18187086191830611107
10533779 47 16271934771197121766
11386260 185 16226051124023790342
11578821 258 9943536202442865771
11607047 74 18265053712623810900
11672396 167 18341888624185150719
11828532 37 18202563986859819562
11963148 33 18411698746971965342
11991303 11 15936703647641257443
125118 31 9007065655498884261
12522641 68 11746938693919396233
13627175 4 18335709364278305947
13782708 43 18342176682808772585
14017579 102 13326857746996401708
14068700 675 18412267220322083001
14344974 204 17916582197918560807
15183329 4 18335709325296428668
15198563 99 15864346896335769964
15230672 131 18411416199276056751
15347591 1 18341328985525641609
15684393 108 18116153449019870527
16990366 60 18343301487361655440
19303781 99 18201146737319003925
19841028 212 18341613784695191265
2026 5 18409448063902608946
21057603 130 18186801354205146086
21130935 74 18272087197436200592
21315759 40 18260551112663023309
21585483 132 18259977180647272058
21792938 703 18187366583952492472
21814621 53 16056332608734688097
21895439 516 17023188296581200611
23522609 53 18118433724425789773
23569943 247 18265897947651839594
23576562 1 14996857657640193111
3383291 50 18060420244301960735
394071 54 13973678426210290272
397638 26 16988846098843819799
3986486 107 14129337339901529942
406291 66 18411697725222987631
4169191 19 10231754470684838467
42767 46 18334007302813997586
44389302 135 18266171739834644386
44802255 64 13551195494358927289
58902169 19 17967542272125767309
5937810 71 12252181832092221743
9831232 110 18201447951780459388
9896288 288 18059585651189655545
9962374 69 18040998436875500216

> <PUBCHEM_SHAPE_MULTIPOLES>
746.06
32.26
4.26
1.81
5.08
1.42
-0.39
32.03
0.53
6.46
0.77
-4.49
0.55
-5.29

> <PUBCHEM_SHAPE_SELFOVERLAP>
1648.505

> <PUBCHEM_SHAPE_VOLUME>
403.8

> <PUBCHEM_COORDINATE_TYPE>
2
5
10

$$$$
