44352973
  -OEChem-10062121583D

 68 75  0     1  0  0  0  0  0999 V2000
   -0.9490   -0.3456    2.1724 O   0  0  0  0  0  0  0  0  0  0  0  0
   -1.8464    0.3059   -0.9732 O   0  0  0  0  0  0  0  0  0  0  0  0
    5.6325   -1.2154   -0.9935 O   0  0  0  0  0  0  0  0  0  0  0  0
   -5.5624    0.5986    0.0435 O   0  0  0  0  0  0  0  0  0  0  0  0
   -0.1932    1.3830    0.8121 N   0  0  0  0  0  0  0  0  0  0  0  0
    0.4474   -1.5478    0.7524 N   0  0  0  0  0  0  0  0  0  0  0  0
   -4.1641   -1.2453   -0.2673 N   0  0  0  0  0  0  0  0  0  0  0  0
    5.5380    1.1203   -1.0954 N   0  0  0  0  0  0  0  0  0  0  0  0
   -7.4148   -0.1593   -1.7082 N   0  0  0  0  0  0  0  0  0  0  0  0
   -1.3803    0.7730    1.3922 C   0  0  1  0  0  0  0  0  0  0  0  0
   -2.4521    0.4196    0.3222 C   0  0  2  0  0  0  0  0  0  0  0  0
   -0.7986   -1.5628    1.4839 C   0  0  2  0  0  0  0  0  0  0  0  0
   -3.1102   -0.9150    0.6608 C   0  0  2  0  0  0  0  0  0  0  0  0
   -2.0339   -1.9966    0.6816 C   0  0  0  0  0  0  0  0  0  0  0  0
    1.0218    0.8420    0.4611 C   0  0  0  0  0  0  0  0  0  0  0  0
    1.3237   -0.5511    0.4227 C   0  0  0  0  0  0  0  0  0  0  0  0
    2.0957    1.7014    0.0171 C   0  0  0  0  0  0  0  0  0  0  0  0
    2.6594   -0.8805   -0.0478 C   0  0  0  0  0  0  0  0  0  0  0  0
   -0.0162    2.7214    0.4319 C   0  0  0  0  0  0  0  0  0  0  0  0
   -2.0239    1.6328    2.5055 C   0  0  0  0  0  0  0  0  0  0  0  0
    1.1879   -2.6938    0.4448 C   0  0  0  0  0  0  0  0  0  0  0  0
    1.3426    2.9497    0.0571 C   0  0  0  0  0  0  0  0  0  0  0  0
    3.3920    1.3701   -0.3638 C   0  0  0  0  0  0  0  0  0  0  0  0
    3.6708    0.0125   -0.3951 C   0  0  0  0  0  0  0  0  0  0  0  0
    2.4900   -2.3383   -0.0168 C   0  0  0  0  0  0  0  0  0  0  0  0
    4.5690    2.1617   -0.8263 C   0  0  0  0  0  0  0  0  0  0  0  0
   -0.9442    3.7816    0.3651 C   0  0  0  0  0  0  0  0  0  0  0  0
    5.0467   -0.1594   -0.8566 C   0  0  0  0  0  0  0  0  0  0  0  0
    0.8023   -4.0459    0.5622 C   0  0  0  0  0  0  0  0  0  0  0  0
    1.7353    4.2689   -0.2851 C   0  0  0  0  0  0  0  0  0  0  0  0
   -3.9962   -2.5017   -1.0035 C   0  0  0  0  0  0  0  0  0  0  0  0
    3.3654   -3.3997   -0.3619 C   0  0  0  0  0  0  0  0  0  0  0  0
   -5.3188   -0.4732   -0.5178 C   0  0  0  0  0  0  0  0  0  0  0  0
   -2.8043    0.4524   -2.0135 C   0  0  0  0  0  0  0  0  0  0  0  0
   -0.5175    5.0646    0.0130 C   0  0  0  0  0  0  0  0  0  0  0  0
    0.8097    5.3116   -0.2926 C   0  0  0  0  0  0  0  0  0  0  0  0
    1.7010   -5.0524    0.2117 C   0  0  0  0  0  0  0  0  0  0  0  0
    2.9680   -4.7349   -0.2462 C   0  0  0  0  0  0  0  0  0  0  0  0
   -6.2730   -1.0526   -1.5489 C   0  0  0  0  0  0  0  0  0  0  0  0
   -3.1730    1.2441    0.2881 H   0  0  0  0  0  0  0  0  0  0  0  0
   -0.6479   -2.3077    2.2759 H   0  0  0  0  0  0  0  0  0  0  0  0
   -3.5827   -0.8386    1.6484 H   0  0  0  0  0  0  0  0  0  0  0  0
   -2.4326   -2.9057    1.1507 H   0  0  0  0  0  0  0  0  0  0  0  0
   -1.6769   -2.2874   -0.3106 H   0  0  0  0  0  0  0  0  0  0  0  0
   -1.2619    2.0161    3.1955 H   0  0  0  0  0  0  0  0  0  0  0  0
   -2.7106    1.0286    3.1124 H   0  0  0  0  0  0  0  0  0  0  0  0
   -2.6031    2.4790    2.1345 H   0  0  0  0  0  0  0  0  0  0  0  0
    4.3687    2.7065   -1.7519 H   0  0  0  0  0  0  0  0  0  0  0  0
    4.9599    2.8213   -0.0480 H   0  0  0  0  0  0  0  0  0  0  0  0
   -1.9983    3.6273    0.5619 H   0  0  0  0  0  0  0  0  0  0  0  0
   -0.1871   -4.3164    0.9196 H   0  0  0  0  0  0  0  0  0  0  0  0
    2.7634    4.4770   -0.5706 H   0  0  0  0  0  0  0  0  0  0  0  0
   -3.1074   -2.4756   -1.6380 H   0  0  0  0  0  0  0  0  0  0  0  0
   -4.8061   -2.7732   -1.6766 H   0  0  0  0  0  0  0  0  0  0  0  0
   -3.9430   -3.3328   -0.2933 H   0  0  0  0  0  0  0  0  0  0  0  0
    4.3659   -3.1995   -0.7280 H   0  0  0  0  0  0  0  0  0  0  0  0
    6.4799    1.3031   -1.4270 H   0  0  0  0  0  0  0  0  0  0  0  0
   -2.2705    0.9183   -2.8500 H   0  0  0  0  0  0  0  0  0  0  0  0
   -3.6222    1.1359   -1.7713 H   0  0  0  0  0  0  0  0  0  0  0  0
   -3.1485   -0.5008   -2.4060 H   0  0  0  0  0  0  0  0  0  0  0  0
   -1.2398    5.8759   -0.0258 H   0  0  0  0  0  0  0  0  0  0  0  0
    1.1276    6.3138   -0.5656 H   0  0  0  0  0  0  0  0  0  0  0  0
    1.4023   -6.0934    0.2995 H   0  0  0  0  0  0  0  0  0  0  0  0
    3.6603   -5.5269   -0.5182 H   0  0  0  0  0  0  0  0  0  0  0  0
   -5.7750   -1.1468   -2.5183 H   0  0  0  0  0  0  0  0  0  0  0  0
   -6.6547   -2.0165   -1.2003 H   0  0  0  0  0  0  0  0  0  0  0  0
   -8.0508   -0.5467   -2.4043 H   0  0  0  0  0  0  0  0  0  0  0  0
   -7.0989    0.7350   -2.0821 H   0  0  0  0  0  0  0  0  0  0  0  0
  1 10  1  0  0  0  0
  1 12  1  0  0  0  0
  2 11  1  0  0  0  0
  2 34  1  0  0  0  0
  3 28  2  0  0  0  0
  4 33  2  0  0  0  0
  5 10  1  0  0  0  0
  5 15  1  0  0  0  0
  5 19  1  0  0  0  0
  6 12  1  0  0  0  0
  6 16  1  0  0  0  0
  6 21  1  0  0  0  0
  7 13  1  0  0  0  0
  7 31  1  0  0  0  0
  7 33  1  0  0  0  0
  8 26  1  0  0  0  0
  8 28  1  0  0  0  0
  8 57  1  0  0  0  0
  9 39  1  0  0  0  0
  9 67  1  0  0  0  0
  9 68  1  0  0  0  0
 10 11  1  0  0  0  0
 10 20  1  0  0  0  0
 11 13  1  0  0  0  0
 11 40  1  0  0  0  0
 12 14  1  0  0  0  0
 12 41  1  0  0  0  0
 13 14  1  0  0  0  0
 13 42  1  0  0  0  0
 14 43  1  0  0  0  0
 14 44  1  0  0  0  0
 15 16  2  0  0  0  0
 15 17  1  0  0  0  0
 16 18  1  0  0  0  0
 17 22  1  0  0  0  0
 17 23  2  0  0  0  0
 18 24  2  0  0  0  0
 18 25  1  0  0  0  0
 19 22  1  0  0  0  0
 19 27  2  0  0  0  0
 20 45  1  0  0  0  0
 20 46  1  0  0  0  0
 20 47  1  0  0  0  0
 21 25  1  0  0  0  0
 21 29  2  0  0  0  0
 22 30  2  0  0  0  0
 23 24  1  0  0  0  0
 23 26  1  0  0  0  0
 24 28  1  0  0  0  0
 25 32  2  0  0  0  0
 26 48  1  0  0  0  0
 26 49  1  0  0  0  0
 27 35  1  0  0  0  0
 27 50  1  0  0  0  0
 29 37  1  0  0  0  0
 29 51  1  0  0  0  0
 30 36  1  0  0  0  0
 30 52  1  0  0  0  0
 31 53  1  0  0  0  0
 31 54  1  0  0  0  0
 31 55  1  0  0  0  0
 32 38  1  0  0  0  0
 32 56  1  0  0  0  0
 33 39  1  0  0  0  0
 34 58  1  0  0  0  0
 34 59  1  0  0  0  0
 34 60  1  0  0  0  0
 35 36  2  0  0  0  0
 35 61  1  0  0  0  0
 36 62  1  0  0  0  0
 37 38  2  0  0  0  0
 37 63  1  0  0  0  0
 38 64  1  0  0  0  0
 39 65  1  0  0  0  0
 39 66  1  0  0  0  0
M  END
> <PUBCHEM_COMPOUND_CID>
44352973

> <PUBCHEM_CONFORMER_RMSD>
1

> <PUBCHEM_CONFORMER_DIVERSEORDER>
1
2
3
4

> <PUBCHEM_MMFF94_PARTIAL_CHARGES>
46
1 -0.56
10 0.54
11 0.28
12 0.54
13 0.3
15 -0.05
16 -0.05
17 -0.01
18 -0.01
19 -0.15
2 -0.56
21 -0.15
23 -0.14
24 0.09
26 0.44
27 -0.15
28 0.54
29 -0.15
3 -0.57
30 -0.15
31 0.3
32 -0.15
33 0.57
34 0.28
35 -0.15
36 -0.15
37 -0.15
38 -0.15
39 0.33
4 -0.57
5 -0.04
50 0.15
51 0.15
52 0.15
56 0.15
57 0.37
6 -0.04
61 0.15
62 0.15
63 0.15
64 0.15
67 0.36
68 0.36
7 -0.66
8 -0.73
9 -0.99

> <PUBCHEM_EFFECTIVE_ROTOR_COUNT>
5.2

> <PUBCHEM_PHARMACOPHORE_FEATURES>
17
1 1 acceptor
1 2 acceptor
1 3 acceptor
1 4 acceptor
1 5 cation
1 6 cation
1 8 donor
1 9 cation
1 9 donor
5 5 15 17 19 22 rings
5 6 16 18 21 25 rings
5 8 23 24 26 28 rings
6 1 10 11 12 13 14 rings
6 15 16 17 18 23 24 rings
6 19 22 27 30 35 36 rings
6 21 25 29 32 37 38 rings
7 1 5 6 10 12 15 16 rings

> <PUBCHEM_HEAVY_ATOM_COUNT>
39

> <PUBCHEM_ATOM_DEF_STEREO_COUNT>
4

> <PUBCHEM_ATOM_UDEF_STEREO_COUNT>
0

> <PUBCHEM_BOND_DEF_STEREO_COUNT>
0

> <PUBCHEM_BOND_UDEF_STEREO_COUNT>
0

> <PUBCHEM_ISOTOPIC_ATOM_COUNT>
0

> <PUBCHEM_COMPONENT_COUNT>
1

> <PUBCHEM_CACTVS_TAUTO_COUNT>
2

> <PUBCHEM_CONFORMER_ID>
02A4C5CD00000001

> <PUBCHEM_MMFF94_ENERGY>
186.516

> <PUBCHEM_FEATURE_SELFOVERLAP>
87.23

> <PUBCHEM_SHAPE_FINGERPRINT>
10675989 125 18408889533812529944
10693767 8 18202279208320451286
1100329 8 17763200420078971682
11115154 58 17917991681815230665
11135609 187 18338238279386817032
11445158 3 17321028464325679657
11513181 2 17981335482440557518
12788726 201 18262796242297598288
13140716 1 16758338159047119432
1361 2 18339077223674454349
13636023 51 14606905876554506204
13642711 20 18338512044807178070
13911987 19 18262534700823043812
14068700 675 18131631205258106416
14681490 219 18409728418071443477
15324884 4 17463697846171482801
15328829 1 17702968988695049123
15420108 30 17625003550719128281
15439362 3 17978789339712254197
15444296 8 17767693754091453583
15484559 13 18339917207698885502
15927050 60 17833562189435676460
15950262 2 15430892062610044174
19319366 153 17984411108657736119
20028762 73 18271811199123352790
20642791 105 16756340363541674008
20775438 99 17761730089196204629
21133410 171 17467588708569517939
23559900 14 18268142244484510849
24771293 8 18200874101680900568
24771750 20 17899709139337812637
283562 15 18340778057248478528
3388396 114 18338243669918504950
3882209 13 17901079959617864730
4353968 344 18268717109242006550
463206 1 18410013272913551103
484989 97 17832432264274825483
57527452 28 15984834773536915093
6004065 56 18268424809786899969
70251023 43 18193276278231410771

> <PUBCHEM_SHAPE_MULTIPOLES>
754.22
10.62
6.81
1.45
11.15
1.89
-0.27
-3.9
7.12
-5.46
-0.12
1.51
0.08
-0.98

> <PUBCHEM_SHAPE_SELFOVERLAP>
1725.801

> <PUBCHEM_SHAPE_VOLUME>
388.7

> <PUBCHEM_COORDINATE_TYPE>
2
5
10

$$$$
