24809769
  -OEChem-10052115173D

 40 42  0     0  0  0  0  0  0999 V2000
   -2.6933   -2.4750    0.1106 O   0  0  0  0  0  0  0  0  0  0  0  0
    0.4733    0.3138    0.2083 N   0  0  0  0  0  0  0  0  0  0  0  0
    3.0782    1.1448    0.1161 N   0  0  0  0  0  0  0  0  0  0  0  0
   -1.0464   -4.0472   -0.1627 N   0  0  0  0  0  0  0  0  0  0  0  0
    5.4434    0.7345   -0.0961 N   0  0  0  0  0  0  0  0  0  0  0  0
    4.6206    2.9114    0.2024 N   0  0  0  0  0  0  0  0  0  0  0  0
   -0.7280   -0.3456    0.2215 C   0  0  0  0  0  0  0  0  0  0  0  0
   -1.9766    0.3627    0.3906 C   0  0  0  0  0  0  0  0  0  0  0  0
   -2.6875    0.8453   -0.7082 C   0  0  0  0  0  0  0  0  0  0  0  0
   -0.4737   -1.6891    0.0551 C   0  0  0  0  0  0  0  0  0  0  0  0
    1.4906   -0.5884    0.0368 C   0  0  0  0  0  0  0  0  0  0  0  0
    0.9299   -1.8427   -0.0620 C   0  0  0  0  0  0  0  0  0  0  0  0
   -3.8909    1.5243   -0.5166 C   0  0  0  0  0  0  0  0  0  0  0  0
   -2.4689    0.5588    1.6809 C   0  0  0  0  0  0  0  0  0  0  0  0
   -2.1713    0.6397   -2.0990 C   0  0  0  0  0  0  0  0  0  0  0  0
    2.8739   -0.1821   -0.0166 C   0  0  0  0  0  0  0  0  0  0  0  0
   -4.3831    1.7206    0.7738 C   0  0  0  0  0  0  0  0  0  0  0  0
   -3.6720    1.2378    1.8725 C   0  0  0  0  0  0  0  0  0  0  0  0
   -1.4688   -2.7234    0.0126 C   0  0  0  0  0  0  0  0  0  0  0  0
   -4.6730    2.0516   -1.6751 C   0  0  0  0  0  0  0  0  0  0  0  0
    3.8889   -1.1007   -0.1902 C   0  0  0  0  0  0  0  0  0  0  0  0
    5.1663   -0.5799   -0.2223 C   0  0  0  0  0  0  0  0  0  0  0  0
    4.3682    1.5287    0.0676 C   0  0  0  0  0  0  0  0  0  0  0  0
    0.5911    1.3132    0.3096 H   0  0  0  0  0  0  0  0  0  0  0  0
    1.4724   -2.7676   -0.2026 H   0  0  0  0  0  0  0  0  0  0  0  0
   -1.9282    0.1888    2.5490 H   0  0  0  0  0  0  0  0  0  0  0  0
   -2.3972    1.4903   -2.7499 H   0  0  0  0  0  0  0  0  0  0  0  0
   -2.6173   -0.2617   -2.5318 H   0  0  0  0  0  0  0  0  0  0  0  0
   -1.0831    0.5404   -2.1450 H   0  0  0  0  0  0  0  0  0  0  0  0
   -5.3182    2.2484    0.9413 H   0  0  0  0  0  0  0  0  0  0  0  0
   -4.0552    1.3907    2.8772 H   0  0  0  0  0  0  0  0  0  0  0  0
   -4.1532    2.8975   -2.1362 H   0  0  0  0  0  0  0  0  0  0  0  0
   -4.8425    1.2703   -2.4234 H   0  0  0  0  0  0  0  0  0  0  0  0
   -5.6620    2.4064   -1.3641 H   0  0  0  0  0  0  0  0  0  0  0  0
    3.7295   -2.1657   -0.2970 H   0  0  0  0  0  0  0  0  0  0  0  0
   -1.7243   -4.8011   -0.2034 H   0  0  0  0  0  0  0  0  0  0  0  0
   -0.0718   -4.3118   -0.2549 H   0  0  0  0  0  0  0  0  0  0  0  0
    6.0288   -1.2245   -0.3545 H   0  0  0  0  0  0  0  0  0  0  0  0
    3.8455    3.5481    0.3267 H   0  0  0  0  0  0  0  0  0  0  0  0
    5.5729    3.2481    0.1719 H   0  0  0  0  0  0  0  0  0  0  0  0
  1 19  2  0  0  0  0
  2  7  1  0  0  0  0
  2 11  1  0  0  0  0
  2 24  1  0  0  0  0
  3 16  2  0  0  0  0
  3 23  1  0  0  0  0
  4 19  1  0  0  0  0
  4 36  1  0  0  0  0
  4 37  1  0  0  0  0
  5 22  1  0  0  0  0
  5 23  2  0  0  0  0
  6 23  1  0  0  0  0
  6 39  1  0  0  0  0
  6 40  1  0  0  0  0
  7  8  1  0  0  0  0
  7 10  2  0  0  0  0
  8  9  1  0  0  0  0
  8 14  2  0  0  0  0
  9 13  2  0  0  0  0
  9 15  1  0  0  0  0
 10 12  1  0  0  0  0
 10 19  1  0  0  0  0
 11 12  2  0  0  0  0
 11 16  1  0  0  0  0
 12 25  1  0  0  0  0
 13 17  1  0  0  0  0
 13 20  1  0  0  0  0
 14 18  1  0  0  0  0
 14 26  1  0  0  0  0
 15 27  1  0  0  0  0
 15 28  1  0  0  0  0
 15 29  1  0  0  0  0
 16 21  1  0  0  0  0
 17 18  2  0  0  0  0
 17 30  1  0  0  0  0
 18 31  1  0  0  0  0
 20 32  1  0  0  0  0
 20 33  1  0  0  0  0
 20 34  1  0  0  0  0
 21 22  2  0  0  0  0
 21 35  1  0  0  0  0
 22 38  1  0  0  0  0
M  END
> <PUBCHEM_COMPOUND_CID>
24809769

> <PUBCHEM_CONFORMER_RMSD>
0.6

> <PUBCHEM_CONFORMER_DIVERSEORDER>
1
31
61
20
23
63
46
45
22
4
32
48
44
39
47
53
10
56
52
19
59
9
42
55
62
12
27
51
64
16
5
36
60
54
35
40
50
6
25
13
29
37
49
21
8
26
43
58
11
41
15
33
2
28
30
57
18
38
3
24
34
14
7
17

> <PUBCHEM_MMFF94_PARTIAL_CHARGES>
34
1 -0.57
10 -0.09
11 -0.2
12 -0.15
13 -0.14
14 -0.15
15 0.14
16 0.36
17 -0.15
18 -0.15
19 0.72
2 0.03
20 0.14
21 -0.15
22 0.16
23 0.72
24 0.27
25 0.15
26 0.15
3 -0.62
30 0.15
31 0.15
35 0.15
36 0.37
37 0.37
38 0.15
39 0.4
4 -0.8
40 0.4
5 -0.62
6 -0.9
7 -0.2
8 0.05
9 -0.14

> <PUBCHEM_EFFECTIVE_ROTOR_COUNT>
3

> <PUBCHEM_PHARMACOPHORE_FEATURES>
10
1 1 acceptor
1 2 cation
1 2 donor
1 3 acceptor
1 4 donor
1 6 donor
4 3 5 6 23 cation
5 2 7 10 11 12 rings
6 3 5 16 21 22 23 rings
6 8 9 13 14 17 18 rings

> <PUBCHEM_HEAVY_ATOM_COUNT>
23

> <PUBCHEM_ATOM_DEF_STEREO_COUNT>
0

> <PUBCHEM_ATOM_UDEF_STEREO_COUNT>
0

> <PUBCHEM_BOND_DEF_STEREO_COUNT>
0

> <PUBCHEM_BOND_UDEF_STEREO_COUNT>
0

> <PUBCHEM_ISOTOPIC_ATOM_COUNT>
0

> <PUBCHEM_COMPONENT_COUNT>
1

> <PUBCHEM_CACTVS_TAUTO_COUNT>
21

> <PUBCHEM_CONFORMER_ID>
017A912900000001

> <PUBCHEM_MMFF94_ENERGY>
63.5592

> <PUBCHEM_FEATURE_SELFOVERLAP>
50.746

> <PUBCHEM_SHAPE_FINGERPRINT>
10014705 185 18335701663132625912
11405975 8 18410574003149121674
11582403 64 17170085107488464919
11725454 13 17531796932208741333
11796584 16 12967118381326996149
12236239 1 17560235804756479145
12390115 104 18341348758910331098
12403259 118 17313111847245188213
12403259 415 18260836968353278204
12633257 1 18409722942457411954
12788726 201 18124579032114707490
12969540 114 18261943060197986797
13140716 1 18409733963132932394
13583140 156 17240759571158485632
13675066 3 17676494930050750624
13994607 96 17918001598250904673
14787075 74 18131350817730736043
14790565 3 18269846319545533585
14848178 96 18343015636314755024
15324884 4 17390251238841703615
15342168 16 18340495482316787857
18186145 218 18412549795263016966
193927 3 10015585025718802560
204376 136 18338802217235230107
20645477 56 18261112958962408358
21033648 144 18341887528778741996
21033648 29 18187917353247559276
21033650 10 16700642042346532928
21236236 1 18412826919401414199
21756936 100 17703238334077239601
22079108 93 18272095989492360945
22224240 67 18337966610605914089
22907989 373 18127402573758178559
23227448 37 18410293652736443772
23558518 356 18117281574010331290
23559900 14 18201442450755949710
283562 15 18269274736966361843
2838139 119 17969767602114029413
314173 85 8142077693443361907
335352 9 18339645543260480414
350125 39 18267873967625588385
3729539 64 17833573209995535950
4214541 1 18411984702158000674
4340502 62 18269852938785513907
469060 322 17023462066275675591
474 4 18200877266411556642
5104073 3 18337106869711693410
53917941 68 18339629109897863247
59755656 520 18341902861268416131
633830 44 17843980151844029825

> <PUBCHEM_SHAPE_MULTIPOLES>
442.55
10.77
3.15
1.31
9.44
2.59
0.11
-8.36
0.52
-0.37
0.16
-2.19
-0.64
0.51

> <PUBCHEM_SHAPE_SELFOVERLAP>
977.365

> <PUBCHEM_SHAPE_VOLUME>
238

> <PUBCHEM_COORDINATE_TYPE>
2
5
10

$$$$
