49831004
  -OEChem-10052120433D

 37 39  0     0  0  0  0  0  0999 V2000
   -5.1971    2.7671    0.4182 Cl  0  0  0  0  0  0  0  0  0  0  0  0
    4.4412    0.8163    0.9450 O   0  0  0  0  0  0  0  0  0  0  0  0
    2.3003    0.5385   -0.9401 N   0  0  0  0  0  0  0  0  0  0  0  0
    1.2552    1.3755   -0.8252 N   0  0  0  0  0  0  0  0  0  0  0  0
   -1.1139   -1.8170    0.7830 N   0  0  0  0  0  0  0  0  0  0  0  0
   -1.5084   -4.1896    0.6336 N   0  0  0  0  0  0  0  0  0  0  0  0
    0.6521   -0.7833   -0.3857 C   0  0  0  0  0  0  0  0  0  0  0  0
    0.2512    0.5625   -0.4862 C   0  0  0  0  0  0  0  0  0  0  0  0
    3.5975    1.0590   -1.3001 C   0  0  0  0  0  0  0  0  0  0  0  0
    1.9920   -0.7659   -0.6871 C   0  0  0  0  0  0  0  0  0  0  0  0
   -1.0643    1.0953   -0.2679 C   0  0  0  0  0  0  0  0  0  0  0  0
    4.2955    1.7389   -0.1272 C   0  0  0  0  0  0  0  0  0  0  0  0
   -0.0692   -1.9753   -0.0559 C   0  0  0  0  0  0  0  0  0  0  0  0
   -2.1329    0.6563   -1.0496 C   0  0  0  0  0  0  0  0  0  0  0  0
   -1.2740    2.0512    0.7262 C   0  0  0  0  0  0  0  0  0  0  0  0
    0.3124   -3.1919   -0.5840 C   0  0  0  0  0  0  0  0  0  0  0  0
   -3.4109    1.1733   -0.8377 C   0  0  0  0  0  0  0  0  0  0  0  0
   -2.5520    2.5682    0.9382 C   0  0  0  0  0  0  0  0  0  0  0  0
   -3.6204    2.1293    0.1563 C   0  0  0  0  0  0  0  0  0  0  0  0
   -0.4514   -4.2753   -0.2004 C   0  0  0  0  0  0  0  0  0  0  0  0
   -1.7797   -2.9489    1.0814 C   0  0  0  0  0  0  0  0  0  0  0  0
    5.0769    1.4158    2.0653 C   0  0  0  0  0  0  0  0  0  0  0  0
    3.4613    1.7566   -2.1335 H   0  0  0  0  0  0  0  0  0  0  0  0
    4.1986    0.2149   -1.6574 H   0  0  0  0  0  0  0  0  0  0  0  0
    2.7444   -1.5423   -0.7360 H   0  0  0  0  0  0  0  0  0  0  0  0
    3.7093    2.6014    0.2124 H   0  0  0  0  0  0  0  0  0  0  0  0
    5.2831    2.0908   -0.4467 H   0  0  0  0  0  0  0  0  0  0  0  0
   -1.9899   -0.0833   -1.8340 H   0  0  0  0  0  0  0  0  0  0  0  0
   -0.4543    2.4030    1.3484 H   0  0  0  0  0  0  0  0  0  0  0  0
    1.1424   -3.3232   -1.2669 H   0  0  0  0  0  0  0  0  0  0  0  0
   -4.2339    0.8228   -1.4553 H   0  0  0  0  0  0  0  0  0  0  0  0
   -2.7008    3.3119    1.7168 H   0  0  0  0  0  0  0  0  0  0  0  0
   -0.2298   -5.2721   -0.5667 H   0  0  0  0  0  0  0  0  0  0  0  0
   -2.6239   -2.8504    1.7529 H   0  0  0  0  0  0  0  0  0  0  0  0
    6.0800    1.7620    1.7979 H   0  0  0  0  0  0  0  0  0  0  0  0
    4.4786    2.2496    2.4452 H   0  0  0  0  0  0  0  0  0  0  0  0
    5.1662    0.6635    2.8536 H   0  0  0  0  0  0  0  0  0  0  0  0
  1 19  1  0  0  0  0
  2 12  1  0  0  0  0
  2 22  1  0  0  0  0
  3  4  1  0  0  0  0
  3  9  1  0  0  0  0
  3 10  1  0  0  0  0
  4  8  2  0  0  0  0
  5 13  2  0  0  0  0
  5 21  1  0  0  0  0
  6 20  1  0  0  0  0
  6 21  2  0  0  0  0
  7  8  1  0  0  0  0
  7 10  2  0  0  0  0
  7 13  1  0  0  0  0
  8 11  1  0  0  0  0
  9 12  1  0  0  0  0
  9 23  1  0  0  0  0
  9 24  1  0  0  0  0
 10 25  1  0  0  0  0
 11 14  2  0  0  0  0
 11 15  1  0  0  0  0
 12 26  1  0  0  0  0
 12 27  1  0  0  0  0
 13 16  1  0  0  0  0
 14 17  1  0  0  0  0
 14 28  1  0  0  0  0
 15 18  2  0  0  0  0
 15 29  1  0  0  0  0
 16 20  2  0  0  0  0
 16 30  1  0  0  0  0
 17 19  2  0  0  0  0
 17 31  1  0  0  0  0
 18 19  1  0  0  0  0
 18 32  1  0  0  0  0
 20 33  1  0  0  0  0
 21 34  1  0  0  0  0
 22 35  1  0  0  0  0
 22 36  1  0  0  0  0
 22 37  1  0  0  0  0
M  END
> <PUBCHEM_COMPOUND_CID>
49831004

> <PUBCHEM_CONFORMER_RMSD>
0.8

> <PUBCHEM_CONFORMER_DIVERSEORDER>
1
26
15
25
4
6
27
22
18
23
2
14
9
19
28
17
24
5
3
10
8
11
7
13
12
21
20
16

> <PUBCHEM_MMFF94_PARTIAL_CHARGES>
30
1 -0.18
10 -0.3
11 0.05
12 0.28
13 0.36
14 -0.15
15 -0.15
16 -0.15
17 -0.15
18 -0.15
19 0.18
2 -0.56
20 0.16
21 0.47
22 0.28
25 0.15
28 0.15
29 0.15
3 0.31
30 0.15
31 0.15
32 0.15
33 0.15
34 0.15
4 -0.71
5 -0.62
6 -0.62
7 -0.05
8 0.23
9 0.26

> <PUBCHEM_EFFECTIVE_ROTOR_COUNT>
5

> <PUBCHEM_PHARMACOPHORE_FEATURES>
7
1 2 acceptor
1 4 acceptor
1 5 acceptor
3 5 6 21 cation
5 3 4 7 8 10 rings
6 11 14 15 17 18 19 rings
6 5 6 13 16 20 21 rings

> <PUBCHEM_HEAVY_ATOM_COUNT>
22

> <PUBCHEM_ATOM_DEF_STEREO_COUNT>
0

> <PUBCHEM_ATOM_UDEF_STEREO_COUNT>
0

> <PUBCHEM_BOND_DEF_STEREO_COUNT>
0

> <PUBCHEM_BOND_UDEF_STEREO_COUNT>
0

> <PUBCHEM_ISOTOPIC_ATOM_COUNT>
0

> <PUBCHEM_COMPONENT_COUNT>
1

> <PUBCHEM_CACTVS_TAUTO_COUNT>
1

> <PUBCHEM_CONFORMER_ID>
02F85C5C00000001

> <PUBCHEM_MMFF94_ENERGY>
51.0701

> <PUBCHEM_FEATURE_SELFOVERLAP>
35.522

> <PUBCHEM_SHAPE_FINGERPRINT>
10074138 170 18265316481961990778
10319926 262 18270105959957751992
1100329 8 18193279589603891798
121448 382 18342730836679461357
12549972 3 18060147548612266922
12553582 1 17689164821729327430
12643181 29 18337684019254854270
12788726 201 17829617502223352634
13004483 165 17832709345620713923
13052359 8 18335697299308683759
13140716 1 18264772064724307843
13692114 37 18341327821230320935
138480 1 17399524424788063815
13955234 65 17978517434169696281
14081887 123 18197497531346133042
14178342 30 18335976584569394134
14787075 74 18130781278907534041
19784866 34 18341046311957110325
20645477 70 17827366471483327893
21049683 118 18337933650014515768
212916 134 18340759373708126800
2255824 54 17906181646315029279
23419403 2 17127892692570012235
23557571 272 18199483232208167180
23559900 14 17615408061477692617
23598288 3 17898030154748018556
2748010 2 18192458344701609110
283562 15 17829334927761452966
3091708 16 8835494545433625839
3380486 145 17190084450365767271
352729 6 18337962314604824900
4340502 62 18337679611916729385
4409770 3 18265052629273466543
474 4 18339931402555119076
58807428 26 18337100160392573120
59755656 520 18409448064255296588
7364860 26 17906739098520186703
79837 15 18409730659775184321
81228 2 17973464357495285694
84936 182 18055918684403974624
90316 7 17907304604032305802
9981440 41 18342727529486052546

> <PUBCHEM_SHAPE_MULTIPOLES>
428.83
8.05
5.06
1.29
2.24
7.63
-0.32
-11.11
-2.27
-2.02
-1.3
1.05
-0.42
0.67

> <PUBCHEM_SHAPE_SELFOVERLAP>
920.885

> <PUBCHEM_SHAPE_VOLUME>
239

> <PUBCHEM_COORDINATE_TYPE>
2
5
10

$$$$
