4982682
  -OEChem-10052120443D

 38 41  0     0  0  0  0  0  0999 V2000
   -3.0995   -2.3382    1.1361 O   0  0  0  0  0  0  0  0  0  0  0  0
   -3.1809   -2.4265   -1.1245 O   0  0  0  0  0  0  0  0  0  0  0  0
    0.2918    1.1022    0.0604 N   0  0  0  0  0  0  0  0  0  0  0  0
    3.0521   -0.1271    0.0069 C   0  0  0  0  0  0  0  0  0  0  0  0
    1.8962   -0.7978    0.0527 C   0  0  0  0  0  0  0  0  0  0  0  0
    4.4113   -0.7665    0.0315 C   0  0  0  0  0  0  0  0  0  0  0  0
    3.1686    1.3684   -0.0768 C   0  0  0  0  0  0  0  0  0  0  0  0
    5.3426    0.4159    0.2717 C   0  0  0  0  0  0  0  0  0  0  0  0
    4.6399    1.5795   -0.4143 C   0  0  0  0  0  0  0  0  0  0  0  0
    1.7336   -2.2969    0.1236 C   0  0  0  0  0  0  0  0  0  0  0  0
    0.2312   -2.5802   -0.0739 C   0  0  0  0  0  0  0  0  0  0  0  0
    0.5606   -0.2142    0.0309 C   0  0  0  0  0  0  0  0  0  0  0  0
   -0.3810   -1.2217   -0.0166 C   0  0  0  0  0  0  0  0  0  0  0  0
   -1.7142   -0.8717   -0.0406 C   0  0  0  0  0  0  0  0  0  0  0  0
   -2.0535    0.4901   -0.0083 C   0  0  0  0  0  0  0  0  0  0  0  0
   -1.0101    1.4519    0.0420 C   0  0  0  0  0  0  0  0  0  0  0  0
   -2.7155   -1.9324   -0.1045 C   0  0  0  0  0  0  0  0  0  0  0  0
   -3.3950    0.9043   -0.0271 C   0  0  0  0  0  0  0  0  0  0  0  0
   -1.3633    2.7973    0.0721 C   0  0  0  0  0  0  0  0  0  0  0  0
   -3.7156    2.2586    0.0044 C   0  0  0  0  0  0  0  0  0  0  0  0
   -2.6994    3.2049    0.0540 C   0  0  0  0  0  0  0  0  0  0  0  0
    4.5182   -1.5189    0.8183 H   0  0  0  0  0  0  0  0  0  0  0  0
    4.6268   -1.2241   -0.9406 H   0  0  0  0  0  0  0  0  0  0  0  0
    2.5477    1.8163   -0.8575 H   0  0  0  0  0  0  0  0  0  0  0  0
    2.9377    1.8238    0.8927 H   0  0  0  0  0  0  0  0  0  0  0  0
    5.4379    0.6130    1.3469 H   0  0  0  0  0  0  0  0  0  0  0  0
    6.3449    0.2408   -0.1302 H   0  0  0  0  0  0  0  0  0  0  0  0
    4.7940    1.5265   -1.4994 H   0  0  0  0  0  0  0  0  0  0  0  0
    5.0085    2.5495   -0.0675 H   0  0  0  0  0  0  0  0  0  0  0  0
    2.3243   -2.8134   -0.6408 H   0  0  0  0  0  0  0  0  0  0  0  0
    2.0524   -2.6624    1.1075 H   0  0  0  0  0  0  0  0  0  0  0  0
   -0.1482   -3.2349    0.7170 H   0  0  0  0  0  0  0  0  0  0  0  0
    0.0502   -3.0432   -1.0498 H   0  0  0  0  0  0  0  0  0  0  0  0
   -4.2136    0.1900   -0.0661 H   0  0  0  0  0  0  0  0  0  0  0  0
   -0.5871    3.5596    0.1108 H   0  0  0  0  0  0  0  0  0  0  0  0
   -4.7546    2.5737   -0.0100 H   0  0  0  0  0  0  0  0  0  0  0  0
   -2.9427    4.2631    0.0785 H   0  0  0  0  0  0  0  0  0  0  0  0
   -3.7722   -3.0510    1.0949 H   0  0  0  0  0  0  0  0  0  0  0  0
  1 17  1  0  0  0  0
  1 38  1  0  0  0  0
  2 17  2  0  0  0  0
  3 12  2  0  0  0  0
  3 16  1  0  0  0  0
  4  5  2  0  0  0  0
  4  6  1  0  0  0  0
  4  7  1  0  0  0  0
  5 10  1  0  0  0  0
  5 12  1  0  0  0  0
  6  8  1  0  0  0  0
  6 22  1  0  0  0  0
  6 23  1  0  0  0  0
  7  9  1  0  0  0  0
  7 24  1  0  0  0  0
  7 25  1  0  0  0  0
  8  9  1  0  0  0  0
  8 26  1  0  0  0  0
  8 27  1  0  0  0  0
  9 28  1  0  0  0  0
  9 29  1  0  0  0  0
 10 11  1  0  0  0  0
 10 30  1  0  0  0  0
 10 31  1  0  0  0  0
 11 13  1  0  0  0  0
 11 32  1  0  0  0  0
 11 33  1  0  0  0  0
 12 13  1  0  0  0  0
 13 14  2  0  0  0  0
 14 15  1  0  0  0  0
 14 17  1  0  0  0  0
 15 16  1  0  0  0  0
 15 18  2  0  0  0  0
 16 19  2  0  0  0  0
 18 20  1  0  0  0  0
 18 34  1  0  0  0  0
 19 21  1  0  0  0  0
 19 35  1  0  0  0  0
 20 21  2  0  0  0  0
 20 36  1  0  0  0  0
 21 37  1  0  0  0  0
M  END
> <PUBCHEM_COMPOUND_CID>
4982682

> <PUBCHEM_CONFORMER_RMSD>
0.6

> <PUBCHEM_CONFORMER_DIVERSEORDER>
1

> <PUBCHEM_MMFF94_PARTIAL_CHARGES>
23
1 -0.65
10 0.14
11 0.14
12 0.34
13 -0.14
14 0.09
16 0.31
17 0.63
18 -0.15
19 -0.15
2 -0.57
20 -0.15
21 -0.15
3 -0.62
34 0.15
35 0.15
36 0.15
37 0.15
38 0.5
4 -0.28
5 -0.17
6 0.14
7 0.14

> <PUBCHEM_EFFECTIVE_ROTOR_COUNT>
2.2

> <PUBCHEM_PHARMACOPHORE_FEATURES>
8
1 1 acceptor
1 2 acceptor
1 3 acceptor
3 1 2 17 anion
5 4 6 7 8 9 rings
5 5 10 11 12 13 rings
6 15 16 18 19 20 21 rings
6 3 12 13 14 15 16 rings

> <PUBCHEM_HEAVY_ATOM_COUNT>
21

> <PUBCHEM_ATOM_DEF_STEREO_COUNT>
0

> <PUBCHEM_ATOM_UDEF_STEREO_COUNT>
0

> <PUBCHEM_BOND_DEF_STEREO_COUNT>
0

> <PUBCHEM_BOND_UDEF_STEREO_COUNT>
0

> <PUBCHEM_ISOTOPIC_ATOM_COUNT>
0

> <PUBCHEM_COMPONENT_COUNT>
1

> <PUBCHEM_CACTVS_TAUTO_COUNT>
1

> <PUBCHEM_CONFORMER_ID>
004C079A00000001

> <PUBCHEM_MMFF94_ENERGY>
63.2974

> <PUBCHEM_FEATURE_SELFOVERLAP>
40.781

> <PUBCHEM_SHAPE_FINGERPRINT>
10319926 262 18269815615857296458
10411042 1 17978791538682580223
10493431 412 18340775819348899753
10498660 4 18410291419585681676
10616163 171 18411138021842615014
10646746 165 18411419493130844524
10670039 82 18189911966773245084
10871710 139 18338802332909073533
10967382 1 18194682562071398985
1100329 8 18411422851542731505
12107183 9 18046616803801884594
12173636 292 18411695483044071252
12390115 104 18270419242734236576
12403259 226 18271239547122525688
12403259 415 18059574733050453712
12403260 363 18337100272383411062
12553582 1 18195519522718239835
12788726 201 18263077885162941050
13140716 1 18339088210670699041
138480 1 16897646788722999375
14787075 74 17390794731844545490
14790565 3 18194415608838617257
15196674 1 18410575106865941620
16087824 20 18412260620306925605
16752209 62 18339913913695800298
16945 1 18266740186459019047
17492 89 18409449176794978234
19591789 44 18195247942976335936
20510252 161 18341898532167865096
21029758 11 18195240246706366255
21041028 32 18119541070500096675
21236236 1 18412544331484361258
21267235 1 18337398235107023030
21501502 16 18337663118651430106
22182313 1 18199768984455840022
23227448 37 18411699850735836340
2334 1 18194683893896486537
23366157 5 18042690494834345210
23402539 116 18270394022475297582
23557571 272 18271816743202782646
23558518 356 18187937174595178098
23559900 14 18200312096851944190
2748010 2 18196075867106509161
283562 15 18338231669268546827
335352 9 18194401087743730102
34934 24 18409164385981344715
350125 39 18338803423926088817
4214541 1 18410573964272979948
474 4 17821738217162537564
5104073 3 18409163312513704770
58051976 378 18412823560472764220
633830 44 17625538982832628437
7097593 13 17680974215921610826
7364860 26 18052538764433033990
7808743 9 18410572856092647336
9709674 26 18270121201757364110
9981440 41 18335978692633868482

> <PUBCHEM_SHAPE_MULTIPOLES>
415.45
8.54
3.52
0.71
8.54
0.05
0
3.12
-0.05
-3.28
-0.04
-0.2
-0.2
-0.25

> <PUBCHEM_SHAPE_SELFOVERLAP>
933.307

> <PUBCHEM_SHAPE_VOLUME>
221.9

> <PUBCHEM_COORDINATE_TYPE>
2
5
10

$$$$
