12309509
  -OEChem-10062122043D

 35 37  0     1  0  0  0  0  0999 V2000
    0.4555    0.7574   -0.1114 O   0  0  0  0  0  0  0  0  0  0  0  0
   -0.0201   -1.3177    1.8284 O   0  0  0  0  0  0  0  0  0  0  0  0
    4.3331   -2.1456   -0.0042 O   0  0  0  0  0  0  0  0  0  0  0  0
    4.8219    2.5772   -0.3171 O   0  0  0  0  0  0  0  0  0  0  0  0
   -5.1186   -0.8226   -1.5254 O   0  0  0  0  0  0  0  0  0  0  0  0
   -5.8052    0.9621    0.4912 O   0  0  0  0  0  0  0  0  0  0  0  0
    0.0525   -1.6118    0.4327 C   0  0  1  0  0  0  0  0  0  0  0  0
   -0.3707   -0.3854   -0.3865 C   0  0  1  0  0  0  0  0  0  0  0  0
    1.4877   -1.9915    0.0736 C   0  0  0  0  0  0  0  0  0  0  0  0
    2.3595   -0.7697   -0.0366 C   0  0  0  0  0  0  0  0  0  0  0  0
    1.8045    0.5129   -0.1299 C   0  0  0  0  0  0  0  0  0  0  0  0
   -1.8267   -0.0267   -0.1540 C   0  0  0  0  0  0  0  0  0  0  0  0
    3.7533   -0.9123   -0.0673 C   0  0  0  0  0  0  0  0  0  0  0  0
    2.6320    1.6360   -0.2107 C   0  0  0  0  0  0  0  0  0  0  0  0
   -2.8186   -0.5930   -0.9529 C   0  0  0  0  0  0  0  0  0  0  0  0
   -2.1695    0.8690    0.8578 C   0  0  0  0  0  0  0  0  0  0  0  0
    4.5780    0.2093   -0.1622 C   0  0  0  0  0  0  0  0  0  0  0  0
    4.0174    1.4828   -0.2297 C   0  0  0  0  0  0  0  0  0  0  0  0
   -4.1570   -0.2628   -0.7396 C   0  0  0  0  0  0  0  0  0  0  0  0
   -3.5077    1.1991    1.0711 C   0  0  0  0  0  0  0  0  0  0  0  0
   -4.5014    0.6331    0.2726 C   0  0  0  0  0  0  0  0  0  0  0  0
   -0.6034   -2.4703    0.2456 H   0  0  0  0  0  0  0  0  0  0  0  0
   -0.2554   -0.6032   -1.4586 H   0  0  0  0  0  0  0  0  0  0  0  0
    1.5003   -2.5078   -0.8939 H   0  0  0  0  0  0  0  0  0  0  0  0
    1.8875   -2.6664    0.8397 H   0  0  0  0  0  0  0  0  0  0  0  0
    2.1901    2.6281   -0.2658 H   0  0  0  0  0  0  0  0  0  0  0  0
   -2.5487   -1.2932   -1.7398 H   0  0  0  0  0  0  0  0  0  0  0  0
   -0.9591   -1.2954    2.0777 H   0  0  0  0  0  0  0  0  0  0  0  0
   -1.4139    1.3158    1.4981 H   0  0  0  0  0  0  0  0  0  0  0  0
    5.6594    0.0984   -0.1823 H   0  0  0  0  0  0  0  0  0  0  0  0
   -3.7624    1.8969    1.8644 H   0  0  0  0  0  0  0  0  0  0  0  0
    5.2999   -2.0465   -0.0381 H   0  0  0  0  0  0  0  0  0  0  0  0
    4.2666    3.3749   -0.3554 H   0  0  0  0  0  0  0  0  0  0  0  0
   -4.6959   -1.4158   -2.1699 H   0  0  0  0  0  0  0  0  0  0  0  0
   -5.8530    1.5931    1.2298 H   0  0  0  0  0  0  0  0  0  0  0  0
  1  8  1  0  0  0  0
  1 11  1  0  0  0  0
  2  7  1  0  0  0  0
  2 28  1  0  0  0  0
  3 13  1  0  0  0  0
  3 32  1  0  0  0  0
  4 18  1  0  0  0  0
  4 33  1  0  0  0  0
  5 19  1  0  0  0  0
  5 34  1  0  0  0  0
  6 21  1  0  0  0  0
  6 35  1  0  0  0  0
  7  8  1  0  0  0  0
  7  9  1  0  0  0  0
  7 22  1  0  0  0  0
  8 12  1  0  0  0  0
  8 23  1  0  0  0  0
  9 10  1  0  0  0  0
  9 24  1  0  0  0  0
  9 25  1  0  0  0  0
 10 11  1  0  0  0  0
 10 13  2  0  0  0  0
 11 14  2  0  0  0  0
 12 15  2  0  0  0  0
 12 16  1  0  0  0  0
 13 17  1  0  0  0  0
 14 18  1  0  0  0  0
 14 26  1  0  0  0  0
 15 19  1  0  0  0  0
 15 27  1  0  0  0  0
 16 20  2  0  0  0  0
 16 29  1  0  0  0  0
 17 18  2  0  0  0  0
 17 30  1  0  0  0  0
 19 21  2  0  0  0  0
 20 21  1  0  0  0  0
 20 31  1  0  0  0  0
M  END
> <PUBCHEM_COMPOUND_CID>
12309509

> <PUBCHEM_CONFORMER_RMSD>
0.6

> <PUBCHEM_CONFORMER_DIVERSEORDER>
1
10
7
4
9
3
11
12
5
8
6
2

> <PUBCHEM_MMFF94_PARTIAL_CHARGES>
31
1 -0.36
10 -0.14
11 0.08
12 -0.14
13 0.08
14 -0.15
15 -0.15
16 -0.15
17 -0.15
18 0.08
19 0.08
2 -0.68
20 -0.15
21 0.08
26 0.15
27 0.15
28 0.4
29 0.15
3 -0.53
30 0.15
31 0.15
32 0.45
33 0.45
34 0.45
35 0.45
4 -0.53
5 -0.53
6 -0.53
7 0.28
8 0.42
9 0.14

> <PUBCHEM_EFFECTIVE_ROTOR_COUNT>
1.8

> <PUBCHEM_PHARMACOPHORE_FEATURES>
10
1 1 acceptor
1 2 acceptor
1 2 donor
1 3 donor
1 4 donor
1 5 donor
1 6 donor
6 1 7 8 9 10 11 rings
6 10 11 13 14 17 18 rings
6 12 15 16 19 20 21 rings

> <PUBCHEM_HEAVY_ATOM_COUNT>
21

> <PUBCHEM_ATOM_DEF_STEREO_COUNT>
1

> <PUBCHEM_ATOM_UDEF_STEREO_COUNT>
1

> <PUBCHEM_BOND_DEF_STEREO_COUNT>
0

> <PUBCHEM_BOND_UDEF_STEREO_COUNT>
0

> <PUBCHEM_ISOTOPIC_ATOM_COUNT>
0

> <PUBCHEM_COMPONENT_COUNT>
1

> <PUBCHEM_CACTVS_TAUTO_COUNT>
90

> <PUBCHEM_CONFORMER_ID>
00BBD40500000001

> <PUBCHEM_MMFF94_ENERGY>
59.9346

> <PUBCHEM_FEATURE_SELFOVERLAP>
50.784

> <PUBCHEM_SHAPE_FINGERPRINT>
10411042 1 17832989348078386826
10595046 47 18272650173132726693
10912923 1 18131070433053154673
11471102 20 18335420158296820614
12107183 9 17623298173428154049
12236239 1 18272089375348226165
12403259 415 17676203546268029317
12616971 3 18341895152128855567
13140716 1 18260550048012326746
13167823 11 18272931609349373151
13631057 29 18195521730727134063
13760787 5 18411416198563764037
14528608 73 18342739649772991876
14739800 52 17631717375208541968
15196674 1 18410857680763572791
15342168 16 18115315603953651644
15375358 24 16805318890594397173
15848702 151 18199189494746775086
17834072 33 18343863316502289463
18186145 218 18114180826280569534
19784866 240 16414932820787766582
200 152 18272085002918577055
204376 136 17968098658957293691
20612939 158 18409448076955335076
20645477 70 18410009914623425270
21033648 144 18261387879645056230
21033648 29 17095516288463219397
21267235 1 18341903939262950951
21709351 56 18339357444515498740
22079108 93 18114188553301158379
23402539 116 17846492621823497613
23402655 69 18342738554735380646
23557571 272 15195294075102751016
23558518 356 17391358781414608778
23559900 14 18335986441461381242
29717793 49 17988358183238770133
335352 9 18409169927158959534
34797466 226 15841269358418217032
4340502 62 17967825929436000307
474 4 18334859462826910644
5104073 3 18335421291698845043
542803 24 18412262835338860229
602551 16 15697420226518036815
633830 44 18335139769535489567
67856867 119 18201429307607216128
69090 78 18410572902983554230
7495541 125 16845281765792324683
8272917 22 18341618083809884870
9981440 41 17405693157234727560

> <PUBCHEM_SHAPE_MULTIPOLES>
396.95
11.38
2
1.01
5.2
0.08
-0.13
3.26
1.59
-2.45
-0.12
0.98
-0.17
-1.17

> <PUBCHEM_SHAPE_SELFOVERLAP>
876.549

> <PUBCHEM_SHAPE_VOLUME>
211.8

> <PUBCHEM_COORDINATE_TYPE>
2
5
10

$$$$
