5330390
  -OEChem-10052115173D

 51 54  0     0  0  0  0  0  0999 V2000
    1.0191   -2.5027   -0.3888 Cl  0  0  0  0  0  0  0  0  0  0  0  0
    1.2014    2.5921    0.3262 N   0  0  0  0  0  0  0  0  0  0  0  0
   -1.8411    4.6502    0.6821 N   0  0  0  0  0  0  0  0  0  0  0  0
    7.3498    0.0482   -1.3347 N   0  0  0  0  0  0  0  0  0  0  0  0
   -3.2749    0.1678    0.1205 N   0  0  0  0  0  0  0  0  0  0  0  0
   -4.0656   -2.0844    0.1561 N   0  0  0  0  0  0  0  0  0  0  0  0
   -5.7075    0.9498   -1.0356 N   0  0  0  0  0  0  0  0  0  0  0  0
    3.2016    1.2102    0.0792 C   0  0  0  0  0  0  0  0  0  0  0  0
    1.6773    1.2645    0.0208 C   0  0  0  0  0  0  0  0  0  0  0  0
    3.7530   -0.1851   -0.2341 C   0  0  0  0  0  0  0  0  0  0  0  0
    5.2597   -0.2109   -0.1833 C   0  0  0  0  0  0  0  0  0  0  0  0
   -0.1392    2.9440    0.3451 C   0  0  0  0  0  0  0  0  0  0  0  0
   -1.1471    2.0142    0.0624 C   0  0  0  0  0  0  0  0  0  0  0  0
   -2.4838    2.3961    0.0890 C   0  0  0  0  0  0  0  0  0  0  0  0
    5.9112   -0.4985    0.9989 C   0  0  0  0  0  0  0  0  0  0  0  0
    5.9981    0.0533   -1.3131 C   0  0  0  0  0  0  0  0  0  0  0  0
   -0.5527    4.2419    0.6466 C   0  0  0  0  0  0  0  0  0  0  0  0
   -3.5352    1.4493   -0.1998 C   0  0  0  0  0  0  0  0  0  0  0  0
   -2.7755    3.7142    0.4016 C   0  0  0  0  0  0  0  0  0  0  0  0
    7.3015   -0.5133    1.0165 C   0  0  0  0  0  0  0  0  0  0  0  0
   -4.2546   -0.7180   -0.1484 C   0  0  0  0  0  0  0  0  0  0  0  0
   -4.7279    1.8355   -0.7668 C   0  0  0  0  0  0  0  0  0  0  0  0
    7.9680   -0.2357   -0.1664 C   0  0  0  0  0  0  0  0  0  0  0  0
   -2.9194   -2.8987    0.2061 C   0  0  0  0  0  0  0  0  0  0  0  0
   -5.4495   -0.3339   -0.7162 C   0  0  0  0  0  0  0  0  0  0  0  0
   -1.6633   -2.3607   -0.0829 C   0  0  0  0  0  0  0  0  0  0  0  0
   -3.0338   -4.2485    0.5462 C   0  0  0  0  0  0  0  0  0  0  0  0
   -0.5273   -3.1685   -0.0321 C   0  0  0  0  0  0  0  0  0  0  0  0
   -1.8977   -5.0561    0.5969 C   0  0  0  0  0  0  0  0  0  0  0  0
   -0.6446   -4.5162    0.3078 C   0  0  0  0  0  0  0  0  0  0  0  0
    3.5395    1.5270    1.0750 H   0  0  0  0  0  0  0  0  0  0  0  0
    3.6176    1.9402   -0.6280 H   0  0  0  0  0  0  0  0  0  0  0  0
    1.2695    0.5469    0.7426 H   0  0  0  0  0  0  0  0  0  0  0  0
    1.3503    0.9681   -0.9831 H   0  0  0  0  0  0  0  0  0  0  0  0
    3.4129   -0.5143   -1.2237 H   0  0  0  0  0  0  0  0  0  0  0  0
    3.3591   -0.9103    0.4875 H   0  0  0  0  0  0  0  0  0  0  0  0
    1.8781    3.3163    0.5416 H   0  0  0  0  0  0  0  0  0  0  0  0
   -0.8852    0.9910   -0.1917 H   0  0  0  0  0  0  0  0  0  0  0  0
    5.3599   -0.7099    1.9103 H   0  0  0  0  0  0  0  0  0  0  0  0
    5.5288    0.2860   -2.2633 H   0  0  0  0  0  0  0  0  0  0  0  0
    0.1711    5.0188    0.8768 H   0  0  0  0  0  0  0  0  0  0  0  0
   -3.7916    4.0914    0.4655 H   0  0  0  0  0  0  0  0  0  0  0  0
    7.8463   -0.7345    1.9272 H   0  0  0  0  0  0  0  0  0  0  0  0
   -4.9579    2.8548   -1.0536 H   0  0  0  0  0  0  0  0  0  0  0  0
    9.0523   -0.2344   -0.2056 H   0  0  0  0  0  0  0  0  0  0  0  0
   -4.9293   -2.5734    0.3748 H   0  0  0  0  0  0  0  0  0  0  0  0
   -6.2444   -1.0367   -0.9384 H   0  0  0  0  0  0  0  0  0  0  0  0
   -1.5327   -1.3278   -0.3805 H   0  0  0  0  0  0  0  0  0  0  0  0
   -4.0038   -4.6831    0.7743 H   0  0  0  0  0  0  0  0  0  0  0  0
   -1.9889   -6.1055    0.8617 H   0  0  0  0  0  0  0  0  0  0  0  0
    0.2319   -5.1577    0.3514 H   0  0  0  0  0  0  0  0  0  0  0  0
  1 28  1  0  0  0  0
  2  9  1  0  0  0  0
  2 12  1  0  0  0  0
  2 37  1  0  0  0  0
  3 17  1  0  0  0  0
  3 19  2  0  0  0  0
  4 16  1  0  0  0  0
  4 23  2  0  0  0  0
  5 18  1  0  0  0  0
  5 21  2  0  0  0  0
  6 21  1  0  0  0  0
  6 24  1  0  0  0  0
  6 46  1  0  0  0  0
  7 22  1  0  0  0  0
  7 25  2  0  0  0  0
  8  9  1  0  0  0  0
  8 10  1  0  0  0  0
  8 31  1  0  0  0  0
  8 32  1  0  0  0  0
  9 33  1  0  0  0  0
  9 34  1  0  0  0  0
 10 11  1  0  0  0  0
 10 35  1  0  0  0  0
 10 36  1  0  0  0  0
 11 15  1  0  0  0  0
 11 16  2  0  0  0  0
 12 13  1  0  0  0  0
 12 17  2  0  0  0  0
 13 14  2  0  0  0  0
 13 38  1  0  0  0  0
 14 18  1  0  0  0  0
 14 19  1  0  0  0  0
 15 20  2  0  0  0  0
 15 39  1  0  0  0  0
 16 40  1  0  0  0  0
 17 41  1  0  0  0  0
 18 22  2  0  0  0  0
 19 42  1  0  0  0  0
 20 23  1  0  0  0  0
 20 43  1  0  0  0  0
 21 25  1  0  0  0  0
 22 44  1  0  0  0  0
 23 45  1  0  0  0  0
 24 26  2  0  0  0  0
 24 27  1  0  0  0  0
 25 47  1  0  0  0  0
 26 28  1  0  0  0  0
 26 48  1  0  0  0  0
 27 29  2  0  0  0  0
 27 49  1  0  0  0  0
 28 30  2  0  0  0  0
 29 30  1  0  0  0  0
 29 50  1  0  0  0  0
 30 51  1  0  0  0  0
M  END
> <PUBCHEM_COMPOUND_CID>
5330390

> <PUBCHEM_CONFORMER_RMSD>
1.2

> <PUBCHEM_CONFORMER_DIVERSEORDER>
1
187
234
299
427
279
173
419
38
179
87
206
368
145
23
89
122
281
335
193
350
84
214
211
43
380
329
394
138
96
66
100
278
263
75
172
177
245
395
314
231
36
102
134
262
426
366
307
393
282
387
397
196
296
109
107
212
362
372
158
125
56
33
376
12
423
248
60
223
45
135
356
236
151
250
67
388
70
47
62
383
411
392
289
385
255
3
273
168
208
224
74
346
215
81
319
54
340
16
303
72
361
27
37
55
266
140
268
209
132
320
46
244
71
91
322
369
332
144
171
210
439
52
324
290
76
260
183
197
35
441
348
160
349
203
276
130
149
337
204
359
79
18
182
50
2
97
301
103
163
185
226
347
341
286
259
24
399
49
48
354
425
217
228
294
153
272
227
298
291
240
95
14
25
377
31
328
146
398
174
32
305
352
77
152
308
309
389
44
271
17
207
353
429
418
28
34
30
382
438
200
391
237
222
7
219
422
127
157
333
220
318
264
344
188
257
181
225
434
233
156
285
199
379
154
142
374
21
128
364
170
288
261
405
325
166
117
338
390
101
180
269
258
111
20
254
334
410
5
26
292
252
216
162
297
4
378
327
416
270
400
249
330
409
414
10
189
321
165
381
371
114
253
404
367
93
51
99
430
238
106
230
246
417
370
435
82
202
239
407
304
406
342
323
116
148
421
198
360
420
312
373
19
213
131
126
345
178
428
147
274
386
13
232
283
141
155
317
355
129
242
401
235
137
402
159
63
90
251
9
113
358
256
277
433
8
190
310
275
39
280
123
169
6
192
150
83
112
61
104
384
331
351
243
110
326
115
437
315
133
415
176
306
40
316
343
403
267
85
336
136
396
184
94
357
42
175
73
201
167
218
436
295
424
313
98
247
311
365
287
161
139
143
86
440
164
15
284
22
191
57
80
105
375
58
78
118
431
221
339
11
121
205
413
302
88
300
29
229
124
65
92
68
119
69
241
194
432
412
120
108
41
59
363
408
265
53
186
293
195
64

> <PUBCHEM_MMFF94_PARTIAL_CHARGES>
43
1 -0.18
10 0.14
11 -0.14
12 0.1
13 -0.15
15 -0.15
16 0.16
17 0.16
18 0.31
19 0.16
2 -0.87
20 -0.15
21 0.41
22 0.16
23 0.16
24 0.1
25 0.16
26 -0.15
27 -0.15
28 0.18
29 -0.15
3 -0.62
30 -0.15
37 0.4
38 0.15
39 0.15
4 -0.62
40 0.15
41 0.15
42 0.15
43 0.15
44 0.15
45 0.15
46 0.4
47 0.15
48 0.15
49 0.15
5 -0.62
50 0.15
51 0.15
6 -0.6
7 -0.62
9 0.37

> <PUBCHEM_EFFECTIVE_ROTOR_COUNT>
8

> <PUBCHEM_PHARMACOPHORE_FEATURES>
11
1 2 cation
1 2 donor
1 3 acceptor
1 4 acceptor
1 6 donor
1 7 acceptor
3 5 6 21 cation
6 24 26 27 28 29 30 rings
6 3 12 13 14 17 19 rings
6 4 11 15 16 20 23 rings
6 5 7 18 21 22 25 rings

> <PUBCHEM_HEAVY_ATOM_COUNT>
30

> <PUBCHEM_ATOM_DEF_STEREO_COUNT>
0

> <PUBCHEM_ATOM_UDEF_STEREO_COUNT>
0

> <PUBCHEM_BOND_DEF_STEREO_COUNT>
0

> <PUBCHEM_BOND_UDEF_STEREO_COUNT>
0

> <PUBCHEM_ISOTOPIC_ATOM_COUNT>
0

> <PUBCHEM_COMPONENT_COUNT>
1

> <PUBCHEM_CACTVS_TAUTO_COUNT>
2

> <PUBCHEM_CONFORMER_ID>
005155D600000001

> <PUBCHEM_MMFF94_ENERGY>
103.8985

> <PUBCHEM_FEATURE_SELFOVERLAP>
55.822

> <PUBCHEM_SHAPE_FINGERPRINT>
10049733 162 18336276738496545222
100830 39 18410293601940653862
10290309 65 17690003327836374816
10462674 296 17409361120215924878
10483366 6 18410847751453286201
10571361 74 18189888735099974922
11135609 187 18048308952192594701
11513181 2 18057882446373049326
11756154 5 18338512044880913464
12202916 173 18201994430834987527
12645989 146 18055072322465191679
12712778 12 18409451405555093638
12758862 11 18273213128146006914
12788726 201 18334576867512771258
13402501 40 18343018895587608422
13911987 19 18263066757239994887
14251757 5 18408888472834425018
14394314 77 18341613660015318649
14461889 52 18131059421754072664
14674994 50 17560514118278642246
14725015 67 18339919437545917375
15297060 5 18271244924110240515
15320294 125 17969483954195239546
15320467 1 18410855443212374626
15328829 1 17677036972662603498
15351339 4 18266731399050948843
15361156 5 18130220562606132508
15400415 2 17906455424922134424
15439362 3 17327169949536785517
15781502 237 18408885102193122002
15890870 6 18335134268273331375
15927050 60 17910112413686474645
15968369 153 17987792046863116196
16719943 64 18409445864799640811
17627616 140 18191864518175769947
19311894 1 18338516464371177947
19611394 137 18273210916338511416
19958102 18 18335981953014861574
20771845 165 17392473291095531397
21796203 349 18047507600945746849
23559900 14 18340197613302813145
3044373 233 16053542005901409924
3383291 50 18411416237313980515
3882209 13 17262678541559075502
395649 100 18409453609822797742
4394409 98 18260546676194071933
4435113 14 17630629855102764270
49967989 163 18337410304750868630
5047190 69 18341322379986187896
5085150 59 18340476786424323110
5265222 85 18334294262717419269
58902169 19 17530972389167545988
9981440 41 18191875526218505027

> <PUBCHEM_SHAPE_MULTIPOLES>
589.37
16.54
6.9
0.93
37.18
2.85
0.1
0.72
3.12
-9.86
-2.09
0.75
-0.06
0.35

> <PUBCHEM_SHAPE_SELFOVERLAP>
1269.708

> <PUBCHEM_SHAPE_VOLUME>
321.8

> <PUBCHEM_COORDINATE_TYPE>
2
5
10

$$$$
