44340622
  -OEChem-10062122013D

 71 77  0     1  0  0  0  0  0999 V2000
   -3.9154    0.8729   -0.7691 O   0  0  0  0  0  0  0  0  0  0  0  0
   -2.9027   -1.4191    1.9330 O   0  0  0  0  0  0  0  0  0  0  0  0
   -5.0228   -2.2376    0.3555 O   0  0  0  0  0  0  0  0  0  0  0  0
   -7.2239   -0.5483   -0.0374 O   0  0  0  0  0  0  0  0  0  0  0  0
   -5.2387    1.6945   -3.0303 O   0  0  0  0  0  0  0  0  0  0  0  0
   -3.8402    2.7419    0.2195 O   0  0  0  0  0  0  0  0  0  0  0  0
    3.3741    2.5705    0.7818 O   0  0  0  0  0  0  0  0  0  0  0  0
    4.3110   -1.9500    0.3076 O   0  0  0  0  0  0  0  0  0  0  0  0
    7.8962   -0.7116   -0.0284 O   0  0  0  0  0  0  0  0  0  0  0  0
    6.4545    2.5378   -2.3112 O   0  0  0  0  0  0  0  0  0  0  0  0
   -1.7248    0.6267    0.1324 N   0  0  0  0  0  0  0  0  0  0  0  0
   -1.1626   -2.0830   -0.1512 N   0  0  0  0  0  0  0  0  0  0  0  0
    4.2205    0.3852    0.5856 N   0  0  0  0  0  0  0  0  0  0  0  0
    5.5607    0.6484    0.7275 N   0  0  0  0  0  0  0  0  0  0  0  0
   -3.0709   -0.0440   -0.0600 C   0  0  1  0  0  0  0  0  0  0  0  0
   -3.7101   -0.4422    1.2832 C   0  0  1  0  0  0  0  0  0  0  0  0
   -0.4506    0.1766    0.1805 C   0  0  0  0  0  0  0  0  0  0  0  0
   -5.1196   -1.0002    1.0670 C   0  0  1  0  0  0  0  0  0  0  0  0
   -5.9423   -0.0025    0.2492 C   0  0  1  0  0  0  0  0  0  0  0  0
    0.6728    1.0478    0.3775 C   0  0  0  0  0  0  0  0  0  0  0  0
   -5.2161    0.3500   -1.0559 C   0  0  1  0  0  0  0  0  0  0  0  0
   -1.5282    1.9874    0.3141 C   0  0  0  0  0  0  0  0  0  0  0  0
   -0.1678   -1.1870    0.0377 C   0  0  0  0  0  0  0  0  0  0  0  0
   -0.1299    2.2767    0.4623 C   0  0  0  0  0  0  0  0  0  0  0  0
    2.0073    0.6556    0.4379 C   0  0  0  0  0  0  0  0  0  0  0  0
    1.2149   -1.5659    0.1035 C   0  0  0  0  0  0  0  0  0  0  0  0
    2.2885   -0.7006    0.2957 C   0  0  0  0  0  0  0  0  0  0  0  0
    0.9651   -3.0017   -0.0908 C   0  0  0  0  0  0  0  0  0  0  0  0
   -5.9689    1.4126   -1.8505 C   0  0  0  0  0  0  0  0  0  0  0  0
   -2.5006    2.9981    0.3588 C   0  0  0  0  0  0  0  0  0  0  0  0
   -0.4391   -3.2631   -0.2356 C   0  0  0  0  0  0  0  0  0  0  0  0
    3.2616    1.3709    0.6271 C   0  0  0  0  0  0  0  0  0  0  0  0
    3.7294   -0.8863    0.3904 C   0  0  0  0  0  0  0  0  0  0  0  0
    0.2315    3.6319    0.6567 C   0  0  0  0  0  0  0  0  0  0  0  0
   -2.0907    4.3177    0.5525 C   0  0  0  0  0  0  0  0  0  0  0  0
   -0.7461    4.6318    0.6995 C   0  0  0  0  0  0  0  0  0  0  0  0
    1.8385   -4.1142   -0.1549 C   0  0  0  0  0  0  0  0  0  0  0  0
   -0.9323   -4.5620   -0.4324 C   0  0  0  0  0  0  0  0  0  0  0  0
    6.1681    0.8816   -0.5760 C   0  0  0  0  0  0  0  0  0  0  0  0
    1.3362   -5.4051   -0.3516 C   0  0  0  0  0  0  0  0  0  0  0  0
   -0.0284   -5.6233   -0.4880 C   0  0  0  0  0  0  0  0  0  0  0  0
    7.6709    0.6181   -0.4804 C   0  0  0  0  0  0  0  0  0  0  0  0
    5.8711    2.3133   -1.0327 C   0  0  0  0  0  0  0  0  0  0  0  0
   -2.9295   -0.8131   -0.8106 H   0  0  0  0  0  0  0  0  0  0  0  0
   -3.7706    0.4348    1.9391 H   0  0  0  0  0  0  0  0  0  0  0  0
   -5.6067   -1.2319    2.0198 H   0  0  0  0  0  0  0  0  0  0  0  0
   -6.0869    0.9076    0.8448 H   0  0  0  0  0  0  0  0  0  0  0  0
   -5.1058   -0.5248   -1.7090 H   0  0  0  0  0  0  0  0  0  0  0  0
   -6.0617    2.3434   -1.2822 H   0  0  0  0  0  0  0  0  0  0  0  0
   -6.9675    1.0658   -2.1333 H   0  0  0  0  0  0  0  0  0  0  0  0
   -2.1537   -2.0644   -0.0292 H   0  0  0  0  0  0  0  0  0  0  0  0
    1.2720    3.9167    0.7754 H   0  0  0  0  0  0  0  0  0  0  0  0
   -3.3397   -1.6502    2.7703 H   0  0  0  0  0  0  0  0  0  0  0  0
   -4.5341   -2.1083   -0.4714 H   0  0  0  0  0  0  0  0  0  0  0  0
   -7.6471   -0.7635    0.8112 H   0  0  0  0  0  0  0  0  0  0  0  0
   -2.8234    5.1204    0.5910 H   0  0  0  0  0  0  0  0  0  0  0  0
   -0.4472    5.6659    0.8496 H   0  0  0  0  0  0  0  0  0  0  0  0
    2.9110   -3.9840   -0.0526 H   0  0  0  0  0  0  0  0  0  0  0  0
   -1.9978   -4.7426   -0.5398 H   0  0  0  0  0  0  0  0  0  0  0  0
    5.9846   -0.1673    1.1696 H   0  0  0  0  0  0  0  0  0  0  0  0
    5.7792    0.1703   -1.3187 H   0  0  0  0  0  0  0  0  0  0  0  0
   -5.7342    2.3733   -3.5195 H   0  0  0  0  0  0  0  0  0  0  0  0
    2.0238   -6.2455   -0.3978 H   0  0  0  0  0  0  0  0  0  0  0  0
   -4.3317    3.5785    0.2837 H   0  0  0  0  0  0  0  0  0  0  0  0
   -0.3990   -6.6337   -0.6401 H   0  0  0  0  0  0  0  0  0  0  0  0
    8.1526    1.3077    0.2222 H   0  0  0  0  0  0  0  0  0  0  0  0
    8.1513    0.7281   -1.4581 H   0  0  0  0  0  0  0  0  0  0  0  0
    4.8029    2.4887   -1.1644 H   0  0  0  0  0  0  0  0  0  0  0  0
    6.2741    3.0525   -0.3319 H   0  0  0  0  0  0  0  0  0  0  0  0
    8.8592   -0.8379    0.0175 H   0  0  0  0  0  0  0  0  0  0  0  0
    6.2523    3.4557   -2.5607 H   0  0  0  0  0  0  0  0  0  0  0  0
  1 15  1  0  0  0  0
  1 21  1  0  0  0  0
  2 16  1  0  0  0  0
  2 53  1  0  0  0  0
  3 18  1  0  0  0  0
  3 54  1  0  0  0  0
  4 19  1  0  0  0  0
  4 55  1  0  0  0  0
  5 29  1  0  0  0  0
  5 62  1  0  0  0  0
  6 30  1  0  0  0  0
  6 64  1  0  0  0  0
  7 32  2  0  0  0  0
  8 33  2  0  0  0  0
  9 42  1  0  0  0  0
  9 70  1  0  0  0  0
 10 43  1  0  0  0  0
 10 71  1  0  0  0  0
 11 15  1  0  0  0  0
 11 17  1  0  0  0  0
 11 22  1  0  0  0  0
 12 23  1  0  0  0  0
 12 31  1  0  0  0  0
 12 51  1  0  0  0  0
 13 14  1  0  0  0  0
 13 32  1  0  0  0  0
 13 33  1  0  0  0  0
 14 39  1  0  0  0  0
 14 60  1  0  0  0  0
 15 16  1  0  0  0  0
 15 44  1  0  0  0  0
 16 18  1  0  0  0  0
 16 45  1  0  0  0  0
 17 20  1  0  0  0  0
 17 23  2  0  0  0  0
 18 19  1  0  0  0  0
 18 46  1  0  0  0  0
 19 21  1  0  0  0  0
 19 47  1  0  0  0  0
 20 24  1  0  0  0  0
 20 25  2  0  0  0  0
 21 29  1  0  0  0  0
 21 48  1  0  0  0  0
 22 24  2  0  0  0  0
 22 30  1  0  0  0  0
 23 26  1  0  0  0  0
 24 34  1  0  0  0  0
 25 27  1  0  0  0  0
 25 32  1  0  0  0  0
 26 27  2  0  0  0  0
 26 28  1  0  0  0  0
 27 33  1  0  0  0  0
 28 31  1  0  0  0  0
 28 37  2  0  0  0  0
 29 49  1  0  0  0  0
 29 50  1  0  0  0  0
 30 35  2  0  0  0  0
 31 38  2  0  0  0  0
 34 36  2  0  0  0  0
 34 52  1  0  0  0  0
 35 36  1  0  0  0  0
 35 56  1  0  0  0  0
 36 57  1  0  0  0  0
 37 40  1  0  0  0  0
 37 58  1  0  0  0  0
 38 41  1  0  0  0  0
 38 59  1  0  0  0  0
 39 42  1  0  0  0  0
 39 43  1  0  0  0  0
 39 61  1  0  0  0  0
 40 41  2  0  0  0  0
 40 63  1  0  0  0  0
 41 65  1  0  0  0  0
 42 66  1  0  0  0  0
 42 67  1  0  0  0  0
 43 68  1  0  0  0  0
 43 69  1  0  0  0  0
M  END
> <PUBCHEM_COMPOUND_CID>
44340622

> <PUBCHEM_CONFORMER_RMSD>
1

> <PUBCHEM_CONFORMER_DIVERSEORDER>
4
6
23
24
15
20
12
17
10
18
9
1
16
5
14
19
7
22
21
3
8
11
13
2

> <PUBCHEM_MMFF94_PARTIAL_CHARGES>
57
1 -0.56
10 -0.68
11 -0.04
12 -0.05
13 -0.11
14 -0.64
15 0.54
16 0.28
17 -0.05
18 0.28
19 0.28
2 -0.68
20 -0.01
21 0.28
22 -0.15
23 -0.05
25 0.09
26 -0.01
27 0.09
29 0.28
3 -0.68
30 0.08
31 -0.15
32 0.54
33 0.54
34 -0.15
35 -0.15
36 -0.15
37 -0.15
38 -0.15
39 0.27
4 -0.68
40 -0.15
41 -0.15
42 0.28
43 0.28
5 -0.68
51 0.27
52 0.15
53 0.4
54 0.4
55 0.4
56 0.15
57 0.15
58 0.15
59 0.15
6 -0.53
60 0.36
62 0.4
63 0.15
64 0.45
65 0.15
7 -0.57
70 0.4
71 0.4
8 -0.57
9 -0.68

> <PUBCHEM_EFFECTIVE_ROTOR_COUNT>
7.4

> <PUBCHEM_PHARMACOPHORE_FEATURES>
27
1 1 acceptor
1 10 acceptor
1 10 donor
1 11 cation
1 12 cation
1 12 donor
1 14 donor
1 2 acceptor
1 2 donor
1 3 acceptor
1 3 donor
1 4 acceptor
1 4 donor
1 5 acceptor
1 5 donor
1 6 donor
1 7 acceptor
1 8 acceptor
1 9 acceptor
1 9 donor
5 11 17 20 22 24 rings
5 12 23 26 28 31 rings
5 13 25 27 32 33 rings
6 1 15 16 18 19 21 rings
6 17 20 23 25 26 27 rings
6 22 24 30 34 35 36 rings
6 28 31 37 38 40 41 rings

> <PUBCHEM_HEAVY_ATOM_COUNT>
43

> <PUBCHEM_ATOM_DEF_STEREO_COUNT>
0

> <PUBCHEM_ATOM_UDEF_STEREO_COUNT>
5

> <PUBCHEM_BOND_DEF_STEREO_COUNT>
0

> <PUBCHEM_BOND_UDEF_STEREO_COUNT>
0

> <PUBCHEM_ISOTOPIC_ATOM_COUNT>
0

> <PUBCHEM_COMPONENT_COUNT>
1

> <PUBCHEM_CACTVS_TAUTO_COUNT>
33

> <PUBCHEM_CONFORMER_ID>
02A4958E00000004

> <PUBCHEM_MMFF94_ENERGY>
173.816

> <PUBCHEM_FEATURE_SELFOVERLAP>
137.541

> <PUBCHEM_SHAPE_FINGERPRINT>
10050765 1 18051696533888130083
102385 1 17908709423183308889
10906281 52 18337679611900872881
1100329 8 18196372752035364569
11062273 19 18051129195038080982
11135926 11 18410854322542401997
11136131 41 18263074419309761650
11227688 84 18270667715572771935
11513181 2 17842551851716605791
11991303 11 18189335830742820774
12440605 4 17983586204185647409
12788726 201 18411415090552366656
13140716 1 18125720334190115353
1361 2 18341044233656968075
13911987 19 18410006650421672941
140371 6 18334585599075677953
14068700 686 18340769221745765768
14790565 3 18411989035764301600
15131766 46 16445331225198973180
15320467 1 18412543223530888387
15439362 3 17617942427079538032
15705408 1 17763186839413864942
15890870 6 18409166631790363374
18681886 176 18334572486303425992
19311894 1 18198054992120951006
19591789 44 18412824689774947443
19611394 137 17899711329692454475
20775438 99 17110672876022410333
21133410 127 17827086096087668724
21796203 349 17831335978694100945
22223350 30 17841148071709883008
22311459 1 18412826906943351712
23559900 14 17764019173388584979
283562 15 18272093742665841720
3178227 256 18266755730351956307
3383291 50 18341327868759219858
350125 39 18411420609564086712
3882209 13 17255083802882925051
4394409 98 18334858333361574804
5265222 85 18263648535665585260
6004065 56 18340477976694571899
6669772 16 18272656727512173774
6700243 42 17480624781137763150
9961470 85 17912353535515299528

> <PUBCHEM_SHAPE_MULTIPOLES>
806.3
15.24
6.65
1.28
11.11
6.11
0.76
-6.78
5.08
0.43
0.28
-1.11
-0.72
0.06

> <PUBCHEM_SHAPE_SELFOVERLAP>
1822.62

> <PUBCHEM_SHAPE_VOLUME>
419.3

> <PUBCHEM_COORDINATE_TYPE>
2
5
10

$$$$
