49830273
  -OEChem-10052115183D

 43 46  0     0  0  0  0  0  0999 V2000
    1.3911    5.2573    0.1921 Cl  0  0  0  0  0  0  0  0  0  0  0  0
   -2.0633    1.7734    0.3327 N   0  0  0  0  0  0  0  0  0  0  0  0
   -5.3033   -2.7803   -0.6187 N   0  0  0  0  0  0  0  0  0  0  0  0
    0.1062    1.0072    0.0333 N   0  0  0  0  0  0  0  0  0  0  0  0
   -0.3711    3.3588    0.2570 N   0  0  0  0  0  0  0  0  0  0  0  0
    4.0999   -0.9010   -0.9719 N   0  0  0  0  0  0  0  0  0  0  0  0
    3.6565   -3.0855   -0.0584 N   0  0  0  0  0  0  0  0  0  0  0  0
   -2.6010    0.4305    0.2944 C   0  0  0  0  0  0  0  0  0  0  0  0
   -4.7220   -1.4391   -0.5732 C   0  0  0  0  0  0  0  0  0  0  0  0
   -2.6938   -0.0471   -1.1564 C   0  0  0  0  0  0  0  0  0  0  0  0
   -3.9702    0.4117    0.9766 C   0  0  0  0  0  0  0  0  0  0  0  0
   -3.3471   -1.4254   -1.2518 C   0  0  0  0  0  0  0  0  0  0  0  0
   -4.6251   -0.9657    0.8815 C   0  0  0  0  0  0  0  0  0  0  0  0
   -0.7181    2.0586    0.2029 C   0  0  0  0  0  0  0  0  0  0  0  0
    1.4122    1.3220   -0.0922 C   0  0  0  0  0  0  0  0  0  0  0  0
    2.3068    0.2150   -0.2718 C   0  0  0  0  0  0  0  0  0  0  0  0
    2.2055   -1.1242    0.1895 C   0  0  0  0  0  0  0  0  0  0  0  0
    1.8964    2.6136   -0.0541 C   0  0  0  0  0  0  0  0  0  0  0  0
    0.9495    3.6014    0.1244 C   0  0  0  0  0  0  0  0  0  0  0  0
    3.3388   -1.7932   -0.2638 C   0  0  0  0  0  0  0  0  0  0  0  0
    3.4825    0.3228   -0.9829 C   0  0  0  0  0  0  0  0  0  0  0  0
    1.2797   -1.8607    0.9463 C   0  0  0  0  0  0  0  0  0  0  0  0
    1.5596   -3.2043    1.1890 C   0  0  0  0  0  0  0  0  0  0  0  0
    2.7305   -3.7458    0.6754 C   0  0  0  0  0  0  0  0  0  0  0  0
   -1.9508   -0.2508    0.8595 H   0  0  0  0  0  0  0  0  0  0  0  0
   -5.3897   -0.7609   -1.1199 H   0  0  0  0  0  0  0  0  0  0  0  0
   -1.7007   -0.0938   -1.6180 H   0  0  0  0  0  0  0  0  0  0  0  0
   -3.2752    0.6705   -1.7506 H   0  0  0  0  0  0  0  0  0  0  0  0
   -4.6320    1.1577    0.5168 H   0  0  0  0  0  0  0  0  0  0  0  0
   -3.8685    0.6968    2.0311 H   0  0  0  0  0  0  0  0  0  0  0  0
   -2.6872   -2.1684   -0.7847 H   0  0  0  0  0  0  0  0  0  0  0  0
   -3.4442   -1.7061   -2.3078 H   0  0  0  0  0  0  0  0  0  0  0  0
   -5.6240   -0.9203    1.3328 H   0  0  0  0  0  0  0  0  0  0  0  0
   -4.0410   -1.6821    1.4745 H   0  0  0  0  0  0  0  0  0  0  0  0
   -2.6958    2.5616    0.4105 H   0  0  0  0  0  0  0  0  0  0  0  0
   -6.2389   -2.7630   -0.2149 H   0  0  0  0  0  0  0  0  0  0  0  0
   -5.4131   -3.0736   -1.5885 H   0  0  0  0  0  0  0  0  0  0  0  0
    2.9479    2.8602   -0.1417 H   0  0  0  0  0  0  0  0  0  0  0  0
    3.9445    1.1473   -1.5093 H   0  0  0  0  0  0  0  0  0  0  0  0
    4.9807   -1.1140   -1.4193 H   0  0  0  0  0  0  0  0  0  0  0  0
    0.3734   -1.4130    1.3403 H   0  0  0  0  0  0  0  0  0  0  0  0
    0.8753   -3.8141    1.7690 H   0  0  0  0  0  0  0  0  0  0  0  0
    2.9646   -4.7918    0.8552 H   0  0  0  0  0  0  0  0  0  0  0  0
  1 19  1  0  0  0  0
  2  8  1  0  0  0  0
  2 14  1  0  0  0  0
  2 35  1  0  0  0  0
  3  9  1  0  0  0  0
  3 36  1  0  0  0  0
  3 37  1  0  0  0  0
  4 14  2  0  0  0  0
  4 15  1  0  0  0  0
  5 14  1  0  0  0  0
  5 19  2  0  0  0  0
  6 20  1  0  0  0  0
  6 21  1  0  0  0  0
  6 40  1  0  0  0  0
  7 20  1  0  0  0  0
  7 24  2  0  0  0  0
  8 10  1  0  0  0  0
  8 11  1  0  0  0  0
  8 25  1  0  0  0  0
  9 12  1  0  0  0  0
  9 13  1  0  0  0  0
  9 26  1  0  0  0  0
 10 12  1  0  0  0  0
 10 27  1  0  0  0  0
 10 28  1  0  0  0  0
 11 13  1  0  0  0  0
 11 29  1  0  0  0  0
 11 30  1  0  0  0  0
 12 31  1  0  0  0  0
 12 32  1  0  0  0  0
 13 33  1  0  0  0  0
 13 34  1  0  0  0  0
 15 16  1  0  0  0  0
 15 18  2  0  0  0  0
 16 17  1  0  0  0  0
 16 21  2  0  0  0  0
 17 20  2  0  0  0  0
 17 22  1  0  0  0  0
 18 19  1  0  0  0  0
 18 38  1  0  0  0  0
 21 39  1  0  0  0  0
 22 23  2  0  0  0  0
 22 41  1  0  0  0  0
 23 24  1  0  0  0  0
 23 42  1  0  0  0  0
 24 43  1  0  0  0  0
M  END
> <PUBCHEM_COMPOUND_CID>
49830273

> <PUBCHEM_CONFORMER_RMSD>
0.8

> <PUBCHEM_CONFORMER_DIVERSEORDER>
1
36
40
44
10
42
33
8
50
32
29
54
61
22
26
39
12
2
57
30
45
60
35
65
55
37
31
52
64
6
62
28
3
66
21
11
58
19
53
46
25
27
34
38
49
20
47
43
7
24
4
51
18
23
63
5
13
16
56
48
17
59
9
14
41
15

> <PUBCHEM_MMFF94_PARTIAL_CHARGES>
28
1 -0.18
14 0.72
15 0.36
16 -0.05
18 -0.15
19 0.49
2 -0.87
20 0.11
21 -0.3
22 -0.15
23 -0.15
24 0.16
3 -0.99
35 0.4
36 0.36
37 0.36
38 0.15
39 0.15
4 -0.62
40 0.27
41 0.15
42 0.15
43 0.15
5 -0.62
6 0.03
7 -0.57
8 0.37
9 0.27

> <PUBCHEM_EFFECTIVE_ROTOR_COUNT>
4.2

> <PUBCHEM_PHARMACOPHORE_FEATURES>
12
1 2 donor
1 3 cation
1 3 donor
1 5 acceptor
1 6 cation
1 6 donor
1 7 acceptor
4 2 4 5 14 cation
5 6 16 17 20 21 rings
6 4 5 14 15 18 19 rings
6 7 17 20 22 23 24 rings
6 8 9 10 11 12 13 rings

> <PUBCHEM_HEAVY_ATOM_COUNT>
24

> <PUBCHEM_ATOM_DEF_STEREO_COUNT>
0

> <PUBCHEM_ATOM_UDEF_STEREO_COUNT>
0

> <PUBCHEM_BOND_DEF_STEREO_COUNT>
0

> <PUBCHEM_BOND_UDEF_STEREO_COUNT>
0

> <PUBCHEM_ISOTOPIC_ATOM_COUNT>
0

> <PUBCHEM_COMPONENT_COUNT>
1

> <PUBCHEM_CACTVS_TAUTO_COUNT>
16

> <PUBCHEM_CONFORMER_ID>
02F8598100000001

> <PUBCHEM_MMFF94_ENERGY>
44.9559

> <PUBCHEM_FEATURE_SELFOVERLAP>
61.009

> <PUBCHEM_SHAPE_FINGERPRINT>
10616163 171 17761779468477072554
1100329 8 18122623018777903056
114674 6 18263923413572379883
11578080 2 17915439636994696656
11991303 11 17177144281255983620
12107183 9 18271260313885774145
12553582 1 18339358569881462287
12788726 201 17830451674655118913
13004483 165 18048877394686000889
13140716 1 18049723211174571512
13533116 47 18127411383701589727
13692114 37 17262707189022133816
138480 1 18410573998073536241
13911987 19 17971219103786902980
14767858 380 18262820544045005052
14787075 74 18410019849262478636
14844126 61 17687459070681780058
14863182 85 18193274328511644844
15537594 2 18339378382760842515
19319366 153 18261398905222361158
19427546 62 17472977776039793813
20028762 73 18055349395284097886
20291156 8 18339642239681361251
20645477 70 18119517976455684181
20715895 44 11929875945523472134
20775438 99 17760597691436659037
21133410 38 17404888311098790755
2255824 54 18268148836642235533
229767 44 15956375714681088891
23379529 103 17839472085377812830
235170 7 16660368073523728415
23559900 14 18339069480518774449
23598288 3 18049728412443400301
23728640 28 17329986898131130840
238 59 18190463946541045091
314173 41 18411986840698253853
4283 87 18340766026659765559
46194498 28 17386008433522353895
463206 1 18335147470512468195
5265222 85 16177642534762080438
7097593 13 18413113844659897121
7970288 3 18341050731230934615
9777508 108 16468113311546819857

> <PUBCHEM_SHAPE_MULTIPOLES>
465.89
8.83
5.86
1.05
10.96
4.58
0.06
-7.91
1.51
-5.32
-1.27
0.39
-0.47
-1.05

> <PUBCHEM_SHAPE_SELFOVERLAP>
1011.978

> <PUBCHEM_SHAPE_VOLUME>
254.1

> <PUBCHEM_COORDINATE_TYPE>
2
5
10

$$$$
