24905289
  -OEChem-10052115163D

 41 43  0     1  0  0  0  0  0999 V2000
   -4.1667    0.7941   -2.0433 O   0  0  0  0  0  0  0  0  0  0  0  0
    2.0542    0.7223    0.3129 N   0  0  0  0  0  0  0  0  0  0  0  0
    0.7981    1.1991    0.3945 N   0  0  0  0  0  0  0  0  0  0  0  0
    3.2210   -1.3749   -0.0076 N   0  0  0  0  0  0  0  0  0  0  0  0
    1.6698   -3.2392   -0.2697 N   0  0  0  0  0  0  0  0  0  0  0  0
   -0.7003   -2.9633   -0.2092 N   0  0  0  0  0  0  0  0  0  0  0  0
    3.2279    1.6779    0.4438 C   0  0  1  0  0  0  0  0  0  0  0  0
    3.2476    2.7671   -0.6480 C   0  0  0  0  0  0  0  0  0  0  0  0
    2.1141   -0.6249    0.1132 C   0  0  0  0  0  0  0  0  0  0  0  0
    0.8021   -1.0618    0.0601 C   0  0  0  0  0  0  0  0  0  0  0  0
    0.0402    0.1077    0.2398 C   0  0  0  0  0  0  0  0  0  0  0  0
    3.2450    2.3196    1.8365 C   0  0  0  0  0  0  0  0  0  0  0  0
   -1.3960    0.2230    0.2696 C   0  0  0  0  0  0  0  0  0  0  0  0
    3.3332    2.1980   -2.0591 C   0  0  0  0  0  0  0  0  0  0  0  0
    0.5965   -2.4229   -0.1394 C   0  0  0  0  0  0  0  0  0  0  0  0
   -2.1020    0.4559   -0.9106 C   0  0  0  0  0  0  0  0  0  0  0  0
   -2.0801    0.1021    1.4793 C   0  0  0  0  0  0  0  0  0  0  0  0
   -3.4921    0.5677   -0.8814 C   0  0  0  0  0  0  0  0  0  0  0  0
   -4.1762    0.4469    0.3283 C   0  0  0  0  0  0  0  0  0  0  0  0
    2.8978   -2.6725   -0.1967 C   0  0  0  0  0  0  0  0  0  0  0  0
   -3.4701    0.2143    1.5085 C   0  0  0  0  0  0  0  0  0  0  0  0
   -5.6639    0.5639    0.3786 C   0  0  0  0  0  0  0  0  0  0  0  0
    4.1196    1.0478    0.3398 H   0  0  0  0  0  0  0  0  0  0  0  0
    4.1109    3.4240   -0.4859 H   0  0  0  0  0  0  0  0  0  0  0  0
    2.3511    3.3946   -0.5743 H   0  0  0  0  0  0  0  0  0  0  0  0
    4.1449    2.9284    1.9719 H   0  0  0  0  0  0  0  0  0  0  0  0
    2.3721    2.9628    1.9926 H   0  0  0  0  0  0  0  0  0  0  0  0
    3.2352    1.5512    2.6172 H   0  0  0  0  0  0  0  0  0  0  0  0
    2.4444    1.6112   -2.3097 H   0  0  0  0  0  0  0  0  0  0  0  0
    4.2135    1.5569   -2.1695 H   0  0  0  0  0  0  0  0  0  0  0  0
    3.4122    3.0111   -2.7877 H   0  0  0  0  0  0  0  0  0  0  0  0
   -1.5701    0.5499   -1.8552 H   0  0  0  0  0  0  0  0  0  0  0  0
   -1.5445   -0.0799    2.4080 H   0  0  0  0  0  0  0  0  0  0  0  0
   -3.9878    0.1174    2.4592 H   0  0  0  0  0  0  0  0  0  0  0  0
    3.7346   -3.3543   -0.3050 H   0  0  0  0  0  0  0  0  0  0  0  0
   -1.5188   -2.3801   -0.1161 H   0  0  0  0  0  0  0  0  0  0  0  0
   -0.8051   -3.9583   -0.3559 H   0  0  0  0  0  0  0  0  0  0  0  0
   -5.9803    1.5481    0.0177 H   0  0  0  0  0  0  0  0  0  0  0  0
   -6.1273   -0.2117   -0.2401 H   0  0  0  0  0  0  0  0  0  0  0  0
   -6.0495    0.4469    1.3971 H   0  0  0  0  0  0  0  0  0  0  0  0
   -3.5292    0.8483   -2.7758 H   0  0  0  0  0  0  0  0  0  0  0  0
  1 18  1  0  0  0  0
  1 41  1  0  0  0  0
  2  3  1  0  0  0  0
  2  7  1  0  0  0  0
  2  9  1  0  0  0  0
  3 11  2  0  0  0  0
  4  9  2  0  0  0  0
  4 20  1  0  0  0  0
  5 15  1  0  0  0  0
  5 20  2  0  0  0  0
  6 15  1  0  0  0  0
  6 36  1  0  0  0  0
  6 37  1  0  0  0  0
  7  8  1  0  0  0  0
  7 12  1  0  0  0  0
  7 23  1  0  0  0  0
  8 14  1  0  0  0  0
  8 24  1  0  0  0  0
  8 25  1  0  0  0  0
  9 10  1  0  0  0  0
 10 11  1  0  0  0  0
 10 15  2  0  0  0  0
 11 13  1  0  0  0  0
 12 26  1  0  0  0  0
 12 27  1  0  0  0  0
 12 28  1  0  0  0  0
 13 16  2  0  0  0  0
 13 17  1  0  0  0  0
 14 29  1  0  0  0  0
 14 30  1  0  0  0  0
 14 31  1  0  0  0  0
 16 18  1  0  0  0  0
 16 32  1  0  0  0  0
 17 21  2  0  0  0  0
 17 33  1  0  0  0  0
 18 19  2  0  0  0  0
 19 21  1  0  0  0  0
 19 22  1  0  0  0  0
 20 35  1  0  0  0  0
 21 34  1  0  0  0  0
 22 38  1  0  0  0  0
 22 39  1  0  0  0  0
 22 40  1  0  0  0  0
M  END
> <PUBCHEM_COMPOUND_CID>
24905289

> <PUBCHEM_CONFORMER_RMSD>
0.6

> <PUBCHEM_CONFORMER_DIVERSEORDER>
1
6
23
5
18
16
10
19
24
13
14
22
3
9
25
20
8
15
7
2
21
17
11
12
4

> <PUBCHEM_MMFF94_PARTIAL_CHARGES>
25
1 -0.53
11 0.23
13 0.05
15 0.41
16 -0.15
17 -0.15
18 0.08
19 -0.14
2 0.31
20 0.47
21 -0.15
22 0.14
3 -0.71
32 0.15
33 0.15
34 0.15
35 0.15
36 0.4
37 0.4
4 -0.57
41 0.45
5 -0.62
6 -0.9
7 0.26
9 0.11

> <PUBCHEM_EFFECTIVE_ROTOR_COUNT>
3

> <PUBCHEM_PHARMACOPHORE_FEATURES>
10
1 1 donor
1 14 hydrophobe
1 3 acceptor
1 6 cation
1 6 donor
3 2 4 9 cation
3 4 5 20 cation
5 2 3 9 10 11 rings
6 13 16 17 18 19 21 rings
6 4 5 9 10 15 20 rings

> <PUBCHEM_HEAVY_ATOM_COUNT>
22

> <PUBCHEM_ATOM_DEF_STEREO_COUNT>
0

> <PUBCHEM_ATOM_UDEF_STEREO_COUNT>
1

> <PUBCHEM_BOND_DEF_STEREO_COUNT>
0

> <PUBCHEM_BOND_UDEF_STEREO_COUNT>
0

> <PUBCHEM_ISOTOPIC_ATOM_COUNT>
0

> <PUBCHEM_COMPONENT_COUNT>
1

> <PUBCHEM_CACTVS_TAUTO_COUNT>
15

> <PUBCHEM_CONFORMER_ID>
017C064900000001

> <PUBCHEM_MMFF94_ENERGY>
50.9012

> <PUBCHEM_FEATURE_SELFOVERLAP>
51.025

> <PUBCHEM_SHAPE_FINGERPRINT>
10165383 225 18265350558328098668
11582403 64 17319246061424152073
11725454 13 17243819542325996077
12160290 23 17764310943792203130
12236239 1 17417525818273619675
12730499 353 18338528520581195929
12895836 83 17827942924603464596
13134695 92 18119246164786371302
13140716 1 18340481261901636818
13533116 47 18343027662422831915
13836976 161 18411704274741925206
13965767 371 18044639018375257240
15342168 16 18336271248911071301
15502722 9 18409735044915739740
15961568 22 16950855811445439741
16945 1 18341051800946160314
17134986 127 18263655133289408836
1813 80 17699301970781177942
18186145 218 18342461451756003692
19784866 34 18201151173666961321
200 152 18058160632037040115
204376 136 18338799038711485257
20645477 70 18336546032212371979
21065201 7 16805891693345318059
2255824 54 18271528598168585510
23557571 272 17313391076396874293
23559900 14 18040998397297622098
2748010 2 18267594674687728538
283562 15 17618229408410037562
312423 11 18058744493943704145
350125 39 18267030642465904138
3729539 64 18047790094435945934
4340502 62 18271242819966681107
458136 41 18338815488451923218
469060 322 17903358457143193651
474 4 18272928353627025976
495365 180 18411133628175344185
5281201 14 18188491268299518565
633830 44 17845950639494772649
7364860 26 18343018853049398618
7471813 234 17845079671713789064
7615 1 17775002328488231465
77492 1 17489583420859186723
81228 2 17331402481219179298
8272917 22 18341900645407857889
84936 182 18060412525765357328

> <PUBCHEM_SHAPE_MULTIPOLES>
421.98
8.76
3.24
1.47
8.98
2.17
-0.21
-4.87
-0.52
-4.8
-0.47
0.13
-1.07
0.19

> <PUBCHEM_SHAPE_SELFOVERLAP>
914.474

> <PUBCHEM_SHAPE_VOLUME>
231.8

> <PUBCHEM_COORDINATE_TYPE>
2
5
10

$$$$
