24905178
  -OEChem-10052115143D

 42 44  0     0  0  0  0  0  0999 V2000
    1.5643    0.4362    1.6651 O   0  0  0  0  0  0  0  0  0  0  0  0
    4.2620    0.3172    1.1075 O   0  0  0  0  0  0  0  0  0  0  0  0
   -2.2757    0.9693   -0.1643 N   0  0  0  0  0  0  0  0  0  0  0  0
   -1.0022    1.2916   -0.4582 N   0  0  0  0  0  0  0  0  0  0  0  0
   -3.6105   -0.9692    0.4039 N   0  0  0  0  0  0  0  0  0  0  0  0
   -2.2633   -3.0015    0.4789 N   0  0  0  0  0  0  0  0  0  0  0  0
    0.0822   -3.0112    0.0368 N   0  0  0  0  0  0  0  0  0  0  0  0
   -3.2841    2.0021   -0.1409 C   0  0  0  0  0  0  0  0  0  0  0  0
   -2.4581   -0.3583    0.0860 C   0  0  0  0  0  0  0  0  0  0  0  0
   -1.2139   -0.9479   -0.0540 C   0  0  0  0  0  0  0  0  0  0  0  0
   -0.3608    0.1199   -0.3894 C   0  0  0  0  0  0  0  0  0  0  0  0
    1.0557    0.0626   -0.6490 C   0  0  0  0  0  0  0  0  0  0  0  0
   -3.4522    2.6562   -1.5147 C   0  0  0  0  0  0  0  0  0  0  0  0
   -2.9880    3.0539    0.9310 C   0  0  0  0  0  0  0  0  0  0  0  0
   -1.1377   -2.3209    0.1548 C   0  0  0  0  0  0  0  0  0  0  0  0
    1.9808    0.2230    0.3827 C   0  0  0  0  0  0  0  0  0  0  0  0
    1.4974   -0.1565   -1.9540 C   0  0  0  0  0  0  0  0  0  0  0  0
    3.3473    0.1639    0.1097 C   0  0  0  0  0  0  0  0  0  0  0  0
   -3.4134   -2.2934    0.5818 C   0  0  0  0  0  0  0  0  0  0  0  0
    2.8641   -0.2152   -2.2272 C   0  0  0  0  0  0  0  0  0  0  0  0
    3.7889   -0.0554   -1.1952 C   0  0  0  0  0  0  0  0  0  0  0  0
    1.3785    1.7908    2.0666 C   0  0  0  0  0  0  0  0  0  0  0  0
    5.6386    0.2429    0.7419 C   0  0  0  0  0  0  0  0  0  0  0  0
   -4.2363    1.5234    0.1176 H   0  0  0  0  0  0  0  0  0  0  0  0
   -2.5460    3.1892   -1.8233 H   0  0  0  0  0  0  0  0  0  0  0  0
   -4.2775    3.3758   -1.5017 H   0  0  0  0  0  0  0  0  0  0  0  0
   -3.6724    1.9038   -2.2801 H   0  0  0  0  0  0  0  0  0  0  0  0
   -2.0637    3.6018    0.7168 H   0  0  0  0  0  0  0  0  0  0  0  0
   -2.8760    2.5860    1.9155 H   0  0  0  0  0  0  0  0  0  0  0  0
   -3.8036    3.7820    0.9941 H   0  0  0  0  0  0  0  0  0  0  0  0
    0.7902   -0.2840   -2.7703 H   0  0  0  0  0  0  0  0  0  0  0  0
   -4.2951   -2.8689    0.8426 H   0  0  0  0  0  0  0  0  0  0  0  0
    3.2068   -0.3861   -3.2436 H   0  0  0  0  0  0  0  0  0  0  0  0
    4.8332   -0.1136   -1.4819 H   0  0  0  0  0  0  0  0  0  0  0  0
    0.9372   -2.5311   -0.2024 H   0  0  0  0  0  0  0  0  0  0  0  0
    0.0934   -4.0095    0.1979 H   0  0  0  0  0  0  0  0  0  0  0  0
    0.7476    1.8001    2.9596 H   0  0  0  0  0  0  0  0  0  0  0  0
    0.8928    2.3882    1.2893 H   0  0  0  0  0  0  0  0  0  0  0  0
    2.3460    2.2357    2.3184 H   0  0  0  0  0  0  0  0  0  0  0  0
    6.2229    0.3868    1.6568 H   0  0  0  0  0  0  0  0  0  0  0  0
    5.9184    1.0501    0.0564 H   0  0  0  0  0  0  0  0  0  0  0  0
    5.8998   -0.7463    0.3508 H   0  0  0  0  0  0  0  0  0  0  0  0
  1 16  1  0  0  0  0
  1 22  1  0  0  0  0
  2 18  1  0  0  0  0
  2 23  1  0  0  0  0
  3  4  1  0  0  0  0
  3  8  1  0  0  0  0
  3  9  1  0  0  0  0
  4 11  2  0  0  0  0
  5  9  2  0  0  0  0
  5 19  1  0  0  0  0
  6 15  1  0  0  0  0
  6 19  2  0  0  0  0
  7 15  1  0  0  0  0
  7 35  1  0  0  0  0
  7 36  1  0  0  0  0
  8 13  1  0  0  0  0
  8 14  1  0  0  0  0
  8 24  1  0  0  0  0
  9 10  1  0  0  0  0
 10 11  1  0  0  0  0
 10 15  2  0  0  0  0
 11 12  1  0  0  0  0
 12 16  2  0  0  0  0
 12 17  1  0  0  0  0
 13 25  1  0  0  0  0
 13 26  1  0  0  0  0
 13 27  1  0  0  0  0
 14 28  1  0  0  0  0
 14 29  1  0  0  0  0
 14 30  1  0  0  0  0
 16 18  1  0  0  0  0
 17 20  2  0  0  0  0
 17 31  1  0  0  0  0
 18 21  2  0  0  0  0
 19 32  1  0  0  0  0
 20 21  1  0  0  0  0
 20 33  1  0  0  0  0
 21 34  1  0  0  0  0
 22 37  1  0  0  0  0
 22 38  1  0  0  0  0
 22 39  1  0  0  0  0
 23 40  1  0  0  0  0
 23 41  1  0  0  0  0
 23 42  1  0  0  0  0
M  END
> <PUBCHEM_COMPOUND_CID>
24905178

> <PUBCHEM_CONFORMER_RMSD>
0.6

> <PUBCHEM_CONFORMER_DIVERSEORDER>
1
12
15
20
8
10
6
4
16
3
18
5
7
17
11
2
19
13
9
14

> <PUBCHEM_MMFF94_PARTIAL_CHARGES>
26
1 -0.36
11 0.23
12 0.05
15 0.41
16 0.08
17 -0.15
18 0.08
19 0.47
2 -0.36
20 -0.15
21 -0.15
22 0.28
23 0.28
3 0.31
31 0.15
32 0.15
33 0.15
34 0.15
35 0.4
36 0.4
4 -0.71
5 -0.57
6 -0.62
7 -0.9
8 0.26
9 0.11

> <PUBCHEM_EFFECTIVE_ROTOR_COUNT>
4

> <PUBCHEM_PHARMACOPHORE_FEATURES>
11
1 1 acceptor
1 2 acceptor
1 4 acceptor
1 7 cation
1 7 donor
3 3 5 9 cation
3 5 6 19 cation
3 8 13 14 hydrophobe
5 3 4 9 10 11 rings
6 12 16 17 18 20 21 rings
6 5 6 9 10 15 19 rings

> <PUBCHEM_HEAVY_ATOM_COUNT>
23

> <PUBCHEM_ATOM_DEF_STEREO_COUNT>
0

> <PUBCHEM_ATOM_UDEF_STEREO_COUNT>
0

> <PUBCHEM_BOND_DEF_STEREO_COUNT>
0

> <PUBCHEM_BOND_UDEF_STEREO_COUNT>
0

> <PUBCHEM_ISOTOPIC_ATOM_COUNT>
0

> <PUBCHEM_COMPONENT_COUNT>
1

> <PUBCHEM_CACTVS_TAUTO_COUNT>
5

> <PUBCHEM_CONFORMER_ID>
017C05DA00000001

> <PUBCHEM_MMFF94_ENERGY>
76.8143

> <PUBCHEM_FEATURE_SELFOVERLAP>
56.105

> <PUBCHEM_SHAPE_FINGERPRINT>
10165383 225 18049749342093717061
10319926 262 18339907278662080840
11582403 64 16836783575880976121
11725454 13 17701226206213075440
12236239 1 17313385660068560910
12422481 6 17607502675974356514
12500047 106 18336537240192718812
12633257 1 17773045365131296394
12714826 92 18340504351091639339
12716301 132 18411972563957858883
12788726 201 18044394921965582471
13009979 54 17750521860914915566
13140716 1 18120665879506377731
13464514 151 17771628953493906129
13583140 156 18200861951217627058
13965767 371 17679865899141528636
14178342 30 18334863787716429670
15042514 8 18191310570859111411
15375358 24 17846775179263939356
15842332 3 17458924728724400182
16752209 62 18187638137718499703
16945 1 18336276720809974823
18219364 16 17132112480906012636
19049666 15 18131080285518403046
200 152 15792002420047033398
20510252 161 18341058492457487873
20600515 1 18048033262071698375
20645477 70 16701744843844950060
22112679 90 17603868922607995028
22182313 1 17703803513440603060
23175994 123 17489325082855507708
23402539 116 18340477976167155351
23526113 38 17846213289792874368
23557571 272 18343033202593429756
23559900 14 18270412573108819494
23598291 2 17240490212447859110
5265222 85 18339653356138476766
57527295 17 17486783982217896399
6049 1 18130513027718169073
7615 1 17604439599244485844
77492 1 17313392257133001046
81228 2 18337399352420518515
84936 182 17692521222654306137
9862522 239 17604985919142682805

> <PUBCHEM_SHAPE_MULTIPOLES>
436.69
8.14
3.04
1.65
6.49
0.74
0.33
-2.2
-0.64
-4.9
-0.63
1.32
-0.71
1.31

> <PUBCHEM_SHAPE_SELFOVERLAP>
949.43

> <PUBCHEM_SHAPE_VOLUME>
238.4

> <PUBCHEM_COORDINATE_TYPE>
2
5
10

$$$$
