53357848
  -OEChem-10052115173D

 58 63  0     0  0  0  0  0  0999 V2000
   -7.3752    3.1268   -0.6853 S   0  0  0  0  0  0  0  0  0  0  0  0
   -2.4700   -1.1967   -2.0620 F   0  0  0  0  0  0  0  0  0  0  0  0
    9.6308    3.3614    1.3421 F   0  0  0  0  0  0  0  0  0  0  0  0
   -3.6103   -0.0794    0.1797 O   0  0  0  0  0  0  0  0  0  0  0  0
    4.3645    0.5567   -0.5084 O   0  0  0  0  0  0  0  0  0  0  0  0
    2.1753   -2.0160   -2.1378 O   0  0  0  0  0  0  0  0  0  0  0  0
    6.2305   -0.8292   -0.0749 N   0  0  0  0  0  0  0  0  0  0  0  0
    1.8626   -1.0830    0.0017 N   0  0  0  0  0  0  0  0  0  0  0  0
   -4.8191    3.6933   -1.1786 N   0  0  0  0  0  0  0  0  0  0  0  0
   -3.1221    2.0284   -0.7022 N   0  0  0  0  0  0  0  0  0  0  0  0
   -5.4062    1.5129   -0.2578 C   0  0  0  0  0  0  0  0  0  0  0  0
   -6.5948    0.8232    0.1394 C   0  0  0  0  0  0  0  0  0  0  0  0
   -6.7051   -0.5097    0.6758 C   0  0  0  0  0  0  0  0  0  0  0  0
   -5.7062    2.7851   -0.7272 C   0  0  0  0  0  0  0  0  0  0  0  0
   -4.0537    1.1566   -0.2603 C   0  0  0  0  0  0  0  0  0  0  0  0
   -7.7304    1.5829   -0.0400 C   0  0  0  0  0  0  0  0  0  0  0  0
    4.0181   -1.7498   -0.7259 C   0  0  0  0  0  0  0  0  0  0  0  0
    7.1145    0.2602    0.2932 C   0  0  0  0  0  0  0  0  0  0  0  0
    4.8774   -0.5586   -0.4108 C   0  0  0  0  0  0  0  0  0  0  0  0
    0.4703   -0.8271    0.0457 C   0  0  0  0  0  0  0  0  0  0  0  0
   -2.2723   -0.3243    0.1349 C   0  0  0  0  0  0  0  0  0  0  0  0
   -6.8764   -1.5947   -0.1839 C   0  0  0  0  0  0  0  0  0  0  0  0
   -6.6408   -0.7152    2.0539 C   0  0  0  0  0  0  0  0  0  0  0  0
    6.7079   -2.1394   -0.1241 C   0  0  0  0  0  0  0  0  0  0  0  0
    2.5904   -1.6368   -1.0432 C   0  0  0  0  0  0  0  0  0  0  0  0
    4.5461   -2.9789   -0.7446 C   0  0  0  0  0  0  0  0  0  0  0  0
   -0.3324   -1.1418   -1.0507 C   0  0  0  0  0  0  0  0  0  0  0  0
   -0.0983   -0.2608    1.1868 C   0  0  0  0  0  0  0  0  0  0  0  0
   -1.7036   -0.8905   -1.0061 C   0  0  0  0  0  0  0  0  0  0  0  0
   -1.4696   -0.0095    1.2314 C   0  0  0  0  0  0  0  0  0  0  0  0
    5.9329   -3.1800   -0.4442 C   0  0  0  0  0  0  0  0  0  0  0  0
    8.4766    0.1818    0.0025 C   0  0  0  0  0  0  0  0  0  0  0  0
    6.6027    1.3859    0.9384 C   0  0  0  0  0  0  0  0  0  0  0  0
   -6.9836   -2.8853    0.3345 C   0  0  0  0  0  0  0  0  0  0  0  0
   -6.7480   -2.0056    2.5724 C   0  0  0  0  0  0  0  0  0  0  0  0
   -3.5574    3.2298   -1.1294 C   0  0  0  0  0  0  0  0  0  0  0  0
   -6.9194   -3.0907    1.7127 C   0  0  0  0  0  0  0  0  0  0  0  0
    9.3268    1.2293    0.3571 C   0  0  0  0  0  0  0  0  0  0  0  0
    7.4528    2.4333    1.2930 C   0  0  0  0  0  0  0  0  0  0  0  0
    8.8148    2.3550    1.0024 C   0  0  0  0  0  0  0  0  0  0  0  0
   -8.7566    1.3151    0.1738 H   0  0  0  0  0  0  0  0  0  0  0  0
   -6.9272   -1.4522   -1.2609 H   0  0  0  0  0  0  0  0  0  0  0  0
   -6.5063    0.1195    2.7379 H   0  0  0  0  0  0  0  0  0  0  0  0
    7.7417   -2.3191    0.1462 H   0  0  0  0  0  0  0  0  0  0  0  0
    3.9541   -3.8596   -0.9725 H   0  0  0  0  0  0  0  0  0  0  0  0
    2.3702   -0.8255    0.8460 H   0  0  0  0  0  0  0  0  0  0  0  0
    0.0360   -1.5817   -1.9667 H   0  0  0  0  0  0  0  0  0  0  0  0
    0.5158   -0.0110    2.0482 H   0  0  0  0  0  0  0  0  0  0  0  0
    6.3263   -4.1899   -0.4581 H   0  0  0  0  0  0  0  0  0  0  0  0
   -1.9060    0.4305    2.1240 H   0  0  0  0  0  0  0  0  0  0  0  0
    8.9114   -0.6589   -0.5297 H   0  0  0  0  0  0  0  0  0  0  0  0
    5.5638    1.4679    1.2402 H   0  0  0  0  0  0  0  0  0  0  0  0
   -7.1164   -3.7302   -0.3348 H   0  0  0  0  0  0  0  0  0  0  0  0
   -6.6976   -2.1657    3.6454 H   0  0  0  0  0  0  0  0  0  0  0  0
   -2.7898    3.9114   -1.4790 H   0  0  0  0  0  0  0  0  0  0  0  0
   -7.0026   -4.0954    2.1165 H   0  0  0  0  0  0  0  0  0  0  0  0
   10.3861    1.1728    0.1241 H   0  0  0  0  0  0  0  0  0  0  0  0
    7.0576    3.3045    1.8071 H   0  0  0  0  0  0  0  0  0  0  0  0
  1 14  1  0  0  0  0
  1 16  1  0  0  0  0
  2 29  1  0  0  0  0
  3 40  1  0  0  0  0
  4 15  1  0  0  0  0
  4 21  1  0  0  0  0
  5 19  2  0  0  0  0
  6 25  2  0  0  0  0
  7 18  1  0  0  0  0
  7 19  1  0  0  0  0
  7 24  1  0  0  0  0
  8 20  1  0  0  0  0
  8 25  1  0  0  0  0
  8 46  1  0  0  0  0
  9 14  2  0  0  0  0
  9 36  1  0  0  0  0
 10 15  1  0  0  0  0
 10 36  2  0  0  0  0
 11 12  1  0  0  0  0
 11 14  1  0  0  0  0
 11 15  2  0  0  0  0
 12 13  1  0  0  0  0
 12 16  2  0  0  0  0
 13 22  2  0  0  0  0
 13 23  1  0  0  0  0
 16 41  1  0  0  0  0
 17 19  1  0  0  0  0
 17 25  1  0  0  0  0
 17 26  2  0  0  0  0
 18 32  2  0  0  0  0
 18 33  1  0  0  0  0
 20 27  2  0  0  0  0
 20 28  1  0  0  0  0
 21 29  2  0  0  0  0
 21 30  1  0  0  0  0
 22 34  1  0  0  0  0
 22 42  1  0  0  0  0
 23 35  2  0  0  0  0
 23 43  1  0  0  0  0
 24 31  2  0  0  0  0
 24 44  1  0  0  0  0
 26 31  1  0  0  0  0
 26 45  1  0  0  0  0
 27 29  1  0  0  0  0
 27 47  1  0  0  0  0
 28 30  2  0  0  0  0
 28 48  1  0  0  0  0
 30 50  1  0  0  0  0
 31 49  1  0  0  0  0
 32 38  1  0  0  0  0
 32 51  1  0  0  0  0
 33 39  2  0  0  0  0
 33 52  1  0  0  0  0
 34 37  2  0  0  0  0
 34 53  1  0  0  0  0
 35 37  1  0  0  0  0
 35 54  1  0  0  0  0
 36 55  1  0  0  0  0
 37 56  1  0  0  0  0
 38 40  2  0  0  0  0
 38 57  1  0  0  0  0
 39 40  1  0  0  0  0
 39 58  1  0  0  0  0
M  END
> <PUBCHEM_COMPOUND_CID>
53357848

> <PUBCHEM_CONFORMER_RMSD>
1

> <PUBCHEM_CONFORMER_DIVERSEORDER>
1
92
113
7
105
84
60
59
26
102
81
47
57
38
100
71
54
91
39
104
30
53
103
31
80
108
15
82
109
70
6
101
28
112
97
94
8
58
107
42
45
33
32
56
75
93
86
77
62
68
18
44
27
67
96
23
46
64
34
66
111
89
22
74
21
35
85
13
17
24
73
72
95
98
52
106
83
2
40
3
65
48
87
25
36
41
49
43
99
55
69
50
61
20
19
37
12
51
10
90
63
4
11
14
110
78
16
29
9
79
76
5
88

> <PUBCHEM_MMFF94_PARTIAL_CHARGES>
57
1 -0.08
10 -0.62
12 -0.05
13 0.05
14 0.3
15 0.39
16 -0.11
17 0.03
18 0.12
19 0.62
2 -0.19
20 0.12
21 0.08
22 -0.15
23 -0.15
24 -0.04
25 0.62
26 -0.15
27 -0.15
28 -0.15
29 0.19
3 -0.19
30 -0.15
31 -0.15
32 -0.15
33 -0.15
34 -0.15
35 -0.15
36 0.47
37 -0.15
38 -0.15
39 -0.15
4 -0.17
40 0.19
41 0.15
42 0.15
43 0.15
44 0.15
45 0.15
46 0.37
47 0.15
48 0.15
49 0.15
5 -0.57
50 0.15
51 0.15
52 0.15
53 0.15
54 0.15
55 0.15
56 0.15
57 0.15
58 0.15
6 -0.57
7 -0.29
8 -0.55
9 -0.57

> <PUBCHEM_EFFECTIVE_ROTOR_COUNT>
7

> <PUBCHEM_PHARMACOPHORE_FEATURES>
12
1 4 acceptor
1 5 acceptor
1 6 acceptor
1 8 donor
1 9 acceptor
3 9 10 36 cation
5 1 11 12 14 16 rings
6 13 22 23 34 35 37 rings
6 18 32 33 38 39 40 rings
6 20 21 27 28 29 30 rings
6 7 17 19 24 26 31 rings
6 9 10 11 14 15 36 rings

> <PUBCHEM_HEAVY_ATOM_COUNT>
40

> <PUBCHEM_ATOM_DEF_STEREO_COUNT>
0

> <PUBCHEM_ATOM_UDEF_STEREO_COUNT>
0

> <PUBCHEM_BOND_DEF_STEREO_COUNT>
0

> <PUBCHEM_BOND_UDEF_STEREO_COUNT>
0

> <PUBCHEM_ISOTOPIC_ATOM_COUNT>
0

> <PUBCHEM_COMPONENT_COUNT>
1

> <PUBCHEM_CACTVS_TAUTO_COUNT>
2

> <PUBCHEM_CONFORMER_ID>
032E2D1800000001

> <PUBCHEM_MMFF94_ENERGY>
135.5324

> <PUBCHEM_FEATURE_SELFOVERLAP>
60.981

> <PUBCHEM_SHAPE_FINGERPRINT>
10 15 18410573968087821566
10055352 69 18201154472834457472
10391435 84 18259983760974382405
10677351 14 18273213080194907111
11135926 11 16845293821697161054
12098696 120 18131350826689929184
12758862 11 18408609137226201627
13008946 282 15068918502994628790
131240 88 18343015636926594064
13782708 43 18411706465513336931
13811026 1 18409167710407266680
14040221 97 18131636711495753454
150020 25 18340208492295743846
15183329 4 16558744594560700577
15419008 91 18334571296248754021
15538507 19 18118970428546221827
17686467 74 18334576867417402833
19304144 158 18411417280737501237
19611394 137 18408611361855619777
21033648 29 18040998424006650006
21130935 74 18187083902133065666
24771293 8 17822012003857359012
2851757 15 18410292511219427482
3418910 222 18335433377700665324
397830 11 18411142428463535399
4073 2 18335987459253040499
4149490 64 18410011023437651146
4169191 19 17561368374615605227
4403749 210 18410290303464163431
44280117 145 18341050800862144223
4918590 53 18339932528105069833
5080951 261 17385997408394844319
5109719 28 18342179968764481962
5265222 85 18413668019900713279
9663363 56 18259986003701964491
9953998 17 18334863780207793153

> <PUBCHEM_SHAPE_MULTIPOLES>
774.95
33.22
4.2
1.58
39.81
1.4
0.39
12.51
10.96
-2.22
-0.27
-1.27
-0.48
7.31

> <PUBCHEM_SHAPE_SELFOVERLAP>
1730.807

> <PUBCHEM_SHAPE_VOLUME>
417.1

> <PUBCHEM_COORDINATE_TYPE>
2
5
10

$$$$
