16727123
  -OEChem-10052120443D

 53 55  0     0  0  0  0  0  0999 V2000
   -4.7049    1.0928   -2.4606 Cl  0  0  0  0  0  0  0  0  0  0  0  0
    1.7880   -4.3467   -1.1335 O   0  5  0  0  0  0  0  0  0  0  0  0
    2.0161   -4.1852    1.0438 O   0  0  0  0  0  0  0  0  0  0  0  0
    1.5722   -1.0917   -0.2464 N   0  0  0  0  0  0  0  0  0  0  0  0
    7.7902    2.5799    1.2111 N   0  0  0  0  0  0  0  0  0  0  0  0
   -0.7423   -0.8771   -0.0192 N   0  0  0  0  0  0  0  0  0  0  0  0
    1.4129   -3.9029   -0.0205 N   0  3  0  0  0  0  0  0  0  0  0  0
   -2.1105   -2.8397    0.2703 N   0  0  0  0  0  0  0  0  0  0  0  0
   -3.0706   -0.6995    0.2119 N   0  0  0  0  0  0  0  0  0  0  0  0
    3.2386    0.6904   -0.5301 C   0  0  0  0  0  0  0  0  0  0  0  0
    5.6094    2.3679    0.1012 C   0  0  0  0  0  0  0  0  0  0  0  0
    3.4075    2.0953   -1.1223 C   0  0  0  0  0  0  0  0  0  0  0  0
    3.9676    0.5751    0.8146 C   0  0  0  0  0  0  0  0  0  0  0  0
    4.8800    2.4837   -1.2434 C   0  0  0  0  0  0  0  0  0  0  0  0
    5.4401    0.9631    0.6934 C   0  0  0  0  0  0  0  0  0  0  0  0
    1.7589    0.3454   -0.3728 C   0  0  0  0  0  0  0  0  0  0  0  0
    7.0893    2.7116   -0.0567 C   0  0  0  0  0  0  0  0  0  0  0  0
    0.3381   -1.6836   -0.0728 C   0  0  0  0  0  0  0  0  0  0  0  0
    0.2752   -3.0578    0.0360 C   0  0  0  0  0  0  0  0  0  0  0  0
   -1.9176   -1.5123    0.1513 C   0  0  0  0  0  0  0  0  0  0  0  0
   -0.9881   -3.5859    0.2079 C   0  0  0  0  0  0  0  0  0  0  0  0
   -3.0218    0.7247    0.1008 C   0  0  0  0  0  0  0  0  0  0  0  0
   -4.3992    1.3117    0.2385 C   0  0  0  0  0  0  0  0  0  0  0  0
   -5.2240    1.5110   -0.8687 C   0  0  0  0  0  0  0  0  0  0  0  0
   -4.8466    1.6595    1.5131 C   0  0  0  0  0  0  0  0  0  0  0  0
   -6.4962    2.0579   -0.7009 C   0  0  0  0  0  0  0  0  0  0  0  0
   -6.1188    2.2066    1.6805 C   0  0  0  0  0  0  0  0  0  0  0  0
   -6.9436    2.4058    0.5736 C   0  0  0  0  0  0  0  0  0  0  0  0
    3.6991   -0.0196   -1.2318 H   0  0  0  0  0  0  0  0  0  0  0  0
    5.1556    3.0890    0.7960 H   0  0  0  0  0  0  0  0  0  0  0  0
    2.9422    2.1429   -2.1142 H   0  0  0  0  0  0  0  0  0  0  0  0
    2.8898    2.8303   -0.4928 H   0  0  0  0  0  0  0  0  0  0  0  0
    3.4868    1.2223    1.5594 H   0  0  0  0  0  0  0  0  0  0  0  0
    3.9003   -0.4509    1.1956 H   0  0  0  0  0  0  0  0  0  0  0  0
    5.3626    1.8381   -1.9883 H   0  0  0  0  0  0  0  0  0  0  0  0
    4.9520    3.5110   -1.6200 H   0  0  0  0  0  0  0  0  0  0  0  0
    5.9557    0.2261    0.0641 H   0  0  0  0  0  0  0  0  0  0  0  0
    5.8890    0.8997    1.6913 H   0  0  0  0  0  0  0  0  0  0  0  0
    1.3355    0.8628    0.4970 H   0  0  0  0  0  0  0  0  0  0  0  0
    1.2079    0.6867   -1.2581 H   0  0  0  0  0  0  0  0  0  0  0  0
    7.5602    2.0486   -0.7913 H   0  0  0  0  0  0  0  0  0  0  0  0
    7.1990    3.7376   -0.4259 H   0  0  0  0  0  0  0  0  0  0  0  0
    2.3298   -1.6791   -0.5779 H   0  0  0  0  0  0  0  0  0  0  0  0
    8.7609    2.8673    1.0937 H   0  0  0  0  0  0  0  0  0  0  0  0
    7.3848    3.2158    1.8967 H   0  0  0  0  0  0  0  0  0  0  0  0
   -1.1501   -4.6554    0.3045 H   0  0  0  0  0  0  0  0  0  0  0  0
   -3.9538   -1.1816    0.3359 H   0  0  0  0  0  0  0  0  0  0  0  0
   -2.3824    1.1394    0.8921 H   0  0  0  0  0  0  0  0  0  0  0  0
   -2.5502    1.0370   -0.8380 H   0  0  0  0  0  0  0  0  0  0  0  0
   -4.2169    1.5081    2.3861 H   0  0  0  0  0  0  0  0  0  0  0  0
   -7.1513    2.2194   -1.5533 H   0  0  0  0  0  0  0  0  0  0  0  0
   -6.4675    2.4767    2.6730 H   0  0  0  0  0  0  0  0  0  0  0  0
   -7.9341    2.8315    0.7042 H   0  0  0  0  0  0  0  0  0  0  0  0
  1 24  1  0  0  0  0
  2  7  1  0  0  0  0
  3  7  2  0  0  0  0
  4 16  1  0  0  0  0
  4 18  1  0  0  0  0
  4 43  1  0  0  0  0
  5 17  1  0  0  0  0
  5 44  1  0  0  0  0
  5 45  1  0  0  0  0
  6 18  2  0  0  0  0
  6 20  1  0  0  0  0
  7 19  1  0  0  0  0
  8 20  2  0  0  0  0
  8 21  1  0  0  0  0
  9 20  1  0  0  0  0
  9 22  1  0  0  0  0
  9 47  1  0  0  0  0
 10 12  1  0  0  0  0
 10 13  1  0  0  0  0
 10 16  1  0  0  0  0
 10 29  1  0  0  0  0
 11 14  1  0  0  0  0
 11 15  1  0  0  0  0
 11 17  1  0  0  0  0
 11 30  1  0  0  0  0
 12 14  1  0  0  0  0
 12 31  1  0  0  0  0
 12 32  1  0  0  0  0
 13 15  1  0  0  0  0
 13 33  1  0  0  0  0
 13 34  1  0  0  0  0
 14 35  1  0  0  0  0
 14 36  1  0  0  0  0
 15 37  1  0  0  0  0
 15 38  1  0  0  0  0
 16 39  1  0  0  0  0
 16 40  1  0  0  0  0
 17 41  1  0  0  0  0
 17 42  1  0  0  0  0
 18 19  1  0  0  0  0
 19 21  2  0  0  0  0
 21 46  1  0  0  0  0
 22 23  1  0  0  0  0
 22 48  1  0  0  0  0
 22 49  1  0  0  0  0
 23 24  1  0  0  0  0
 23 25  2  0  0  0  0
 24 26  2  0  0  0  0
 25 27  1  0  0  0  0
 25 50  1  0  0  0  0
 26 28  1  0  0  0  0
 26 51  1  0  0  0  0
 27 28  2  0  0  0  0
 27 52  1  0  0  0  0
 28 53  1  0  0  0  0
M  CHG  2   2  -1   7   1
M  END
> <PUBCHEM_COMPOUND_CID>
16727123

> <PUBCHEM_CONFORMER_RMSD>
1

> <PUBCHEM_CONFORMER_DIVERSEORDER>
2
136
133
82
88
40
94
58
54
129
125
130
64
84
122
47
115
13
106
25
127
17
99
89
48
86
107
41
39
24
112
77
56
53
118
93
46
12
73
119
131
109
44
101
126
28
32
65
135
78
121
68
20
61
38
100
137
83
35
18
128
29
91
23
69
103
105
52
110
4
7
96
123
98
33
9
71
45
102
8
26
108
50
104
22
97
16
81
116
49
113
43
34
3
117
31
114
111
6
90
5
95
76
42
80
19
55
63
14
132
57
74
66
70
10
62
79
72
87
60
36
51
21
120
30
134
27
124
75
67
92
15
11
85
59
37
1

> <PUBCHEM_MMFF94_PARTIAL_CHARGES>
31
1 -0.18
16 0.37
17 0.27
18 0.41
19 0.13
2 -0.52
20 0.72
21 0.16
22 0.51
23 -0.14
24 0.18
25 -0.15
26 -0.15
27 -0.15
28 -0.15
3 -0.52
4 -0.87
43 0.4
44 0.36
45 0.36
46 0.15
47 0.4
5 -0.99
50 0.15
51 0.15
52 0.15
53 0.15
6 -0.62
7 0.91
8 -0.62
9 -0.87

> <PUBCHEM_EFFECTIVE_ROTOR_COUNT>
9.2

> <PUBCHEM_PHARMACOPHORE_FEATURES>
11
1 2 acceptor
1 2 anion
1 3 acceptor
1 4 donor
1 5 cation
1 5 donor
1 9 donor
4 6 8 9 20 cation
6 10 11 12 13 14 15 rings
6 23 24 25 26 27 28 rings
6 6 8 18 19 20 21 rings

> <PUBCHEM_HEAVY_ATOM_COUNT>
28

> <PUBCHEM_ATOM_DEF_STEREO_COUNT>
0

> <PUBCHEM_ATOM_UDEF_STEREO_COUNT>
0

> <PUBCHEM_BOND_DEF_STEREO_COUNT>
0

> <PUBCHEM_BOND_UDEF_STEREO_COUNT>
0

> <PUBCHEM_ISOTOPIC_ATOM_COUNT>
0

> <PUBCHEM_COMPONENT_COUNT>
1

> <PUBCHEM_CACTVS_TAUTO_COUNT>
6

> <PUBCHEM_CONFORMER_ID>
00FF3C5300000002

> <PUBCHEM_MMFF94_ENERGY>
80.0523

> <PUBCHEM_FEATURE_SELFOVERLAP>
55.902

> <PUBCHEM_SHAPE_FINGERPRINT>
10050765 1 18410576167539267371
10319926 262 15792017719232446069
10675989 125 18341619170837238264
11135609 187 18410005508720410285
11135609 201 18413674621665575475
12107183 9 18334284350327817986
12128747 34 15648440157497557169
12422481 6 17385439916716479452
13540713 4 18338818752786291571
13540713 5 18340751681601437423
14251764 75 18409171029989998032
14294032 229 18200034083360729515
14849402 71 18194409878914336138
14904385 31 18187644687154029045
15131766 46 18341883058055728237
15439362 3 18339925913855699798
15803439 3 16630528461858952740
19309040 13 18059297570062419045
1979834 28 18041294166432396677
20554085 129 17988348326536713384
21033648 144 18335698283563167703
22311459 1 18122909724677432606
2748736 6 18411978065922423129
283562 15 18193274328775616131
3411729 13 18334859372606282483
5385378 56 18337394842019308872
6058803 2 17754730860952094868
6327066 14 18408880750414785125
9896288 288 18044098088740379282
9981440 41 18335145344456164683

> <PUBCHEM_SHAPE_MULTIPOLES>
536.47
18.91
5.43
1.39
4.1
7.55
0.36
-28.86
-3.02
3.56
-0.2
-1.46
-0.81
-0.4

> <PUBCHEM_SHAPE_SELFOVERLAP>
1116.977

> <PUBCHEM_SHAPE_VOLUME>
303.4

> <PUBCHEM_COORDINATE_TYPE>
2
5
10

$$$$
