10089048
  -OEChem-10062122033D

 47 50  0     0  0  0  0  0  0999 V2000
   -5.5484    0.0223    0.8440 O   0  0  0  0  0  0  0  0  0  0  0  0
    4.9405   -0.7250    0.9805 O   0  0  0  0  0  0  0  0  0  0  0  0
   -4.2296   -1.4463   -0.3697 N   0  0  0  0  0  0  0  0  0  0  0  0
    5.0867   -0.7236   -1.2518 N   0  0  0  0  0  0  0  0  0  0  0  0
    6.3034   -1.1399   -0.7442 N   0  0  0  0  0  0  0  0  0  0  0  0
   -5.1834   -2.5201   -0.4091 C   0  0  0  0  0  0  0  0  0  0  0  0
   -5.2914   -3.4872    0.7236 C   0  0  0  0  0  0  0  0  0  0  0  0
   -4.7335   -3.9320   -0.5965 C   0  0  0  0  0  0  0  0  0  0  0  0
   -4.4753   -0.2224    0.2646 C   0  0  0  0  0  0  0  0  0  0  0  0
   -3.4054    0.7625    0.2398 C   0  0  0  0  0  0  0  0  0  0  0  0
   -2.0771    0.3483    0.1404 C   0  0  0  0  0  0  0  0  0  0  0  0
   -1.0519    1.2937    0.1172 C   0  0  0  0  0  0  0  0  0  0  0  0
   -3.7083    2.1219    0.3160 C   0  0  0  0  0  0  0  0  0  0  0  0
   -1.3545    2.6531    0.1932 C   0  0  0  0  0  0  0  0  0  0  0  0
    0.3202    0.8380    0.0132 C   0  0  0  0  0  0  0  0  0  0  0  0
   -2.6827    3.0672    0.2926 C   0  0  0  0  0  0  0  0  0  0  0  0
    0.9282    0.6622   -1.2298 C   0  0  0  0  0  0  0  0  0  0  0  0
    1.0338    0.5744    1.1824 C   0  0  0  0  0  0  0  0  0  0  0  0
   -0.2826    3.6952    0.1711 C   0  0  0  0  0  0  0  0  0  0  0  0
    2.2499    0.2227   -1.3037 C   0  0  0  0  0  0  0  0  0  0  0  0
    2.9636   -0.0411   -0.1345 C   0  0  0  0  0  0  0  0  0  0  0  0
    2.3555    0.1349    1.1084 C   0  0  0  0  0  0  0  0  0  0  0  0
    0.1941    0.9339   -2.5038 C   0  0  0  0  0  0  0  0  0  0  0  0
    4.3306   -0.4956   -0.2103 C   0  0  0  0  0  0  0  0  0  0  0  0
    6.1721   -1.1252    0.5617 C   0  0  0  0  0  0  0  0  0  0  0  0
    7.1455   -1.4718    1.6047 C   0  0  0  0  0  0  0  0  0  0  0  0
   -6.1040   -2.2375   -0.9095 H   0  0  0  0  0  0  0  0  0  0  0  0
   -6.2793   -3.8363    0.9979 H   0  0  0  0  0  0  0  0  0  0  0  0
   -4.6026   -3.3926    1.5543 H   0  0  0  0  0  0  0  0  0  0  0  0
   -3.6712   -4.1364   -0.6496 H   0  0  0  0  0  0  0  0  0  0  0  0
   -5.3461   -4.5814   -1.2098 H   0  0  0  0  0  0  0  0  0  0  0  0
   -3.3678   -1.5931   -0.8868 H   0  0  0  0  0  0  0  0  0  0  0  0
   -1.8147   -0.7066    0.1107 H   0  0  0  0  0  0  0  0  0  0  0  0
   -4.7370    2.4649    0.3894 H   0  0  0  0  0  0  0  0  0  0  0  0
   -2.9375    4.1221    0.3517 H   0  0  0  0  0  0  0  0  0  0  0  0
    0.5758    0.7063    2.1601 H   0  0  0  0  0  0  0  0  0  0  0  0
    0.2876    3.6529   -0.7619 H   0  0  0  0  0  0  0  0  0  0  0  0
   -0.7000    4.7059    0.2432 H   0  0  0  0  0  0  0  0  0  0  0  0
    0.3969    3.5707    1.0205 H   0  0  0  0  0  0  0  0  0  0  0  0
    2.7207    0.0867   -2.2751 H   0  0  0  0  0  0  0  0  0  0  0  0
    2.8789   -0.0600    2.0410 H   0  0  0  0  0  0  0  0  0  0  0  0
    0.8204    0.7394   -3.3817 H   0  0  0  0  0  0  0  0  0  0  0  0
   -0.6843    0.2861   -2.5906 H   0  0  0  0  0  0  0  0  0  0  0  0
   -0.1176    1.9812   -2.5620 H   0  0  0  0  0  0  0  0  0  0  0  0
    7.3341   -0.6131    2.2559 H   0  0  0  0  0  0  0  0  0  0  0  0
    6.7740   -2.2975    2.2188 H   0  0  0  0  0  0  0  0  0  0  0  0
    8.0973   -1.7785    1.1607 H   0  0  0  0  0  0  0  0  0  0  0  0
  1  9  2  0  0  0  0
  2 24  1  0  0  0  0
  2 25  1  0  0  0  0
  3  6  1  0  0  0  0
  3  9  1  0  0  0  0
  3 32  1  0  0  0  0
  4  5  1  0  0  0  0
  4 24  2  0  0  0  0
  5 25  2  0  0  0  0
  6  7  1  0  0  0  0
  6  8  1  0  0  0  0
  6 27  1  0  0  0  0
  7  8  1  0  0  0  0
  7 28  1  0  0  0  0
  7 29  1  0  0  0  0
  8 30  1  0  0  0  0
  8 31  1  0  0  0  0
  9 10  1  0  0  0  0
 10 11  2  0  0  0  0
 10 13  1  0  0  0  0
 11 12  1  0  0  0  0
 11 33  1  0  0  0  0
 12 14  2  0  0  0  0
 12 15  1  0  0  0  0
 13 16  2  0  0  0  0
 13 34  1  0  0  0  0
 14 16  1  0  0  0  0
 14 19  1  0  0  0  0
 15 17  2  0  0  0  0
 15 18  1  0  0  0  0
 16 35  1  0  0  0  0
 17 20  1  0  0  0  0
 17 23  1  0  0  0  0
 18 22  2  0  0  0  0
 18 36  1  0  0  0  0
 19 37  1  0  0  0  0
 19 38  1  0  0  0  0
 19 39  1  0  0  0  0
 20 21  2  0  0  0  0
 20 40  1  0  0  0  0
 21 22  1  0  0  0  0
 21 24  1  0  0  0  0
 22 41  1  0  0  0  0
 23 42  1  0  0  0  0
 23 43  1  0  0  0  0
 23 44  1  0  0  0  0
 25 26  1  0  0  0  0
 26 45  1  0  0  0  0
 26 46  1  0  0  0  0
 26 47  1  0  0  0  0
M  END
> <PUBCHEM_COMPOUND_CID>
10089048

> <PUBCHEM_CONFORMER_RMSD>
0.8

> <PUBCHEM_CONFORMER_DIVERSEORDER>
1
6
13
12
15
10
2
8
7
4
16
11
14
9
3
5

> <PUBCHEM_MMFF94_PARTIAL_CHARGES>
36
1 -0.57
10 0.09
11 -0.15
13 -0.15
14 -0.14
16 -0.15
17 -0.14
18 -0.15
19 0.14
2 -0.28
20 -0.15
21 0.05
22 -0.15
23 0.14
24 0.43
25 0.3
26 0.18
27 0.1
28 0.1
29 0.1
3 -0.58
30 0.1
31 0.1
32 0.37
33 0.15
34 0.15
35 0.15
36 0.15
4 -0.34
40 0.15
41 0.15
5 -0.34
6 0.05
7 -0.2
8 -0.2
9 0.54

> <PUBCHEM_EFFECTIVE_ROTOR_COUNT>
5.6

> <PUBCHEM_PHARMACOPHORE_FEATURES>
5
1 1 acceptor
1 3 donor
5 2 4 5 24 25 rings
6 10 11 12 13 14 16 rings
6 15 17 18 20 21 22 rings

> <PUBCHEM_HEAVY_ATOM_COUNT>
26

> <PUBCHEM_ATOM_DEF_STEREO_COUNT>
0

> <PUBCHEM_ATOM_UDEF_STEREO_COUNT>
0

> <PUBCHEM_BOND_DEF_STEREO_COUNT>
0

> <PUBCHEM_BOND_UDEF_STEREO_COUNT>
0

> <PUBCHEM_ISOTOPIC_ATOM_COUNT>
0

> <PUBCHEM_COMPONENT_COUNT>
1

> <PUBCHEM_CACTVS_TAUTO_COUNT>
2

> <PUBCHEM_CONFORMER_ID>
0099F25800000001

> <PUBCHEM_MMFF94_ENERGY>
70.7169

> <PUBCHEM_FEATURE_SELFOVERLAP>
25.373

> <PUBCHEM_SHAPE_FINGERPRINT>
10 15 17774989169356971122
10042902 136 18337110171935206559
11088757 655 18339070609472772242
11796584 16 18340770329974136574
11809386 21 18334010588579809099
11963148 33 17835515303589973526
12166972 35 17895195570964533047
12236239 1 17749399113324190164
12293681 160 12396288258028313333
12422481 6 17131838702326230287
12633257 1 15913048789347391647
13583140 156 17915726601355893680
1361 4 18339642240410173530
13690498 29 18113052749458291405
13782708 43 18130786755112162194
13911987 19 15069210895329505934
14068700 675 18334294287969621365
14844126 61 18337113376392234137
15188451 53 18409722967668345422
15250474 111 18188763929993158818
15519825 34 18189033401179589538
17138139 8 17967807297077067050
17492 89 18052537970391845203
17686467 74 18411411852711430200
18927931 339 18413393116302145101
200 152 17167870720565754500
20028762 73 18410009957753037182
20775438 99 17256514744289299171
21033648 29 16628532711227490096
21054139 6 18113898252256793002
22956985 138 18123181565936828193
2303208 19 17489314040811127270
23402539 116 17458913630471189716
23559900 14 18412536600591468033
23569914 152 13338061663172839482
2838139 119 8646766677614513582
312425 54 17917721153739570515
3504750 166 17826217507554483874
397830 11 18130494328105445384
4015057 19 15719691912850146748
4144715 1 18129949949628158576
4409770 3 18263075532069839725
463206 1 18263368165023653059
5104073 3 18059584654176994457
563151 74 15338574738934192087
6034566 193 11206234622507293263
6673363 416 18270133413468537252
7495541 125 18201720665409416848
7970288 3 18267303312765484863

> <PUBCHEM_SHAPE_MULTIPOLES>
508.39
15.55
3.85
1.39
15.58
0.82
0.55
16.83
-3.55
-7.69
-0.28
1.33
0.04
-1.09

> <PUBCHEM_SHAPE_SELFOVERLAP>
1112.397

> <PUBCHEM_SHAPE_VOLUME>
279.6

> <PUBCHEM_COORDINATE_TYPE>
2
5
10

$$$$
