10110877
  -OEChem-10062121543D

 48 51  0     0  0  0  0  0  0999 V2000
    3.8428   -2.4808    0.9518 O   0  0  0  0  0  0  0  0  0  0  0  0
    5.9767   -1.2724   -0.3569 O   0  0  0  0  0  0  0  0  0  0  0  0
   -3.9456   -1.6349    2.3940 O   0  0  0  0  0  0  0  0  0  0  0  0
   -1.4024    2.4999    0.0388 N   0  0  0  0  0  0  0  0  0  0  0  0
   -2.4789    0.3781    0.0465 N   0  0  0  0  0  0  0  0  0  0  0  0
   -0.1334    0.5361   -0.0383 N   0  0  0  0  0  0  0  0  0  0  0  0
   -0.6375    4.5972    0.0365 N   0  0  0  0  0  0  0  0  0  0  0  0
   -5.6135   -0.7352    1.1027 N   0  0  0  0  0  0  0  0  0  0  0  0
   -1.3127    1.0987    0.0144 C   0  0  0  0  0  0  0  0  0  0  0  0
   -0.2972    3.3260    0.0065 C   0  0  0  0  0  0  0  0  0  0  0  0
    0.9942    1.3384   -0.0659 C   0  0  0  0  0  0  0  0  0  0  0  0
    2.3027    0.6493   -0.1406 C   0  0  0  0  0  0  0  0  0  0  0  0
    0.9598    2.6861   -0.0530 C   0  0  0  0  0  0  0  0  0  0  0  0
   -2.5048    3.3154    0.0935 C   0  0  0  0  0  0  0  0  0  0  0  0
   -2.7337   -0.8751   -0.5123 C   0  0  0  0  0  0  0  0  0  0  0  0
    2.4645   -0.6060    0.4456 C   0  0  0  0  0  0  0  0  0  0  0  0
    3.3737    1.2557   -0.7970 C   0  0  0  0  0  0  0  0  0  0  0  0
   -2.0062    4.5972    0.0905 C   0  0  0  0  0  0  0  0  0  0  0  0
   -3.6638   -1.7576    0.0589 C   0  0  0  0  0  0  0  0  0  0  0  0
    3.6970   -1.2550    0.3753 C   0  0  0  0  0  0  0  0  0  0  0  0
    4.7681   -0.6487   -0.2811 C   0  0  0  0  0  0  0  0  0  0  0  0
    4.6064    0.6067   -0.8673 C   0  0  0  0  0  0  0  0  0  0  0  0
   -2.0503   -1.2714   -1.6722 C   0  0  0  0  0  0  0  0  0  0  0  0
   -3.9044   -3.0057   -0.5158 C   0  0  0  0  0  0  0  0  0  0  0  0
   -2.2909   -2.5194   -2.2471 C   0  0  0  0  0  0  0  0  0  0  0  0
   -3.2180   -3.3865   -1.6689 C   0  0  0  0  0  0  0  0  0  0  0  0
   -4.3973   -1.3893    1.2636 C   0  0  0  0  0  0  0  0  0  0  0  0
    2.6993   -3.0308    1.6030 C   0  0  0  0  0  0  0  0  0  0  0  0
    6.9054   -1.0162    0.6949 C   0  0  0  0  0  0  0  0  0  0  0  0
    1.8417    3.3158   -0.0549 H   0  0  0  0  0  0  0  0  0  0  0  0
   -3.2999    0.8072    0.4637 H   0  0  0  0  0  0  0  0  0  0  0  0
   -3.5174    2.9388    0.1246 H   0  0  0  0  0  0  0  0  0  0  0  0
    1.6093   -1.0352    0.9565 H   0  0  0  0  0  0  0  0  0  0  0  0
    3.2857    2.2181   -1.2932 H   0  0  0  0  0  0  0  0  0  0  0  0
   -2.5668    5.5200    0.1234 H   0  0  0  0  0  0  0  0  0  0  0  0
    5.4349    1.0814   -1.3863 H   0  0  0  0  0  0  0  0  0  0  0  0
   -1.3369   -0.6118   -2.1598 H   0  0  0  0  0  0  0  0  0  0  0  0
   -4.6243   -3.6905   -0.0749 H   0  0  0  0  0  0  0  0  0  0  0  0
   -1.7601   -2.8144   -3.1475 H   0  0  0  0  0  0  0  0  0  0  0  0
   -3.4061   -4.3577   -2.1172 H   0  0  0  0  0  0  0  0  0  0  0  0
    1.8796   -3.2102    0.8987 H   0  0  0  0  0  0  0  0  0  0  0  0
    2.3901   -2.4219    2.4595 H   0  0  0  0  0  0  0  0  0  0  0  0
    2.9946   -4.0078    1.9999 H   0  0  0  0  0  0  0  0  0  0  0  0
    6.4943   -1.3339    1.6582 H   0  0  0  0  0  0  0  0  0  0  0  0
    7.1628    0.0472    0.7283 H   0  0  0  0  0  0  0  0  0  0  0  0
    7.8147   -1.5901    0.4964 H   0  0  0  0  0  0  0  0  0  0  0  0
   -5.9926   -0.5195    0.1861 H   0  0  0  0  0  0  0  0  0  0  0  0
   -6.1628   -0.4498    1.9064 H   0  0  0  0  0  0  0  0  0  0  0  0
  1 20  1  0  0  0  0
  1 28  1  0  0  0  0
  2 21  1  0  0  0  0
  2 29  1  0  0  0  0
  3 27  2  0  0  0  0
  4  9  1  0  0  0  0
  4 10  1  0  0  0  0
  4 14  1  0  0  0  0
  5  9  1  0  0  0  0
  5 15  1  0  0  0  0
  5 31  1  0  0  0  0
  6  9  2  0  0  0  0
  6 11  1  0  0  0  0
  7 10  2  0  0  0  0
  7 18  1  0  0  0  0
  8 27  1  0  0  0  0
  8 47  1  0  0  0  0
  8 48  1  0  0  0  0
 10 13  1  0  0  0  0
 11 12  1  0  0  0  0
 11 13  2  0  0  0  0
 12 16  2  0  0  0  0
 12 17  1  0  0  0  0
 13 30  1  0  0  0  0
 14 18  2  0  0  0  0
 14 32  1  0  0  0  0
 15 19  1  0  0  0  0
 15 23  2  0  0  0  0
 16 20  1  0  0  0  0
 16 33  1  0  0  0  0
 17 22  2  0  0  0  0
 17 34  1  0  0  0  0
 18 35  1  0  0  0  0
 19 24  2  0  0  0  0
 19 27  1  0  0  0  0
 20 21  2  0  0  0  0
 21 22  1  0  0  0  0
 22 36  1  0  0  0  0
 23 25  1  0  0  0  0
 23 37  1  0  0  0  0
 24 26  1  0  0  0  0
 24 38  1  0  0  0  0
 25 26  2  0  0  0  0
 25 39  1  0  0  0  0
 26 40  1  0  0  0  0
 28 41  1  0  0  0  0
 28 42  1  0  0  0  0
 28 43  1  0  0  0  0
 29 44  1  0  0  0  0
 29 45  1  0  0  0  0
 29 46  1  0  0  0  0
M  END
> <PUBCHEM_COMPOUND_CID>
10110877

> <PUBCHEM_CONFORMER_RMSD>
0.8

> <PUBCHEM_CONFORMER_DIVERSEORDER>
99
139
92
114
83
48
123
81
22
127
105
148
36
151
76
75
35
134
71
145
129
84
73
136
95
25
119
101
135
31
70
120
44
133
131
27
138
78
98
153
79
52
112
102
142
144
80
50
29
141
97
113
66
126
89
42
86
132
87
93
65
152
146
37
69
51
77
94
74
40
100
59
46
57
30
96
85
33
47
17
55
91
147
60
45
130
72
88
103
137
58
140
38
149
122
32
18
64
116
61
128
49
67
150
41
34
117
90
43
14
53
63
39
106
68
82
4
56
143
21
20
110
54
9
115
109
104
125
5
121
11
118
124
16
62
28
108
111
6
2
107
12
15
3
23
7
8
24
13
26
19
1
10

> <PUBCHEM_MMFF94_PARTIAL_CHARGES>
42
1 -0.36
10 0.14
11 0.14
12 0.03
13 -0.11
14 -0.3
15 0.1
16 -0.15
17 -0.15
18 0.08
19 0.09
2 -0.36
20 0.08
21 0.08
22 -0.15
23 -0.15
24 -0.15
25 -0.15
26 -0.15
27 0.54
28 0.28
29 0.28
3 -0.57
30 0.15
31 0.4
32 0.15
33 0.15
34 0.15
35 0.15
36 0.15
37 0.15
38 0.15
39 0.15
4 0.29
40 0.15
47 0.37
48 0.37
5 -0.55
6 -0.62
7 -0.57
8 -0.8
9 0.51

> <PUBCHEM_EFFECTIVE_ROTOR_COUNT>
6

> <PUBCHEM_PHARMACOPHORE_FEATURES>
10
1 1 acceptor
1 2 acceptor
1 3 acceptor
1 5 donor
1 8 donor
4 4 5 6 9 cation
5 4 7 10 14 18 rings
6 12 16 17 20 21 22 rings
6 15 19 23 24 25 26 rings
6 4 6 9 10 11 13 rings

> <PUBCHEM_HEAVY_ATOM_COUNT>
29

> <PUBCHEM_ATOM_DEF_STEREO_COUNT>
0

> <PUBCHEM_ATOM_UDEF_STEREO_COUNT>
0

> <PUBCHEM_BOND_DEF_STEREO_COUNT>
0

> <PUBCHEM_BOND_UDEF_STEREO_COUNT>
0

> <PUBCHEM_ISOTOPIC_ATOM_COUNT>
0

> <PUBCHEM_COMPONENT_COUNT>
1

> <PUBCHEM_CACTVS_TAUTO_COUNT>
9

> <PUBCHEM_CONFORMER_ID>
009A479D00000063

> <PUBCHEM_MMFF94_ENERGY>
119.6579

> <PUBCHEM_FEATURE_SELFOVERLAP>
50.869

> <PUBCHEM_SHAPE_FINGERPRINT>
10369192 42 16411227707151849336
10462674 125 15619127409867523646
10483366 6 18127104452474679421
10616163 171 18339080363770385998
11578080 2 17774143712886479433
12107183 9 18199202831484983291
12422481 6 17775021075814997110
12553582 1 18338791320576191367
12633257 1 17346602997070253099
12788726 201 18336539413551744099
13004483 165 18412261744480801873
13631057 29 18409728439968175480
13690498 29 18339942428442524116
138480 1 15818755320288612853
13911987 19 17465961749388144564
14114206 34 17967797358770097815
14279260 333 18042122077445689506
14394314 77 18339645654001299561
14674994 50 17202178846765076381
14767858 380 18118133700196672852
14844126 61 18339356375058176881
15042514 8 18339086986346822837
15537594 2 18339653355088508614
16110190 28 18272655683301408730
17492 89 18264210206172868114
1813 80 18198920277617043045
19311894 1 18267862959905191774
19319366 153 17829337130984679092
20101258 96 18410858762979605424
21033650 10 13335287608141915966
21133410 171 17544134637720547002
21796203 349 18049195381195090810
22950370 63 18339648965447179255
235170 7 16515674593760571590
23598288 3 18337671884615961909
352729 6 17981326694626174565
4017518 198 17119988982310415782
4409770 3 18338510838433518661
44880168 125 17489316247892022798
463206 1 18263364866061319642
513202 73 18267881492145111814
5309563 4 18336832008304733699
56633871 153 18201165437770432863
7097593 13 17911523409131824501
7970288 3 18339077211038459870
79837 15 17764312738862154097
86090 222 16881325007187901899

> <PUBCHEM_SHAPE_MULTIPOLES>
554.29
11.82
5.47
1.46
12.52
5.69
0.05
-10.63
2.19
-4.52
-0.24
-1.38
-1.58
-1.82

> <PUBCHEM_SHAPE_SELFOVERLAP>
1225.248

> <PUBCHEM_SHAPE_VOLUME>
298

> <PUBCHEM_COORDINATE_TYPE>
2
5
10

$$$$
