10074667
  -OEChem-10062122033D

 62 69  0     1  0  0  0  0  0999 V2000
    0.4564    2.2566   -1.7432 O   0  0  0  0  0  0  0  0  0  0  0  0
    3.2401    2.6958    0.6880 O   0  0  0  0  0  0  0  0  0  0  0  0
   -1.4560   -4.5934    0.4475 O   0  0  0  0  0  0  0  0  0  0  0  0
   -3.5327   -3.6022    0.3612 O   0  0  0  0  0  0  0  0  0  0  0  0
    5.3904   -3.4724    0.3073 O   0  0  0  0  0  0  0  0  0  0  0  0
   -6.6627    0.1319    0.1710 O   0  0  0  0  0  0  0  0  0  0  0  0
    1.5972    0.5218   -0.6218 N   0  0  0  0  0  0  0  0  0  0  0  0
   -1.2983    1.3275   -0.5485 N   0  0  0  0  0  0  0  0  0  0  0  0
    0.7095    2.0270    1.9031 N   0  0  0  0  0  0  0  0  0  0  0  0
    1.6824    1.9058   -1.0943 C   0  0  2  0  0  0  0  0  0  0  0  0
    2.0252    2.9558    0.0003 C   0  0  1  0  0  0  0  0  0  0  0  0
   -0.6420    2.5552   -0.9119 C   0  0  1  0  0  0  0  0  0  0  0  0
    0.9073    3.1770    1.0228 C   0  0  1  0  0  0  0  0  0  0  0  0
   -0.3644    3.5098    0.2532 C   0  0  0  0  0  0  0  0  0  0  0  0
    0.5258   -0.3260   -0.4183 C   0  0  0  0  0  0  0  0  0  0  0  0
   -0.8477    0.0515   -0.3927 C   0  0  0  0  0  0  0  0  0  0  0  0
    0.7445   -1.7308   -0.1517 C   0  0  0  0  0  0  0  0  0  0  0  0
   -1.7905   -1.0258   -0.1397 C   0  0  0  0  0  0  0  0  0  0  0  0
    2.6761   -0.3570   -0.3770 C   0  0  0  0  0  0  0  0  0  0  0  0
    2.6739    2.0377   -2.2755 C   0  0  0  0  0  0  0  0  0  0  0  0
   -2.6761    1.1759   -0.3800 C   0  0  0  0  0  0  0  0  0  0  0  0
    2.1971   -1.6833   -0.1472 C   0  0  0  0  0  0  0  0  0  0  0  0
   -0.1807   -2.7516    0.0531 C   0  0  0  0  0  0  0  0  0  0  0  0
   -3.0000   -0.1939   -0.1513 C   0  0  0  0  0  0  0  0  0  0  0  0
   -1.4972   -2.3735    0.0508 C   0  0  0  0  0  0  0  0  0  0  0  0
   -0.0699   -4.1999    0.3183 C   0  0  0  0  0  0  0  0  0  0  0  0
    4.0693   -0.1230   -0.3416 C   0  0  0  0  0  0  0  0  0  0  0  0
    3.1405   -2.7204    0.0758 C   0  0  0  0  0  0  0  0  0  0  0  0
   -3.6830    2.1637   -0.4185 C   0  0  0  0  0  0  0  0  0  0  0  0
   -2.3228   -3.5394    0.2985 C   0  0  0  0  0  0  0  0  0  0  0  0
   -4.3697   -0.5130    0.0331 C   0  0  0  0  0  0  0  0  0  0  0  0
   -0.3490    2.2904    2.8658 C   0  0  0  0  0  0  0  0  0  0  0  0
    3.6060    3.7800    1.5318 C   0  0  0  0  0  0  0  0  0  0  0  0
    4.9650   -1.1715   -0.1130 C   0  0  0  0  0  0  0  0  0  0  0  0
    4.5084   -2.4598    0.0874 C   0  0  0  0  0  0  0  0  0  0  0  0
   -5.0155    1.7982   -0.2327 C   0  0  0  0  0  0  0  0  0  0  0  0
   -5.3570    0.4755   -0.0102 C   0  0  0  0  0  0  0  0  0  0  0  0
    2.1515    3.9102   -0.5351 H   0  0  0  0  0  0  0  0  0  0  0  0
   -1.3448    3.0703   -1.5778 H   0  0  0  0  0  0  0  0  0  0  0  0
    1.1350    4.0493    1.6471 H   0  0  0  0  0  0  0  0  0  0  0  0
   -1.2460    3.6425    0.8872 H   0  0  0  0  0  0  0  0  0  0  0  0
   -0.1986    4.5021   -0.1929 H   0  0  0  0  0  0  0  0  0  0  0  0
    3.7211    2.0478   -1.9720 H   0  0  0  0  0  0  0  0  0  0  0  0
    2.5309    1.2301   -3.0039 H   0  0  0  0  0  0  0  0  0  0  0  0
    2.5001    2.9746   -2.8208 H   0  0  0  0  0  0  0  0  0  0  0  0
    1.5787    1.8342    2.3998 H   0  0  0  0  0  0  0  0  0  0  0  0
    0.3774   -4.7454   -0.5165 H   0  0  0  0  0  0  0  0  0  0  0  0
    0.4473   -4.4165    1.2565 H   0  0  0  0  0  0  0  0  0  0  0  0
    4.4841    0.8684   -0.4762 H   0  0  0  0  0  0  0  0  0  0  0  0
    2.7870   -3.7340    0.2498 H   0  0  0  0  0  0  0  0  0  0  0  0
   -3.4367    3.2080   -0.5882 H   0  0  0  0  0  0  0  0  0  0  0  0
   -4.6770   -1.5368    0.2150 H   0  0  0  0  0  0  0  0  0  0  0  0
   -0.2328    3.2579    3.3652 H   0  0  0  0  0  0  0  0  0  0  0  0
   -0.3094    1.5210    3.6450 H   0  0  0  0  0  0  0  0  0  0  0  0
   -1.3470    2.2149    2.4263 H   0  0  0  0  0  0  0  0  0  0  0  0
    3.0856    3.7290    2.4921 H   0  0  0  0  0  0  0  0  0  0  0  0
    3.4542    4.7520    1.0516 H   0  0  0  0  0  0  0  0  0  0  0  0
    4.6744    3.6799    1.7471 H   0  0  0  0  0  0  0  0  0  0  0  0
    6.0315   -0.9606   -0.0929 H   0  0  0  0  0  0  0  0  0  0  0  0
   -5.7805    2.5700   -0.2648 H   0  0  0  0  0  0  0  0  0  0  0  0
    4.8968   -4.3017    0.4285 H   0  0  0  0  0  0  0  0  0  0  0  0
   -7.2115    0.9327    0.1113 H   0  0  0  0  0  0  0  0  0  0  0  0
  1 10  1  0  0  0  0
  1 12  1  0  0  0  0
  2 11  1  0  0  0  0
  2 33  1  0  0  0  0
  3 26  1  0  0  0  0
  3 30  1  0  0  0  0
  4 30  2  0  0  0  0
  5 35  1  0  0  0  0
  5 61  1  0  0  0  0
  6 37  1  0  0  0  0
  6 62  1  0  0  0  0
  7 10  1  0  0  0  0
  7 15  1  0  0  0  0
  7 19  1  0  0  0  0
  8 12  1  0  0  0  0
  8 16  1  0  0  0  0
  8 21  1  0  0  0  0
  9 13  1  0  0  0  0
  9 32  1  0  0  0  0
  9 46  1  0  0  0  0
 10 11  1  0  0  0  0
 10 20  1  0  0  0  0
 11 13  1  0  0  0  0
 11 38  1  0  0  0  0
 12 14  1  0  0  0  0
 12 39  1  0  0  0  0
 13 14  1  0  0  0  0
 13 40  1  0  0  0  0
 14 41  1  0  0  0  0
 14 42  1  0  0  0  0
 15 16  2  0  0  0  0
 15 17  1  0  0  0  0
 16 18  1  0  0  0  0
 17 22  1  0  0  0  0
 17 23  2  0  0  0  0
 18 24  1  0  0  0  0
 18 25  2  0  0  0  0
 19 22  2  0  0  0  0
 19 27  1  0  0  0  0
 20 43  1  0  0  0  0
 20 44  1  0  0  0  0
 20 45  1  0  0  0  0
 21 24  2  0  0  0  0
 21 29  1  0  0  0  0
 22 28  1  0  0  0  0
 23 25  1  0  0  0  0
 23 26  1  0  0  0  0
 24 31  1  0  0  0  0
 25 30  1  0  0  0  0
 26 47  1  0  0  0  0
 26 48  1  0  0  0  0
 27 34  2  0  0  0  0
 27 49  1  0  0  0  0
 28 35  2  0  0  0  0
 28 50  1  0  0  0  0
 29 36  2  0  0  0  0
 29 51  1  0  0  0  0
 31 37  2  0  0  0  0
 31 52  1  0  0  0  0
 32 53  1  0  0  0  0
 32 54  1  0  0  0  0
 32 55  1  0  0  0  0
 33 56  1  0  0  0  0
 33 57  1  0  0  0  0
 33 58  1  0  0  0  0
 34 35  1  0  0  0  0
 34 59  1  0  0  0  0
 36 37  1  0  0  0  0
 36 60  1  0  0  0  0
M  END
> <PUBCHEM_COMPOUND_CID>
10074667

> <PUBCHEM_CONFORMER_RMSD>
0.8

> <PUBCHEM_CONFORMER_DIVERSEORDER>
1
2

> <PUBCHEM_MMFF94_PARTIAL_CHARGES>
42
1 -0.56
10 0.54
11 0.28
12 0.54
13 0.27
15 -0.05
16 -0.05
17 -0.01
18 -0.01
19 -0.15
2 -0.56
21 -0.15
23 -0.14
25 0.09
26 0.42
27 -0.15
28 -0.15
29 -0.15
3 -0.43
30 0.63
31 -0.15
32 0.27
33 0.28
34 -0.15
35 0.08
36 -0.15
37 0.08
4 -0.57
46 0.36
49 0.15
5 -0.53
50 0.15
51 0.15
52 0.15
59 0.15
6 -0.53
60 0.15
61 0.45
62 0.45
7 -0.04
8 -0.04
9 -0.9

> <PUBCHEM_EFFECTIVE_ROTOR_COUNT>
3.2

> <PUBCHEM_PHARMACOPHORE_FEATURES>
17
1 1 acceptor
1 2 acceptor
1 4 acceptor
1 5 donor
1 6 donor
1 7 cation
1 8 cation
1 9 cation
1 9 donor
5 3 23 25 26 30 rings
5 7 15 17 19 22 rings
5 8 16 18 21 24 rings
6 1 10 11 12 13 14 rings
6 15 16 17 18 23 25 rings
6 19 22 27 28 34 35 rings
6 21 24 29 31 36 37 rings
7 1 7 8 10 12 15 16 rings

> <PUBCHEM_HEAVY_ATOM_COUNT>
37

> <PUBCHEM_ATOM_DEF_STEREO_COUNT>
3

> <PUBCHEM_ATOM_UDEF_STEREO_COUNT>
1

> <PUBCHEM_BOND_DEF_STEREO_COUNT>
0

> <PUBCHEM_BOND_UDEF_STEREO_COUNT>
0

> <PUBCHEM_ISOTOPIC_ATOM_COUNT>
0

> <PUBCHEM_COMPONENT_COUNT>
1

> <PUBCHEM_CACTVS_TAUTO_COUNT>
8

> <PUBCHEM_CONFORMER_ID>
0099BA2B00000001

> <PUBCHEM_MMFF94_ENERGY>
152.6915

> <PUBCHEM_FEATURE_SELFOVERLAP>
87.432

> <PUBCHEM_SHAPE_FINGERPRINT>
10190108 129 17331153518970988707
10290309 65 18118674423388563342
10675989 125 16675834607761097509
10930396 42 18120343546711678266
1100329 8 18409731746518337735
11513181 2 18057603359482265422
11578080 2 17701813508573075987
11607047 403 16908864487813344275
12166972 35 18336270033176636332
12422481 6 18193251191928744112
12788726 201 18198919015228928188
13140716 1 18410009965756837718
140371 6 18199763452933497518
14068700 675 18199744756840293336
14178342 30 17976252761769494333
14705955 166 17557399034908130210
14725015 67 18266170634850655025
14790565 3 18264214612270932029
14955137 171 18338520720567632375
15131766 46 15480096269575658322
15439362 3 18410004477021391741
15927050 60 18197494237111374924
16112460 7 18269292273818251299
16728300 4 17027383792176318586
19319366 153 17603590682138005250
19591789 44 18408324376346151991
20028762 73 18270113514093458895
20600515 1 18337959982785736542
20642791 105 18046623400260058932
20642791 178 18117011995945474277
20775438 99 17548934139436125367
20905425 154 18051706730346245430
22223350 30 18341606040526687827
23559900 14 18338794619137169182
283562 15 17979355261492205450
3178227 256 18263658294575067451
335352 9 18335703806179369623
3380486 77 18263663782836208118
350125 39 18335988631583465991
392239 28 18125442999155579146
469060 322 17976831878254027256
484989 97 18335704979449135503
6004065 56 18269823264487661991
9896288 288 17552354372195834416

> <PUBCHEM_SHAPE_MULTIPOLES>
711.28
9.31
5.99
1.35
5.02
2.69
0.42
2.19
-0.05
-2.24
1.64
-0.67
-1.62
0.61

> <PUBCHEM_SHAPE_SELFOVERLAP>
1641.16

> <PUBCHEM_SHAPE_VOLUME>
364.5

> <PUBCHEM_COORDINATE_TYPE>
2
5
10

$$$$
