49830606
  -OEChem-10052115193D

 50 53  0     0  0  0  0  0  0999 V2000
    2.1179   -4.8132   -0.6584 F   0  0  0  0  0  0  0  0  0  0  0  0
    5.0542   -0.5241    0.0724 O   0  0  0  0  0  0  0  0  0  0  0  0
    2.5103    1.8515   -0.4131 N   0  0  0  0  0  0  0  0  0  0  0  0
   -3.0579    0.7723    0.2155 N   0  0  0  0  0  0  0  0  0  0  0  0
    0.3268    1.0621   -0.3323 N   0  0  0  0  0  0  0  0  0  0  0  0
   -3.0687   -1.3617    0.8743 N   0  0  0  0  0  0  0  0  0  0  0  0
    1.1157    2.3668   -2.1985 N   0  0  0  0  0  0  0  0  0  0  0  0
   -5.5709    1.2289    1.3299 N   0  0  0  0  0  0  0  0  0  0  0  0
    4.3185    1.4901    1.2488 C   0  0  0  0  0  0  0  0  0  0  0  0
    2.8380    1.2556    0.8620 C   0  0  0  0  0  0  0  0  0  0  0  0
    5.2879    0.8710    0.2172 C   0  0  0  0  0  0  0  0  0  0  0  0
    4.6148    2.9965    1.3695 C   0  0  0  0  0  0  0  0  0  0  0  0
    4.5548    0.8362    2.6263 C   0  0  0  0  0  0  0  0  0  0  0  0
    1.2630    1.7560   -1.0073 C   0  0  0  0  0  0  0  0  0  0  0  0
   -1.8729    0.2469   -0.2150 C   0  0  0  0  0  0  0  0  0  0  0  0
   -0.8758    0.9891   -0.9396 C   0  0  0  0  0  0  0  0  0  0  0  0
   -1.9030   -1.0683    0.2026 C   0  0  0  0  0  0  0  0  0  0  0  0
   -3.7336   -0.2325    0.8603 C   0  0  0  0  0  0  0  0  0  0  0  0
   -0.8672   -2.0329   -0.0191 C   0  0  0  0  0  0  0  0  0  0  0  0
   -1.1555    1.5710   -2.1592 C   0  0  0  0  0  0  0  0  0  0  0  0
   -3.6288    2.0275    0.1160 C   0  0  0  0  0  0  0  0  0  0  0  0
   -0.1111    2.2539   -2.7484 C   0  0  0  0  0  0  0  0  0  0  0  0
   -5.0264    0.0451    1.4205 C   0  0  0  0  0  0  0  0  0  0  0  0
   -0.4875   -2.3618   -1.3204 C   0  0  0  0  0  0  0  0  0  0  0  0
   -0.2383   -2.6430    1.0662 C   0  0  0  0  0  0  0  0  0  0  0  0
   -4.8448    2.2115    0.6666 C   0  0  0  0  0  0  0  0  0  0  0  0
    0.5209   -3.3011   -1.5364 C   0  0  0  0  0  0  0  0  0  0  0  0
    0.7700   -3.5823    0.8503 C   0  0  0  0  0  0  0  0  0  0  0  0
    1.1496   -3.9113   -0.4509 C   0  0  0  0  0  0  0  0  0  0  0  0
    2.1880    1.6829    1.6368 H   0  0  0  0  0  0  0  0  0  0  0  0
    2.6310    0.1782    0.8280 H   0  0  0  0  0  0  0  0  0  0  0  0
    6.3273    1.0064    0.5380 H   0  0  0  0  0  0  0  0  0  0  0  0
    5.1813    1.3386   -0.7671 H   0  0  0  0  0  0  0  0  0  0  0  0
    3.9225    3.4802    2.0678 H   0  0  0  0  0  0  0  0  0  0  0  0
    5.6318    3.1671    1.7412 H   0  0  0  0  0  0  0  0  0  0  0  0
    4.5327    3.5109    0.4065 H   0  0  0  0  0  0  0  0  0  0  0  0
    5.5964    0.9535    2.9461 H   0  0  0  0  0  0  0  0  0  0  0  0
    3.9193    1.2926    3.3939 H   0  0  0  0  0  0  0  0  0  0  0  0
    4.3308   -0.2360    2.6073 H   0  0  0  0  0  0  0  0  0  0  0  0
    3.2108    2.3729   -0.9261 H   0  0  0  0  0  0  0  0  0  0  0  0
    5.6947   -0.8548   -0.5801 H   0  0  0  0  0  0  0  0  0  0  0  0
   -2.1223    1.5004   -2.6420 H   0  0  0  0  0  0  0  0  0  0  0  0
   -3.0894    2.8191   -0.3872 H   0  0  0  0  0  0  0  0  0  0  0  0
   -0.2352    2.7425   -3.7089 H   0  0  0  0  0  0  0  0  0  0  0  0
   -5.5697   -0.7611    1.9384 H   0  0  0  0  0  0  0  0  0  0  0  0
   -0.9699   -1.9053   -2.1815 H   0  0  0  0  0  0  0  0  0  0  0  0
   -0.5205   -2.3967    2.0871 H   0  0  0  0  0  0  0  0  0  0  0  0
   -5.3228    3.1837    0.6110 H   0  0  0  0  0  0  0  0  0  0  0  0
    0.8158   -3.5588   -2.5493 H   0  0  0  0  0  0  0  0  0  0  0  0
    1.2604   -4.0570    1.6950 H   0  0  0  0  0  0  0  0  0  0  0  0
  1 29  1  0  0  0  0
  2 11  1  0  0  0  0
  2 41  1  0  0  0  0
  3 10  1  0  0  0  0
  3 14  1  0  0  0  0
  3 40  1  0  0  0  0
  4 15  1  0  0  0  0
  4 18  1  0  0  0  0
  4 21  1  0  0  0  0
  5 14  1  0  0  0  0
  5 16  2  0  0  0  0
  6 17  1  0  0  0  0
  6 18  2  0  0  0  0
  7 14  2  0  0  0  0
  7 22  1  0  0  0  0
  8 23  2  0  0  0  0
  8 26  1  0  0  0  0
  9 10  1  0  0  0  0
  9 11  1  0  0  0  0
  9 12  1  0  0  0  0
  9 13  1  0  0  0  0
 10 30  1  0  0  0  0
 10 31  1  0  0  0  0
 11 32  1  0  0  0  0
 11 33  1  0  0  0  0
 12 34  1  0  0  0  0
 12 35  1  0  0  0  0
 12 36  1  0  0  0  0
 13 37  1  0  0  0  0
 13 38  1  0  0  0  0
 13 39  1  0  0  0  0
 15 16  1  0  0  0  0
 15 17  2  0  0  0  0
 16 20  1  0  0  0  0
 17 19  1  0  0  0  0
 18 23  1  0  0  0  0
 19 24  2  0  0  0  0
 19 25  1  0  0  0  0
 20 22  2  0  0  0  0
 20 42  1  0  0  0  0
 21 26  2  0  0  0  0
 21 43  1  0  0  0  0
 22 44  1  0  0  0  0
 23 45  1  0  0  0  0
 24 27  1  0  0  0  0
 24 46  1  0  0  0  0
 25 28  2  0  0  0  0
 25 47  1  0  0  0  0
 26 48  1  0  0  0  0
 27 29  2  0  0  0  0
 27 49  1  0  0  0  0
 28 29  1  0  0  0  0
 28 50  1  0  0  0  0
M  END
> <PUBCHEM_COMPOUND_CID>
49830606

> <PUBCHEM_CONFORMER_RMSD>
0.8

> <PUBCHEM_CONFORMER_DIVERSEORDER>
1
30
158
58
42
92
167
146
106
118
181
54
45
59
195
24
67
183
152
93
190
139
78
105
75
53
15
14
51
102
172
79
89
44
138
182
135
107
21
16
99
173
153
156
188
137
36
9
33
176
140
180
185
175
189
141
98
193
29
8
56
129
191
61
41
132
86
12
117
7
6
64
186
151
34
171
123
112
28
147
73
125
194
57
164
101
96
128
43
74
168
142
3
187
145
114
76
116
100
157
122
2
179
162
94
91
87
115
110
192
26
17
143
130
174
119
31
120
85
133
165
40
127
104
32
97
50
134
196
82
136
184
11
23
103
154
121
95
13
71
150
65
161
111
5
131
159
124
90
72
22
155
20
163
4
88
178
177
18
148
160
108
47
27
55
80
126
81
169
70
48
113
66
39
84
109
49
170
35
10
166
144
52
60
68
37
62
38
83
25
149
63
77
69
46
19

> <PUBCHEM_MMFF94_PARTIAL_CHARGES>
37
1 -0.19
10 0.37
11 0.28
14 0.72
15 -0.2
16 0.36
17 0.17
18 0.1
19 0.05
2 -0.68
20 -0.15
21 -0.18
22 0.16
23 0.47
24 -0.15
25 -0.15
26 0.02
27 -0.15
28 -0.15
29 0.19
3 -0.87
4 0.33
40 0.4
41 0.4
42 0.15
43 0.15
44 0.15
45 0.06
46 0.15
47 0.15
48 0.15
49 0.15
5 -0.62
50 0.15
6 -0.57
7 -0.62
8 -0.62

> <PUBCHEM_EFFECTIVE_ROTOR_COUNT>
6

> <PUBCHEM_PHARMACOPHORE_FEATURES>
12
1 2 acceptor
1 2 donor
1 3 donor
1 5 acceptor
1 8 acceptor
3 4 6 18 cation
3 9 12 13 hydrophobe
4 3 5 7 14 cation
5 4 6 15 17 18 rings
6 19 24 25 27 28 29 rings
6 4 8 18 21 23 26 rings
6 5 7 14 16 20 22 rings

> <PUBCHEM_HEAVY_ATOM_COUNT>
29

> <PUBCHEM_ATOM_DEF_STEREO_COUNT>
0

> <PUBCHEM_ATOM_UDEF_STEREO_COUNT>
0

> <PUBCHEM_BOND_DEF_STEREO_COUNT>
0

> <PUBCHEM_BOND_UDEF_STEREO_COUNT>
0

> <PUBCHEM_ISOTOPIC_ATOM_COUNT>
0

> <PUBCHEM_COMPONENT_COUNT>
1

> <PUBCHEM_CACTVS_TAUTO_COUNT>
3

> <PUBCHEM_CONFORMER_ID>
02F85ACE00000001

> <PUBCHEM_MMFF94_ENERGY>
85.932

> <PUBCHEM_FEATURE_SELFOVERLAP>
61.015

> <PUBCHEM_SHAPE_FINGERPRINT>
11370993 144 18200025274482805000
11552529 35 17691670604476084152
11582403 64 17203325615612268685
11607047 141 16984662346084973387
11725454 13 17060342945987929761
12156800 1 15361407287279808914
12422481 6 18188202109272757568
12553582 1 17532356747005237776
12633257 1 18268691970349815496
12741549 16 17195150514763325299
12788726 201 17472152042332301023
12839892 36 18264500653515251059
13004483 165 17050193577305554543
13402501 40 18337678503947107390
13583140 156 16700326667256004904
14020679 6 17774151456506610344
14178342 30 18335995250254773455
14739800 52 17630899209682285377
14840074 17 17967529120940973036
14932702 115 17252043635582192620
150020 26 17901919991175754818
15420108 30 18341608196816534655
15484559 13 16090027100104099612
15775530 1 17538267454663817269
16110190 28 18115023125835159096
1813 80 16805323305610378868
20554085 129 18201169801462447609
21033648 29 18201714111109975632
21304253 13 17549549505106167657
22182313 1 17751639849908516637
23419403 2 17903070041319627837
23559900 14 18057351511295606884
23728640 28 18050849115418936706
3411729 13 18339929195310473249
3493558 16 17411340918916544801
352729 6 17901127505258745699
463206 1 16102470741668866906
5171179 24 17832975054136569045
5265222 85 18267039413079214868
5385378 56 18269850735129876033
7064713 232 18338233881250479320

> <PUBCHEM_SHAPE_MULTIPOLES>
553.78
9.94
4.96
2.11
2.49
6.57
0.68
-8.35
-7.85
2.3
1.3
0.66
-1.14
0.81

> <PUBCHEM_SHAPE_SELFOVERLAP>
1214.893

> <PUBCHEM_SHAPE_VOLUME>
302.1

> <PUBCHEM_COORDINATE_TYPE>
2
5
10

$$$$
