18189414
  -OEChem-10052120443D

 52 53  0     0  0  0  0  0  0999 V2000
    4.8738    1.1283    0.4879 S   0  0  0  0  0  0  0  0  0  0  0  0
   -0.7717   -2.1733    1.4663 O   0  0  0  0  0  0  0  0  0  0  0  0
   -2.6122    1.8064   -0.5095 O   0  0  0  0  0  0  0  0  0  0  0  0
    0.4712   -1.8846   -2.2863 O   0  0  0  0  0  0  0  0  0  0  0  0
    6.0533    1.9517    0.2980 O   0  0  0  0  0  0  0  0  0  0  0  0
    4.4315    0.7707    1.8211 O   0  0  0  0  0  0  0  0  0  0  0  0
   -1.3155   -0.4674   -2.5995 O   0  0  0  0  0  0  0  0  0  0  0  0
    0.4519   -4.2019    1.4130 O   0  0  0  0  0  0  0  0  0  0  0  0
   -3.1329    4.1156   -0.3990 O   0  0  0  0  0  0  0  0  0  0  0  0
    3.5828    1.8074   -0.4277 N   0  0  0  0  0  0  0  0  0  0  0  0
   -0.3127    0.3265    0.2196 C   0  0  0  0  0  0  0  0  0  0  0  0
   -1.6521   -0.1691    0.4700 C   0  0  0  0  0  0  0  0  0  0  0  0
    0.3520    0.0423   -0.9733 C   0  0  0  0  0  0  0  0  0  0  0  0
    2.2639    1.3060   -0.2090 C   0  0  0  0  0  0  0  0  0  0  0  0
    0.3109    1.1005    1.1982 C   0  0  0  0  0  0  0  0  0  0  0  0
    1.6404    0.5320   -1.1876 C   0  0  0  0  0  0  0  0  0  0  0  0
   -1.8341   -1.4066    1.0872 C   0  0  0  0  0  0  0  0  0  0  0  0
   -2.7587    0.5925    0.0945 C   0  0  0  0  0  0  0  0  0  0  0  0
    1.5992    1.5902    0.9839 C   0  0  0  0  0  0  0  0  0  0  0  0
   -3.1228   -1.8827    1.3287 C   0  0  0  0  0  0  0  0  0  0  0  0
   -4.0474    0.1164    0.3360 C   0  0  0  0  0  0  0  0  0  0  0  0
   -0.2636   -0.7629   -2.0222 C   0  0  0  0  0  0  0  0  0  0  0  0
   -4.2295   -1.1213    0.9531 C   0  0  0  0  0  0  0  0  0  0  0  0
    5.1442   -0.3777   -0.4196 C   0  0  0  0  0  0  0  0  0  0  0  0
   -0.6633   -3.4755    0.8851 C   0  0  0  0  0  0  0  0  0  0  0  0
   -3.6345    2.7800   -0.2797 C   0  0  0  0  0  0  0  0  0  0  0  0
   -0.0317   -2.7587   -3.3024 C   0  0  0  0  0  0  0  0  0  0  0  0
    1.6761   -3.8320    0.7922 C   0  0  0  0  0  0  0  0  0  0  0  0
   -2.4682    4.5472    0.7813 C   0  0  0  0  0  0  0  0  0  0  0  0
   -0.1933    1.3352    2.1328 H   0  0  0  0  0  0  0  0  0  0  0  0
    2.1620    0.3154   -2.1177 H   0  0  0  0  0  0  0  0  0  0  0  0
    2.0664    2.2027    1.7505 H   0  0  0  0  0  0  0  0  0  0  0  0
    3.7996    1.9936   -1.4161 H   0  0  0  0  0  0  0  0  0  0  0  0
   -3.2883   -2.8347    1.8248 H   0  0  0  0  0  0  0  0  0  0  0  0
   -4.9383    0.6584    0.0335 H   0  0  0  0  0  0  0  0  0  0  0  0
   -5.2327   -1.4936    1.1388 H   0  0  0  0  0  0  0  0  0  0  0  0
    6.0024   -0.8872    0.0246 H   0  0  0  0  0  0  0  0  0  0  0  0
    4.2600   -1.0120   -0.3390 H   0  0  0  0  0  0  0  0  0  0  0  0
    5.3602   -0.1322   -1.4610 H   0  0  0  0  0  0  0  0  0  0  0  0
   -1.5462   -4.0704    1.1386 H   0  0  0  0  0  0  0  0  0  0  0  0
   -0.5977   -3.4092   -0.2071 H   0  0  0  0  0  0  0  0  0  0  0  0
   -4.3953    2.6636   -1.0590 H   0  0  0  0  0  0  0  0  0  0  0  0
   -4.1112    2.6747    0.7037 H   0  0  0  0  0  0  0  0  0  0  0  0
    0.6493   -3.6095   -3.3865 H   0  0  0  0  0  0  0  0  0  0  0  0
   -0.0670   -2.2376   -4.2636 H   0  0  0  0  0  0  0  0  0  0  0  0
   -1.0238   -3.1276   -3.0255 H   0  0  0  0  0  0  0  0  0  0  0  0
    1.6530   -4.0780   -0.2738 H   0  0  0  0  0  0  0  0  0  0  0  0
    1.8688   -2.7632    0.9275 H   0  0  0  0  0  0  0  0  0  0  0  0
    2.4856   -4.3961    1.2629 H   0  0  0  0  0  0  0  0  0  0  0  0
   -3.1659    4.5799    1.6236 H   0  0  0  0  0  0  0  0  0  0  0  0
   -1.6275    3.8865    1.0130 H   0  0  0  0  0  0  0  0  0  0  0  0
   -2.0828    5.5557    0.6096 H   0  0  0  0  0  0  0  0  0  0  0  0
  1  5  2  0  0  0  0
  1  6  2  0  0  0  0
  1 10  1  0  0  0  0
  1 24  1  0  0  0  0
  2 17  1  0  0  0  0
  2 25  1  0  0  0  0
  3 18  1  0  0  0  0
  3 26  1  0  0  0  0
  4 22  1  0  0  0  0
  4 27  1  0  0  0  0
  7 22  2  0  0  0  0
  8 25  1  0  0  0  0
  8 28  1  0  0  0  0
  9 26  1  0  0  0  0
  9 29  1  0  0  0  0
 10 14  1  0  0  0  0
 10 33  1  0  0  0  0
 11 12  1  0  0  0  0
 11 13  2  0  0  0  0
 11 15  1  0  0  0  0
 12 17  2  0  0  0  0
 12 18  1  0  0  0  0
 13 16  1  0  0  0  0
 13 22  1  0  0  0  0
 14 16  2  0  0  0  0
 14 19  1  0  0  0  0
 15 19  2  0  0  0  0
 15 30  1  0  0  0  0
 16 31  1  0  0  0  0
 17 20  1  0  0  0  0
 18 21  2  0  0  0  0
 19 32  1  0  0  0  0
 20 23  2  0  0  0  0
 20 34  1  0  0  0  0
 21 23  1  0  0  0  0
 21 35  1  0  0  0  0
 23 36  1  0  0  0  0
 24 37  1  0  0  0  0
 24 38  1  0  0  0  0
 24 39  1  0  0  0  0
 25 40  1  0  0  0  0
 25 41  1  0  0  0  0
 26 42  1  0  0  0  0
 26 43  1  0  0  0  0
 27 44  1  0  0  0  0
 27 45  1  0  0  0  0
 27 46  1  0  0  0  0
 28 47  1  0  0  0  0
 28 48  1  0  0  0  0
 28 49  1  0  0  0  0
 29 50  1  0  0  0  0
 29 51  1  0  0  0  0
 29 52  1  0  0  0  0
M  END
> <PUBCHEM_COMPOUND_CID>
18189414

> <PUBCHEM_CONFORMER_RMSD>
1

> <PUBCHEM_CONFORMER_DIVERSEORDER>
1
3
7
15
20
21
13
17
22
14
5
9
6
16
19
4
11
23
2
8
18
12
10

> <PUBCHEM_MMFF94_PARTIAL_CHARGES>
34
1 1.33
10 -0.76
13 0.09
14 0.2
15 -0.15
16 -0.15
17 0.08
18 0.08
19 -0.15
2 -0.36
20 -0.15
21 -0.15
22 0.63
23 -0.15
24 0.11
25 0.56
26 0.56
27 0.28
28 0.28
29 0.28
3 -0.36
30 0.15
31 0.15
32 0.15
33 0.42
34 0.15
35 0.15
36 0.15
4 -0.43
5 -0.65
6 -0.65
7 -0.57
8 -0.56
9 -0.56

> <PUBCHEM_EFFECTIVE_ROTOR_COUNT>
11

> <PUBCHEM_PHARMACOPHORE_FEATURES>
10
1 10 donor
1 2 acceptor
1 3 acceptor
1 5 acceptor
1 6 acceptor
1 7 acceptor
1 8 acceptor
1 9 acceptor
6 11 13 14 15 16 19 rings
6 12 17 18 20 21 23 rings

> <PUBCHEM_HEAVY_ATOM_COUNT>
29

> <PUBCHEM_ATOM_DEF_STEREO_COUNT>
0

> <PUBCHEM_ATOM_UDEF_STEREO_COUNT>
0

> <PUBCHEM_BOND_DEF_STEREO_COUNT>
0

> <PUBCHEM_BOND_UDEF_STEREO_COUNT>
0

> <PUBCHEM_ISOTOPIC_ATOM_COUNT>
0

> <PUBCHEM_COMPONENT_COUNT>
1

> <PUBCHEM_CACTVS_TAUTO_COUNT>
1

> <PUBCHEM_CONFORMER_ID>
01158C6600000001

> <PUBCHEM_MMFF94_ENERGY>
109.9797

> <PUBCHEM_FEATURE_SELFOVERLAP>
50.843

> <PUBCHEM_SHAPE_FINGERPRINT>
107951 10 18410015412112751774
11370993 70 18334016120429101546
11578080 2 17460873982341096383
11582403 64 18130775759420598638
12107183 9 17826219710619999752
12173636 292 18334568088045508904
12236239 1 14332867988341281321
12633257 1 18052841404649773459
12788726 201 17971495110705833720
12930653 34 18334579001641544347
13132413 78 16823608966017574169
13583140 156 18199750426535000856
14295345 954 17196847078849218470
15439362 3 17831290606375586496
17349148 13 15482674610871996200
20600515 1 17979948182186127241
21033648 29 17703780423575724464
21330990 113 17894915118137427382
22182313 1 17916602959236275972
23559900 14 18265072373659716788
3298306 158 18341611495277246586
3493558 16 15545136444436801680
350125 39 17756438067450269801
469060 322 16474285926806435200
5265222 85 18117857701249931622
550186 7 18410303501144361604
81228 2 17266073855103397503
9981440 41 17987510425256345089

> <PUBCHEM_SHAPE_MULTIPOLES>
548.72
8.45
4.97
2.12
10.12
0.06
1.83
-6.18
-2.46
-2.86
-1.04
0.04
2.02
1

> <PUBCHEM_SHAPE_SELFOVERLAP>
1136.994

> <PUBCHEM_SHAPE_VOLUME>
316.5

> <PUBCHEM_COORDINATE_TYPE>
2
5
10

$$$$
