49830992
  -OEChem-10052120443D

 37 39  0     0  0  0  0  0  0999 V2000
   -1.1398   -3.8688    0.0244 Cl  0  0  0  0  0  0  0  0  0  0  0  0
    2.0737    0.0454   -0.0474 N   0  0  0  0  0  0  0  0  0  0  0  0
   -2.5545    0.8575   -0.0168 N   0  0  0  0  0  0  0  0  0  0  0  0
   -0.2385    0.4814   -0.0325 N   0  0  0  0  0  0  0  0  0  0  0  0
   -5.8858   -0.1323    0.0276 N   0  0  0  0  0  0  0  0  0  0  0  0
   -4.5911   -0.4926    0.0191 N   0  0  0  0  0  0  0  0  0  0  0  0
   -1.7914   -1.3612    0.0026 N   0  0  0  0  0  0  0  0  0  0  0  0
    3.2306   -0.8238   -0.0467 C   0  0  0  0  0  0  0  0  0  0  0  0
    4.4936   -0.0313   -0.0132 C   0  0  0  0  0  0  0  0  0  0  0  0
    0.7691   -0.4160   -0.0319 C   0  0  0  0  0  0  0  0  0  0  0  0
   -3.9504    0.6791   -0.0023 C   0  0  0  0  0  0  0  0  0  0  0  0
   -6.0823    1.2175    0.0122 C   0  0  0  0  0  0  0  0  0  0  0  0
    5.1023    0.3618   -1.2050 C   0  0  0  0  0  0  0  0  0  0  0  0
    5.0662    0.3165    1.2101 C   0  0  0  0  0  0  0  0  0  0  0  0
   -4.8290    1.7790   -0.0074 C   0  0  0  0  0  0  0  0  0  0  0  0
   -1.4749   -0.0523   -0.0152 C   0  0  0  0  0  0  0  0  0  0  0  0
    0.5784   -1.7826   -0.0148 C   0  0  0  0  0  0  0  0  0  0  0  0
    6.2838    1.1028   -1.1735 C   0  0  0  0  0  0  0  0  0  0  0  0
    6.2476    1.0574    1.2417 C   0  0  0  0  0  0  0  0  0  0  0  0
   -7.4276    1.8141    0.0169 C   0  0  0  0  0  0  0  0  0  0  0  0
    6.8564    1.4506    0.0499 C   0  0  0  0  0  0  0  0  0  0  0  0
   -0.7362   -2.2021    0.0022 C   0  0  0  0  0  0  0  0  0  0  0  0
    3.2146   -1.4910    0.8251 H   0  0  0  0  0  0  0  0  0  0  0  0
    3.2333   -1.4630   -0.9393 H   0  0  0  0  0  0  0  0  0  0  0  0
    2.2013    1.0512   -0.0623 H   0  0  0  0  0  0  0  0  0  0  0  0
    4.6653    0.0991   -2.1648 H   0  0  0  0  0  0  0  0  0  0  0  0
    4.6011    0.0183    2.1460 H   0  0  0  0  0  0  0  0  0  0  0  0
   -4.5915    2.8334   -0.0230 H   0  0  0  0  0  0  0  0  0  0  0  0
   -2.2083    1.8154   -0.0315 H   0  0  0  0  0  0  0  0  0  0  0  0
    1.3751   -2.5151   -0.0162 H   0  0  0  0  0  0  0  0  0  0  0  0
   -6.5859   -0.8636    0.0439 H   0  0  0  0  0  0  0  0  0  0  0  0
    6.7575    1.4094   -2.1015 H   0  0  0  0  0  0  0  0  0  0  0  0
    6.6933    1.3287    2.1943 H   0  0  0  0  0  0  0  0  0  0  0  0
   -7.9969    1.4944   -0.8618 H   0  0  0  0  0  0  0  0  0  0  0  0
   -7.9812    1.5158    0.9131 H   0  0  0  0  0  0  0  0  0  0  0  0
   -7.3744    2.9075    0.0033 H   0  0  0  0  0  0  0  0  0  0  0  0
    7.7761    2.0277    0.0745 H   0  0  0  0  0  0  0  0  0  0  0  0
  1 22  1  0  0  0  0
  2  8  1  0  0  0  0
  2 10  1  0  0  0  0
  2 25  1  0  0  0  0
  3 11  1  0  0  0  0
  3 16  1  0  0  0  0
  3 29  1  0  0  0  0
  4 10  1  0  0  0  0
  4 16  2  0  0  0  0
  5  6  1  0  0  0  0
  5 12  1  0  0  0  0
  5 31  1  0  0  0  0
  6 11  2  0  0  0  0
  7 16  1  0  0  0  0
  7 22  2  0  0  0  0
  8  9  1  0  0  0  0
  8 23  1  0  0  0  0
  8 24  1  0  0  0  0
  9 13  2  0  0  0  0
  9 14  1  0  0  0  0
 10 17  2  0  0  0  0
 11 15  1  0  0  0  0
 12 15  2  0  0  0  0
 12 20  1  0  0  0  0
 13 18  1  0  0  0  0
 13 26  1  0  0  0  0
 14 19  2  0  0  0  0
 14 27  1  0  0  0  0
 15 28  1  0  0  0  0
 17 22  1  0  0  0  0
 17 30  1  0  0  0  0
 18 21  2  0  0  0  0
 18 32  1  0  0  0  0
 19 21  1  0  0  0  0
 19 33  1  0  0  0  0
 20 34  1  0  0  0  0
 20 35  1  0  0  0  0
 20 36  1  0  0  0  0
 21 37  1  0  0  0  0
M  END
> <PUBCHEM_COMPOUND_CID>
49830992

> <PUBCHEM_CONFORMER_RMSD>
0.8

> <PUBCHEM_CONFORMER_DIVERSEORDER>
2
70
91
46
127
109
126
57
10
67
11
90
111
84
18
73
66
69
93
72
94
105
47
118
31
14
99
32
7
85
101
56
113
28
13
104
88
9
83
125
3
58
50
87
119
48
6
36
60
82
89
8
21
25
64
34
54
121
123
80
52
53
55
107
41
112
61
106
49
24
16
98
78
108
29
40
59
30
115
5
110
79
71
96
74
43
39
12
103
27
37
38
97
51
75
15
65
76
81
114
122
22
20
17
77
95
35
45
19
102
26
4
120
44
42
100
23
116
63
68
33
117
124
86
1
62
92

> <PUBCHEM_MMFF94_PARTIAL_CHARGES>
32
1 -0.18
10 0.41
11 0.37
12 -0.33
13 -0.15
14 -0.15
15 -0.15
16 0.72
17 -0.15
18 -0.15
19 -0.15
2 -0.87
20 0.18
21 -0.15
22 0.49
25 0.4
26 0.15
27 0.15
28 0.15
29 0.4
3 -0.58
30 0.15
31 0.27
32 0.15
33 0.15
37 0.15
4 -0.62
5 0.3
6 -0.71
7 -0.62
8 0.51
9 -0.14

> <PUBCHEM_EFFECTIVE_ROTOR_COUNT>
5

> <PUBCHEM_PHARMACOPHORE_FEATURES>
9
1 2 cation
1 2 donor
1 3 donor
1 5 donor
1 7 acceptor
4 3 4 7 16 cation
5 5 6 11 12 15 rings
6 4 7 10 16 17 22 rings
6 9 13 14 18 19 21 rings

> <PUBCHEM_HEAVY_ATOM_COUNT>
22

> <PUBCHEM_ATOM_DEF_STEREO_COUNT>
0

> <PUBCHEM_ATOM_UDEF_STEREO_COUNT>
0

> <PUBCHEM_BOND_DEF_STEREO_COUNT>
0

> <PUBCHEM_BOND_UDEF_STEREO_COUNT>
0

> <PUBCHEM_ISOTOPIC_ATOM_COUNT>
0

> <PUBCHEM_COMPONENT_COUNT>
1

> <PUBCHEM_CACTVS_TAUTO_COUNT>
39

> <PUBCHEM_CONFORMER_ID>
02F85C5000000002

> <PUBCHEM_MMFF94_ENERGY>
53.6508

> <PUBCHEM_FEATURE_SELFOVERLAP>
45.671

> <PUBCHEM_SHAPE_FINGERPRINT>
10 15 18040721355323441857
10411042 1 17689999355524512263
11823591 26 18335974307778070823
12236239 1 17894347809029239626
12596602 18 17167864175061846288
12616971 3 17095514141818282406
12760667 363 10087642606586615357
13288520 33 9367347037783724219
13533116 47 18130789997933764150
13685833 64 8790877493371145941
14123256 34 9511455649937829781
14251752 14 12175630551010774235
14251764 18 17894351098858163217
14347332 77 10591776363334528178
14556957 393 14476691861401268730
15048467 5 18409730655459351548
15183329 4 15195287512382218012
15348495 7 14057015952344037316
18006028 8 9151169848680066843
18222031 100 9439400250897150326
20281389 69 18260827072896470644
20554085 129 18059560378853337714
20621476 66 18410858771563920869
20645477 56 18411136961233554242
21150785 3 16343698842025396229
21424621 283 18271530805871316937
221357 26 16415761912510624048
22224240 67 18335419054769748371
2297311 6 8790892895134444874
23035841 295 10087921878482765685
23198884 109 15913332390206118257
23559900 14 17846491586483301920
249999 5 18263924332780693258
2767999 5 18409445882095535044
2916195 48 18272646852827679249
293599 30 18411419505303667759
3411729 13 18188489073260390211
3472631 163 18336835285886597940
351380 3 10159696880688994620
465052 167 8286192868834821632
5104073 3 18189904106834893627
5486654 2 18413390925705501413
5718773 13 8069442809300711657
5758199 1 18342179938926304361
59682541 35 18335993038810580523
59682541 52 16917074309240830022
59755656 520 18409161121321403559
77188 2 17185313145680999479

> <PUBCHEM_SHAPE_MULTIPOLES>
424.73
19.81
2.56
0.88
1.13
2.98
0.01
-16.7
0.25
2.3
0.02
-1.61
-0.2
0.02

> <PUBCHEM_SHAPE_SELFOVERLAP>
905.599

> <PUBCHEM_SHAPE_VOLUME>
235.6

> <PUBCHEM_COORDINATE_TYPE>
2
5
10

$$$$
