24905193
  -OEChem-10052115163D

 42 46  0     0  0  0  0  0  0999 V2000
   -2.1953   -0.1844   -0.0131 N   0  0  0  0  0  0  0  0  0  0  0  0
   -1.0194   -0.8238    0.1285 N   0  0  0  0  0  0  0  0  0  0  0  0
   -3.0659    2.0656   -0.2184 N   0  0  0  0  0  0  0  0  0  0  0  0
   -1.2850    3.7313   -0.1524 N   0  0  0  0  0  0  0  0  0  0  0  0
    1.0175    3.1491    0.0862 N   0  0  0  0  0  0  0  0  0  0  0  0
    5.2971   -1.0059    0.4530 N   0  0  0  0  0  0  0  0  0  0  0  0
   -3.4760   -0.9856   -0.0832 C   0  0  0  0  0  0  0  0  0  0  0  0
   -3.7594   -1.8495    1.1634 C   0  0  0  0  0  0  0  0  0  0  0  0
   -3.4995   -1.9572   -1.2767 C   0  0  0  0  0  0  0  0  0  0  0  0
   -3.7789   -3.2926    0.6721 C   0  0  0  0  0  0  0  0  0  0  0  0
   -4.2508   -3.1775   -0.7665 C   0  0  0  0  0  0  0  0  0  0  0  0
   -2.0739    1.1718   -0.0788 C   0  0  0  0  0  0  0  0  0  0  0  0
   -0.7204    1.4397    0.0278 C   0  0  0  0  0  0  0  0  0  0  0  0
   -0.1251    0.1707    0.1528 C   0  0  0  0  0  0  0  0  0  0  0  0
    1.2729   -0.1295    0.2956 C   0  0  0  0  0  0  0  0  0  0  0  0
   -0.3351    2.7756   -0.0131 C   0  0  0  0  0  0  0  0  0  0  0  0
    2.0526   -0.3427   -0.8470 C   0  0  0  0  0  0  0  0  0  0  0  0
    1.8364   -0.2058    1.5679 C   0  0  0  0  0  0  0  0  0  0  0  0
    3.4224   -0.6377   -0.6992 C   0  0  0  0  0  0  0  0  0  0  0  0
   -2.5730    3.3227   -0.2450 C   0  0  0  0  0  0  0  0  0  0  0  0
    3.9598   -0.7076    0.5879 C   0  0  0  0  0  0  0  0  0  0  0  0
    3.1928   -0.4966    1.7390 C   0  0  0  0  0  0  0  0  0  0  0  0
    4.4833   -0.9040   -1.6096 C   0  0  0  0  0  0  0  0  0  0  0  0
    5.6228   -1.1264   -0.8713 C   0  0  0  0  0  0  0  0  0  0  0  0
   -4.2748   -0.2420   -0.1925 H   0  0  0  0  0  0  0  0  0  0  0  0
   -4.7478   -1.5893    1.5618 H   0  0  0  0  0  0  0  0  0  0  0  0
   -3.0337   -1.7067    1.9702 H   0  0  0  0  0  0  0  0  0  0  0  0
   -2.4888   -2.2482   -1.5859 H   0  0  0  0  0  0  0  0  0  0  0  0
   -3.9914   -1.5136   -2.1485 H   0  0  0  0  0  0  0  0  0  0  0  0
   -4.4322   -3.9278    1.2770 H   0  0  0  0  0  0  0  0  0  0  0  0
   -2.7668   -3.7131    0.7052 H   0  0  0  0  0  0  0  0  0  0  0  0
   -4.0306   -4.0751   -1.3510 H   0  0  0  0  0  0  0  0  0  0  0  0
   -5.3322   -3.0001   -0.8006 H   0  0  0  0  0  0  0  0  0  0  0  0
    1.6162   -0.2835   -1.8411 H   0  0  0  0  0  0  0  0  0  0  0  0
    1.2261   -0.0389    2.4536 H   0  0  0  0  0  0  0  0  0  0  0  0
   -3.3075    4.1132   -0.3556 H   0  0  0  0  0  0  0  0  0  0  0  0
    3.6306   -0.5555    2.7298 H   0  0  0  0  0  0  0  0  0  0  0  0
    1.7472    2.4596    0.1907 H   0  0  0  0  0  0  0  0  0  0  0  0
    1.2542    4.1317    0.0522 H   0  0  0  0  0  0  0  0  0  0  0  0
    4.4207   -0.9303   -2.6889 H   0  0  0  0  0  0  0  0  0  0  0  0
    5.9440   -1.1193    1.2211 H   0  0  0  0  0  0  0  0  0  0  0  0
    6.6350   -1.3593   -1.1703 H   0  0  0  0  0  0  0  0  0  0  0  0
  1  2  1  0  0  0  0
  1  7  1  0  0  0  0
  1 12  1  0  0  0  0
  2 14  2  0  0  0  0
  3 12  2  0  0  0  0
  3 20  1  0  0  0  0
  4 16  1  0  0  0  0
  4 20  2  0  0  0  0
  5 16  1  0  0  0  0
  5 38  1  0  0  0  0
  5 39  1  0  0  0  0
  6 21  1  0  0  0  0
  6 24  1  0  0  0  0
  6 41  1  0  0  0  0
  7  8  1  0  0  0  0
  7  9  1  0  0  0  0
  7 25  1  0  0  0  0
  8 10  1  0  0  0  0
  8 26  1  0  0  0  0
  8 27  1  0  0  0  0
  9 11  1  0  0  0  0
  9 28  1  0  0  0  0
  9 29  1  0  0  0  0
 10 11  1  0  0  0  0
 10 30  1  0  0  0  0
 10 31  1  0  0  0  0
 11 32  1  0  0  0  0
 11 33  1  0  0  0  0
 12 13  1  0  0  0  0
 13 14  1  0  0  0  0
 13 16  2  0  0  0  0
 14 15  1  0  0  0  0
 15 17  2  0  0  0  0
 15 18  1  0  0  0  0
 17 19  1  0  0  0  0
 17 34  1  0  0  0  0
 18 22  2  0  0  0  0
 18 35  1  0  0  0  0
 19 21  2  0  0  0  0
 19 23  1  0  0  0  0
 20 36  1  0  0  0  0
 21 22  1  0  0  0  0
 22 37  1  0  0  0  0
 23 24  2  0  0  0  0
 23 40  1  0  0  0  0
 24 42  1  0  0  0  0
M  END
> <PUBCHEM_COMPOUND_CID>
24905193

> <PUBCHEM_CONFORMER_RMSD>
0.6

> <PUBCHEM_CONFORMER_DIVERSEORDER>
2
3
15
12
8
9
16
11
7
10
4
5
14
1
6
13

> <PUBCHEM_MMFF94_PARTIAL_CHARGES>
27
1 0.31
12 0.11
14 0.23
15 0.05
16 0.41
17 -0.15
18 -0.15
2 -0.71
20 0.47
21 -0.15
22 -0.15
23 -0.15
24 -0.3
3 -0.57
34 0.15
35 0.15
36 0.15
37 0.15
38 0.4
39 0.4
4 -0.62
40 0.15
41 0.27
42 0.15
5 -0.9
6 0.03
7 0.26

> <PUBCHEM_EFFECTIVE_ROTOR_COUNT>
3

> <PUBCHEM_PHARMACOPHORE_FEATURES>
12
1 2 acceptor
1 5 cation
1 5 donor
1 6 cation
1 6 donor
3 1 3 12 cation
3 3 4 20 cation
5 1 2 12 13 14 rings
5 6 19 21 23 24 rings
5 7 8 9 10 11 rings
6 15 17 18 19 21 22 rings
6 3 4 12 13 16 20 rings

> <PUBCHEM_HEAVY_ATOM_COUNT>
24

> <PUBCHEM_ATOM_DEF_STEREO_COUNT>
0

> <PUBCHEM_ATOM_UDEF_STEREO_COUNT>
0

> <PUBCHEM_BOND_DEF_STEREO_COUNT>
0

> <PUBCHEM_BOND_UDEF_STEREO_COUNT>
0

> <PUBCHEM_ISOTOPIC_ATOM_COUNT>
0

> <PUBCHEM_COMPONENT_COUNT>
1

> <PUBCHEM_CACTVS_TAUTO_COUNT>
9

> <PUBCHEM_CONFORMER_ID>
017C05E900000002

> <PUBCHEM_MMFF94_ENERGY>
53.0246

> <PUBCHEM_FEATURE_SELFOVERLAP>
61.269

> <PUBCHEM_SHAPE_FINGERPRINT>
10319926 262 18196629849769682066
10411042 1 18338236089159120319
1100329 8 18409729548101984081
11056379 131 18338243665243891438
11069576 57 16833449071016290543
11370993 144 17060069107299521771
12236239 1 17532098194036799320
12363563 72 18337672039583444363
12553582 1 18335419110314731939
12623949 98 17488188290706368526
12714826 92 18201439155550442410
12788726 201 18260823753287411691
13140716 1 18411699920072640945
13583140 156 17916855817125201598
13782708 43 18059859438001424238
14251757 5 18333727997153824431
14790565 3 17835244441525482673
15042514 8 18338241475100564721
15250474 111 18116422649323856122
15842332 3 17605264087147413378
16087824 20 18337390415301288949
16752209 62 18334003986898661419
17539 30 18411693267078355845
1813 80 18270403922348475871
18222031 100 18270675501768230207
18927931 339 18411986840572114726
19427546 20 18334299742878884916
20101258 96 18337121132549269393
20505436 4 17534920575897487848
20693207 138 17461709886489343547
21065201 7 18269830935499563074
22950370 63 18338247075416581099
23402539 116 18260551087351934694
23557571 272 18272090440036054540
23559900 14 18411972589738562529
255183 451 18052544554202423895
3057174 1 17472119688702214237
314173 85 18340485659747668091
44062 13 18197502822857124758
4921388 177 18269840817696948220
59755656 520 17841722807143631113
621550 5 17989211468660131536
7471813 234 18261674878245076108
7495541 125 17988925596190946626
7970288 3 18336828718223277891
84936 182 7996602375272259319

> <PUBCHEM_SHAPE_MULTIPOLES>
464.02
10.17
4.02
1.25
8.18
3.11
0.15
-9.48
-1.54
-6.04
-0.39
0.86
-0.65
0.4

> <PUBCHEM_SHAPE_SELFOVERLAP>
1046.859

> <PUBCHEM_SHAPE_VOLUME>
244.2

> <PUBCHEM_COORDINATE_TYPE>
2
5
10

$$$$
