49830347
  -OEChem-10052115193D

 63 67  0     0  0  0  0  0  0999 V2000
    8.7723   -0.4782    2.3783 F   0  0  0  0  0  0  0  0  0  0  0  0
   -9.3811   -3.6247    0.0711 O   0  0  0  0  0  0  0  0  0  0  0  0
   -3.4703   -0.2804    0.0273 O   0  0  0  0  0  0  0  0  0  0  0  0
    5.0404   -0.3806   -1.0314 O   0  0  0  0  0  0  0  0  0  0  0  0
   -8.4324   -0.9458   -0.0872 N   0  0  0  0  0  0  0  0  0  0  0  0
   -2.9785    3.7574   -0.3115 N   0  0  0  0  0  0  0  0  0  0  0  0
   -0.6425    3.4674    0.0607 N   0  0  0  0  0  0  0  0  0  0  0  0
    4.1869   -0.1038    1.1329 N   0  0  0  0  0  0  0  0  0  0  0  0
    6.4610   -0.3689    0.8262 N   0  0  0  0  0  0  0  0  0  0  0  0
   -9.8329   -1.2472    0.2402 C   0  0  0  0  0  0  0  0  0  0  0  0
   -7.8724   -2.0104   -0.9313 C   0  0  0  0  0  0  0  0  0  0  0  0
   -9.9238   -2.6113    0.9183 C   0  0  0  0  0  0  0  0  0  0  0  0
   -8.0102   -3.3570   -0.2265 C   0  0  0  0  0  0  0  0  0  0  0  0
   -8.3220    0.3528   -0.7485 C   0  0  0  0  0  0  0  0  0  0  0  0
   -2.1473    1.5494    0.0349 C   0  0  0  0  0  0  0  0  0  0  0  0
   -1.3410    0.4058    0.2695 C   0  0  0  0  0  0  0  0  0  0  0  0
   -3.4463    1.0752   -0.1074 C   0  0  0  0  0  0  0  0  0  0  0  0
   -6.9698    0.8994   -0.6046 C   0  0  0  0  0  0  0  0  0  0  0  0
    0.0692    0.2751    0.4897 C   0  0  0  0  0  0  0  0  0  0  0  0
   -4.5434    1.8869   -0.3507 C   0  0  0  0  0  0  0  0  0  0  0  0
   -1.9340    2.9243   -0.0737 C   0  0  0  0  0  0  0  0  0  0  0  0
   -2.1906   -0.6762    0.2554 C   0  0  0  0  0  0  0  0  0  0  0  0
   -5.8623    1.3507   -0.4891 C   0  0  0  0  0  0  0  0  0  0  0  0
    0.9300    0.0901   -0.5923 C   0  0  0  0  0  0  0  0  0  0  0  0
    0.5811    0.3336    1.7860 C   0  0  0  0  0  0  0  0  0  0  0  0
   -4.2227    3.2330   -0.4406 C   0  0  0  0  0  0  0  0  0  0  0  0
    2.8141    0.0218    0.9182 C   0  0  0  0  0  0  0  0  0  0  0  0
    2.3024   -0.0366   -0.3780 C   0  0  0  0  0  0  0  0  0  0  0  0
    1.9535    0.2069    2.0003 C   0  0  0  0  0  0  0  0  0  0  0  0
    5.2168   -0.2943    0.1795 C   0  0  0  0  0  0  0  0  0  0  0  0
    7.7364   -0.5534    0.2421 C   0  0  0  0  0  0  0  0  0  0  0  0
    9.1114   -0.8662   -1.7197 C   0  0  0  0  0  0  0  0  0  0  0  0
    7.8550   -0.6849   -1.1414 C   0  0  0  0  0  0  0  0  0  0  0  0
    8.8743   -0.6030    1.0474 C   0  0  0  0  0  0  0  0  0  0  0  0
   10.2493   -0.9157   -0.9143 C   0  0  0  0  0  0  0  0  0  0  0  0
   10.1307   -0.7841    0.4692 C   0  0  0  0  0  0  0  0  0  0  0  0
    9.2389   -1.0073   -3.1991 C   0  0  0  0  0  0  0  0  0  0  0  0
  -10.2390   -0.4895    0.9202 H   0  0  0  0  0  0  0  0  0  0  0  0
  -10.4436   -1.2497   -0.6721 H   0  0  0  0  0  0  0  0  0  0  0  0
   -8.3999   -2.0521   -1.8934 H   0  0  0  0  0  0  0  0  0  0  0  0
   -6.8107   -1.8315   -1.1349 H   0  0  0  0  0  0  0  0  0  0  0  0
   -9.3999   -2.6202    1.8819 H   0  0  0  0  0  0  0  0  0  0  0  0
  -10.9719   -2.8635    1.1090 H   0  0  0  0  0  0  0  0  0  0  0  0
   -7.6493   -4.1581   -0.8795 H   0  0  0  0  0  0  0  0  0  0  0  0
   -7.4210   -3.3919    0.6980 H   0  0  0  0  0  0  0  0  0  0  0  0
   -9.0031    1.0720   -0.2743 H   0  0  0  0  0  0  0  0  0  0  0  0
   -8.6169    0.3023   -1.8040 H   0  0  0  0  0  0  0  0  0  0  0  0
   -2.0533   -1.7407    0.3841 H   0  0  0  0  0  0  0  0  0  0  0  0
    0.5462    0.0436   -1.6089 H   0  0  0  0  0  0  0  0  0  0  0  0
   -0.0759    0.4787    2.6404 H   0  0  0  0  0  0  0  0  0  0  0  0
   -4.9956    3.9742   -0.6292 H   0  0  0  0  0  0  0  0  0  0  0  0
    2.9012   -0.1768   -1.2665 H   0  0  0  0  0  0  0  0  0  0  0  0
    2.3387    0.2548    3.0157 H   0  0  0  0  0  0  0  0  0  0  0  0
   -0.5259    4.4683   -0.0239 H   0  0  0  0  0  0  0  0  0  0  0  0
    0.1600    2.8816    0.2379 H   0  0  0  0  0  0  0  0  0  0  0  0
    4.4840   -0.0507    2.1041 H   0  0  0  0  0  0  0  0  0  0  0  0
    6.4573   -0.2810    1.8393 H   0  0  0  0  0  0  0  0  0  0  0  0
    7.0170   -0.6577   -1.8231 H   0  0  0  0  0  0  0  0  0  0  0  0
   11.2344   -1.0578   -1.3506 H   0  0  0  0  0  0  0  0  0  0  0  0
   11.0163   -0.8231    1.0967 H   0  0  0  0  0  0  0  0  0  0  0  0
   10.2766   -0.8901   -3.5291 H   0  0  0  0  0  0  0  0  0  0  0  0
    8.6482   -0.2406   -3.7118 H   0  0  0  0  0  0  0  0  0  0  0  0
    8.8898   -1.9957   -3.5142 H   0  0  0  0  0  0  0  0  0  0  0  0
  1 34  1  0  0  0  0
  2 12  1  0  0  0  0
  2 13  1  0  0  0  0
  3 17  1  0  0  0  0
  3 22  1  0  0  0  0
  4 30  2  0  0  0  0
  5 10  1  0  0  0  0
  5 11  1  0  0  0  0
  5 14  1  0  0  0  0
  6 21  2  0  0  0  0
  6 26  1  0  0  0  0
  7 21  1  0  0  0  0
  7 54  1  0  0  0  0
  7 55  1  0  0  0  0
  8 27  1  0  0  0  0
  8 30  1  0  0  0  0
  8 56  1  0  0  0  0
  9 30  1  0  0  0  0
  9 31  1  0  0  0  0
  9 57  1  0  0  0  0
 10 12  1  0  0  0  0
 10 38  1  0  0  0  0
 10 39  1  0  0  0  0
 11 13  1  0  0  0  0
 11 40  1  0  0  0  0
 11 41  1  0  0  0  0
 12 42  1  0  0  0  0
 12 43  1  0  0  0  0
 13 44  1  0  0  0  0
 13 45  1  0  0  0  0
 14 18  1  0  0  0  0
 14 46  1  0  0  0  0
 14 47  1  0  0  0  0
 15 16  1  0  0  0  0
 15 17  2  0  0  0  0
 15 21  1  0  0  0  0
 16 19  1  0  0  0  0
 16 22  2  0  0  0  0
 17 20  1  0  0  0  0
 18 23  3  0  0  0  0
 19 24  2  0  0  0  0
 19 25  1  0  0  0  0
 20 23  1  0  0  0  0
 20 26  2  0  0  0  0
 22 48  1  0  0  0  0
 24 28  1  0  0  0  0
 24 49  1  0  0  0  0
 25 29  2  0  0  0  0
 25 50  1  0  0  0  0
 26 51  1  0  0  0  0
 27 28  2  0  0  0  0
 27 29  1  0  0  0  0
 28 52  1  0  0  0  0
 29 53  1  0  0  0  0
 31 33  1  0  0  0  0
 31 34  2  0  0  0  0
 32 33  2  0  0  0  0
 32 35  1  0  0  0  0
 32 37  1  0  0  0  0
 33 58  1  0  0  0  0
 34 36  1  0  0  0  0
 35 36  2  0  0  0  0
 35 59  1  0  0  0  0
 36 60  1  0  0  0  0
 37 61  1  0  0  0  0
 37 62  1  0  0  0  0
 37 63  1  0  0  0  0
M  END
> <PUBCHEM_COMPOUND_CID>
49830347

> <PUBCHEM_CONFORMER_RMSD>
1

> <PUBCHEM_CONFORMER_DIVERSEORDER>
1
14
10
12
25
35
39
42
9
48
40
6
45
30
34
5
23
11
22
41
15
32
47
44
27
13
43
24
8
20
46
26
7
36
19
33
17
29
37
3
4
18
38
16
28
21
31
2

> <PUBCHEM_MMFF94_PARTIAL_CHARGES>
49
1 -0.19
10 0.27
11 0.27
12 0.28
13 0.28
14 0.47
16 -0.05
17 0.14
18 -0.2
19 0.05
2 -0.56
20 0.07
21 0.41
22 -0.01
23 -0.07
24 -0.15
25 -0.15
26 0.16
27 0.12
28 -0.15
29 -0.15
3 -0.28
30 0.69
31 0.12
32 -0.14
33 -0.15
34 0.19
35 -0.15
36 -0.15
37 0.14
4 -0.57
48 0.15
49 0.15
5 -0.81
50 0.15
51 0.15
52 0.15
53 0.15
54 0.4
55 0.4
56 0.37
57 0.37
58 0.15
59 0.15
6 -0.62
60 0.15
7 -0.9
8 -0.55
9 -0.55

> <PUBCHEM_EFFECTIVE_ROTOR_COUNT>
7.2

> <PUBCHEM_PHARMACOPHORE_FEATURES>
13
1 2 acceptor
1 3 acceptor
1 4 acceptor
1 5 cation
1 7 donor
1 8 donor
1 9 donor
3 6 7 21 cation
5 3 15 16 17 22 rings
6 19 24 25 27 28 29 rings
6 2 5 10 11 12 13 rings
6 31 32 33 34 35 36 rings
6 6 15 17 20 21 26 rings

> <PUBCHEM_HEAVY_ATOM_COUNT>
37

> <PUBCHEM_ATOM_DEF_STEREO_COUNT>
0

> <PUBCHEM_ATOM_UDEF_STEREO_COUNT>
0

> <PUBCHEM_BOND_DEF_STEREO_COUNT>
0

> <PUBCHEM_BOND_UDEF_STEREO_COUNT>
0

> <PUBCHEM_ISOTOPIC_ATOM_COUNT>
0

> <PUBCHEM_COMPONENT_COUNT>
1

> <PUBCHEM_CACTVS_TAUTO_COUNT>
6

> <PUBCHEM_CONFORMER_ID>
02F859CB00000001

> <PUBCHEM_MMFF94_ENERGY>
95.9147

> <PUBCHEM_FEATURE_SELFOVERLAP>
66.13

> <PUBCHEM_SHAPE_FINGERPRINT>
10 15 12540992794113468540
10076449 9 18131631166751087289
10162869 55 17168144542474739358
10168742 298 18272662216817436454
11061554 47 7925913672979128695
11756154 67 18409164438048648413
11963148 33 18335126593573611443
12089408 11 17676487216242215584
12539745 222 17917717885880927249
14202775 3 18340769244139455022
14344974 52 18408603687218709320
15183329 4 18262806164843072592
15274700 256 18335978749058896874
15392192 29 18187373147490799563
15461852 350 18333732403442246749
15510794 2 17917993871836984086
16992752 21 18335137579619107417
17686467 74 18411971481974928913
20105231 36 17775283880969720751
20982279 24 17203062815285490326
21927370 108 17561367275278434825
22149856 69 10519990358002478788
23729417 116 18260543390987968757
249057 3 18409729561007549644
3092352 35 18040433266825375098
4339292 15 18411418431767877739
45377200 153 18130784577020794679
4760202 170 14201404906573789166
54039377 194 18335420201800479183
54728670 133 15769507426847055785
6057620 51 17822289050654261306
636775 8 18409168814361561359
9937071 3 17346882243534164662

> <PUBCHEM_SHAPE_MULTIPOLES>
711.66
41.25
3.14
1.6
28.55
1.02
-0.29
-35.79
-8.53
-11.75
-0.42
5.11
-0.46
2

> <PUBCHEM_SHAPE_SELFOVERLAP>
1558.588

> <PUBCHEM_SHAPE_VOLUME>
386.1

> <PUBCHEM_COORDINATE_TYPE>
2
5
10

$$$$
