2305717
  -OEChem-10052115183D

 29 31  0     0  0  0  0  0  0999 V2000
   -6.8288    0.5072    0.0147 Cl  0  0  0  0  0  0  0  0  0  0  0  0
   -0.6084   -1.7647   -0.1917 O   0  0  0  0  0  0  0  0  0  0  0  0
   -0.1443    0.5227    0.0896 N   0  0  0  0  0  0  0  0  0  0  0  0
    4.3535   -1.4542   -0.1853 N   0  0  0  0  0  0  0  0  0  0  0  0
    5.6010   -0.9585   -0.1315 N   0  0  0  0  0  0  0  0  0  0  0  0
    3.3692   -0.5110   -0.0614 C   0  0  0  0  0  0  0  0  0  0  0  0
    4.0382    0.6991    0.0849 C   0  0  0  0  0  0  0  0  0  0  0  0
    1.2512    0.5703    0.0872 C   0  0  0  0  0  0  0  0  0  0  0  0
    1.9766   -0.6159   -0.0652 C   0  0  0  0  0  0  0  0  0  0  0  0
    3.2955    1.8819    0.2370 C   0  0  0  0  0  0  0  0  0  0  0  0
    1.8975    1.7988    0.2358 C   0  0  0  0  0  0  0  0  0  0  0  0
    5.4051    0.3516    0.0328 C   0  0  0  0  0  0  0  0  0  0  0  0
   -2.4289   -0.3255   -0.0314 C   0  0  0  0  0  0  0  0  0  0  0  0
   -0.9684   -0.6016   -0.0451 C   0  0  0  0  0  0  0  0  0  0  0  0
   -3.2883   -1.3129    0.4022 C   0  0  0  0  0  0  0  0  0  0  0  0
   -2.8767    0.9096   -0.4509 C   0  0  0  0  0  0  0  0  0  0  0  0
   -4.6586   -1.0535    0.4168 C   0  0  0  0  0  0  0  0  0  0  0  0
   -4.2472    1.1692   -0.4363 C   0  0  0  0  0  0  0  0  0  0  0  0
   -5.1382    0.1876   -0.0023 C   0  0  0  0  0  0  0  0  0  0  0  0
    1.5490   -1.5983   -0.1848 H   0  0  0  0  0  0  0  0  0  0  0  0
    3.7870    2.8429    0.3534 H   0  0  0  0  0  0  0  0  0  0  0  0
    1.3215    2.7143    0.3532 H   0  0  0  0  0  0  0  0  0  0  0  0
   -0.5839    1.4245    0.2505 H   0  0  0  0  0  0  0  0  0  0  0  0
    4.2410   -2.4527   -0.3088 H   0  0  0  0  0  0  0  0  0  0  0  0
    6.2662    1.0007    0.1080 H   0  0  0  0  0  0  0  0  0  0  0  0
   -2.9312   -2.2820    0.7378 H   0  0  0  0  0  0  0  0  0  0  0  0
   -2.2244    1.6868   -0.8348 H   0  0  0  0  0  0  0  0  0  0  0  0
   -5.3413   -1.8273    0.7586 H   0  0  0  0  0  0  0  0  0  0  0  0
   -4.6078    2.1374   -0.7744 H   0  0  0  0  0  0  0  0  0  0  0  0
  1 19  1  0  0  0  0
  2 14  2  0  0  0  0
  3  8  1  0  0  0  0
  3 14  1  0  0  0  0
  3 23  1  0  0  0  0
  4  5  1  0  0  0  0
  4  6  1  0  0  0  0
  4 24  1  0  0  0  0
  5 12  2  0  0  0  0
  6  7  2  0  0  0  0
  6  9  1  0  0  0  0
  7 10  1  0  0  0  0
  7 12  1  0  0  0  0
  8  9  2  0  0  0  0
  8 11  1  0  0  0  0
  9 20  1  0  0  0  0
 10 11  2  0  0  0  0
 10 21  1  0  0  0  0
 11 22  1  0  0  0  0
 12 25  1  0  0  0  0
 13 14  1  0  0  0  0
 13 15  2  0  0  0  0
 13 16  1  0  0  0  0
 15 17  1  0  0  0  0
 15 26  1  0  0  0  0
 16 18  2  0  0  0  0
 16 27  1  0  0  0  0
 17 19  2  0  0  0  0
 17 28  1  0  0  0  0
 18 19  1  0  0  0  0
 18 29  1  0  0  0  0
M  END
> <PUBCHEM_COMPOUND_CID>
2305717

> <PUBCHEM_CONFORMER_RMSD>
0.6

> <PUBCHEM_CONFORMER_DIVERSEORDER>
1
4
6
5
2
3

> <PUBCHEM_MMFF94_PARTIAL_CHARGES>
28
1 -0.18
10 -0.15
11 -0.15
12 0.14
13 0.09
14 0.54
15 -0.15
16 -0.15
17 -0.15
18 -0.15
19 0.18
2 -0.57
20 0.15
21 0.15
22 0.15
23 0.37
24 0.27
25 0.15
26 0.15
27 0.15
28 0.15
29 0.15
3 -0.55
4 0.3
5 -0.71
6 -0.15
8 0.12
9 -0.15

> <PUBCHEM_EFFECTIVE_ROTOR_COUNT>
3

> <PUBCHEM_PHARMACOPHORE_FEATURES>
7
1 2 acceptor
1 3 donor
1 4 donor
1 5 acceptor
5 4 5 6 7 12 rings
6 13 15 16 17 18 19 rings
6 6 7 8 9 10 11 rings

> <PUBCHEM_HEAVY_ATOM_COUNT>
19

> <PUBCHEM_ATOM_DEF_STEREO_COUNT>
0

> <PUBCHEM_ATOM_UDEF_STEREO_COUNT>
0

> <PUBCHEM_BOND_DEF_STEREO_COUNT>
0

> <PUBCHEM_BOND_UDEF_STEREO_COUNT>
0

> <PUBCHEM_ISOTOPIC_ATOM_COUNT>
0

> <PUBCHEM_COMPONENT_COUNT>
1

> <PUBCHEM_CACTVS_TAUTO_COUNT>
5

> <PUBCHEM_CONFORMER_ID>
00232EB500000001

> <PUBCHEM_MMFF94_ENERGY>
50.8047

> <PUBCHEM_FEATURE_SELFOVERLAP>
35.613

> <PUBCHEM_SHAPE_FINGERPRINT>
10366900 7 15357695301596243213
12107183 9 17688024215394949665
12236239 1 17346597474074437901
12403259 415 18261101972515732221
13081056 2 18408319999532059493
13167372 99 18131075888020843369
13167823 11 18340483464824181407
13533116 47 17060341782357708958
13675066 3 18338796818155143536
14251764 18 18410009957171807528
14341114 176 18335144210742787129
15099037 51 18412825785028654382
15183329 4 18411703157860387768
15196674 1 18410855507393933545
15242439 84 18334012796013215633
15788980 27 18060136561183778805
17834072 8 18411702075607704932
17844677 252 18408892844963757533
1813 80 16805318920459001108
18186145 218 17895182333500604496
19141452 34 18412261778597810887
19433438 28 18260548948278808297
200 152 17846497032601877665
20281389 69 18333730209051964609
20645477 70 18343023264118228038
21033648 29 18262784242549531789
21065198 57 18337391646679490339
21267235 1 18412551985664721910
21279426 13 18193838132841005943
221357 26 18411978048826742005
2215653 11 18413107247088743463
22224240 67 16774068576096123398
23402539 116 17989201560418570549
23536379 177 18341895182140840385
23559900 14 18410289254679551961
239999 70 18410577284557006406
26918003 58 18343584053148912659
29717793 49 17561089098572453420
300161 21 17561077051310260332
3004659 81 18260269612760410742
335352 9 18412263935019429830
351380 180 18412261753043979365
3545911 37 18334012787760917109
4073 2 17968663829683360994
42 15 18335140911901636948
4214541 1 18409448089919513881
5104073 3 18338515347436484201
542803 24 14129055911419781869
59755656 215 18260829263588228519
59755656 520 17530961398046087491
633830 44 17822567325748525627
77779 3 18408886273589512881
9709674 26 18191026904957949715
9996256 80 18412825815826758871

> <PUBCHEM_SHAPE_MULTIPOLES>
372.07
14.86
1.64
0.65
5.96
0.12
-0.01
0.28
-0.02
-0.64
-0.04
0.16
0.02
0.62

> <PUBCHEM_SHAPE_SELFOVERLAP>
817.051

> <PUBCHEM_SHAPE_VOLUME>
202.1

> <PUBCHEM_COORDINATE_TYPE>
2
5
10

$$$$
