11477626
  -OEChem-10062121593D

 62 65  0     1  0  0  0  0  0999 V2000
    3.5289    3.4166   -1.4303 F   0  0  0  0  0  0  0  0  0  0  0  0
    7.3052    1.7955    0.9038 F   0  0  0  0  0  0  0  0  0  0  0  0
   -7.6892    0.6047    1.7886 O   0  0  0  0  0  0  0  0  0  0  0  0
   -5.6380   -0.0528   -0.0543 O   0  0  0  0  0  0  0  0  0  0  0  0
   -4.6617   -1.9455   -0.8862 O   0  0  0  0  0  0  0  0  0  0  0  0
    6.8851   -0.3431    2.3709 O   0  0  0  0  0  0  0  0  0  0  0  0
    6.2626   -2.9275    2.0162 O   0  0  0  0  0  0  0  0  0  0  0  0
   -0.3971   -1.5847   -1.4420 N   0  0  0  0  0  0  0  0  0  0  0  0
   -3.4092   -0.0207   -0.4009 N   0  0  0  0  0  0  0  0  0  0  0  0
    2.1141    1.0798   -0.8962 N   0  0  0  0  0  0  0  0  0  0  0  0
    0.3648   -2.5957   -1.9247 N   0  0  0  0  0  0  0  0  0  0  0  0
    2.2394   -1.0990   -1.6928 N   0  0  0  0  0  0  0  0  0  0  0  0
    5.6247   -1.9241    1.2609 N   0  0  0  0  0  0  0  0  0  0  0  0
   -7.9719    0.2443    0.4259 C   0  0  2  0  0  0  0  0  0  0  0  0
   -9.3703   -0.3485    0.4263 C   0  0  0  0  0  0  0  0  0  0  0  0
  -10.0390    0.4601    1.5095 C   0  0  0  0  0  0  0  0  0  0  0  0
   -8.9233    0.6104    2.5217 C   0  0  0  0  0  0  0  0  0  0  0  0
   -6.9103   -0.7103   -0.0849 C   0  0  0  0  0  0  0  0  0  0  0  0
   -0.9506    0.4159   -0.6398 C   0  0  0  0  0  0  0  0  0  0  0  0
   -0.8977    1.8098   -0.1510 C   0  0  0  0  0  0  0  0  0  0  0  0
    0.0994   -0.3578   -1.0844 C   0  0  0  0  0  0  0  0  0  0  0  0
   -2.1222   -0.3769   -0.7346 C   0  0  0  0  0  0  0  0  0  0  0  0
   -1.7513   -1.6077   -1.2329 C   0  0  0  0  0  0  0  0  0  0  0  0
   -1.7070    2.7967   -1.0221 C   0  0  0  0  0  0  0  0  0  0  0  0
   -1.3304    1.9585    1.3249 C   0  0  0  0  0  0  0  0  0  0  0  0
    1.5149   -0.1130   -1.2249 C   0  0  0  0  0  0  0  0  0  0  0  0
   -4.5689   -0.7905   -0.4891 C   0  0  0  0  0  0  0  0  0  0  0  0
    1.6294   -2.2958   -2.0212 C   0  0  0  0  0  0  0  0  0  0  0  0
    3.4176    1.2593   -0.4417 C   0  0  0  0  0  0  0  0  0  0  0  0
    4.0583    0.2563    0.3033 C   0  0  0  0  0  0  0  0  0  0  0  0
    4.1180    2.4441   -0.7202 C   0  0  0  0  0  0  0  0  0  0  0  0
    5.3651    0.4330    0.7576 C   0  0  0  0  0  0  0  0  0  0  0  0
    5.4251    2.6208   -0.2658 C   0  0  0  0  0  0  0  0  0  0  0  0
    6.0486    1.6153    0.4730 C   0  0  0  0  0  0  0  0  0  0  0  0
    6.0124   -0.6177    1.5273 C   0  0  0  0  0  0  0  0  0  0  0  0
    6.3245   -4.1099    1.2304 C   0  0  0  0  0  0  0  0  0  0  0  0
   -7.9470    1.1771   -0.1510 H   0  0  0  0  0  0  0  0  0  0  0  0
   -9.8661   -0.2681   -0.5449 H   0  0  0  0  0  0  0  0  0  0  0  0
   -9.3500   -1.4061    0.7161 H   0  0  0  0  0  0  0  0  0  0  0  0
  -10.9320   -0.0136    1.9255 H   0  0  0  0  0  0  0  0  0  0  0  0
  -10.3235    1.4437    1.1172 H   0  0  0  0  0  0  0  0  0  0  0  0
   -9.0036    1.5345    3.1010 H   0  0  0  0  0  0  0  0  0  0  0  0
   -8.9013   -0.2364    3.2157 H   0  0  0  0  0  0  0  0  0  0  0  0
   -7.1379   -1.0163   -1.1123 H   0  0  0  0  0  0  0  0  0  0  0  0
   -6.8553   -1.5947    0.5610 H   0  0  0  0  0  0  0  0  0  0  0  0
    0.1194    2.1898   -0.1581 H   0  0  0  0  0  0  0  0  0  0  0  0
   -2.3142   -2.5021   -1.4614 H   0  0  0  0  0  0  0  0  0  0  0  0
   -2.7842    2.6168   -0.9794 H   0  0  0  0  0  0  0  0  0  0  0  0
   -1.5336    3.8267   -0.6909 H   0  0  0  0  0  0  0  0  0  0  0  0
   -1.3968    2.7269   -2.0707 H   0  0  0  0  0  0  0  0  0  0  0  0
   -0.7541    1.2812    1.9651 H   0  0  0  0  0  0  0  0  0  0  0  0
   -1.1501    2.9815    1.6736 H   0  0  0  0  0  0  0  0  0  0  0  0
   -2.3906    1.7429    1.4803 H   0  0  0  0  0  0  0  0  0  0  0  0
   -3.5380    0.9195   -0.0450 H   0  0  0  0  0  0  0  0  0  0  0  0
    1.6492    1.9412   -1.1601 H   0  0  0  0  0  0  0  0  0  0  0  0
    2.3051   -3.0768   -2.4073 H   0  0  0  0  0  0  0  0  0  0  0  0
    3.5069   -0.6425    0.5683 H   0  0  0  0  0  0  0  0  0  0  0  0
    5.9571    3.5410   -0.4877 H   0  0  0  0  0  0  0  0  0  0  0  0
    4.9816   -2.2227    0.5356 H   0  0  0  0  0  0  0  0  0  0  0  0
    6.8718   -3.9259    0.3001 H   0  0  0  0  0  0  0  0  0  0  0  0
    6.8573   -4.8747    1.8019 H   0  0  0  0  0  0  0  0  0  0  0  0
    5.3170   -4.4780    1.0117 H   0  0  0  0  0  0  0  0  0  0  0  0
  1 31  1  0  0  0  0
  2 34  1  0  0  0  0
  3 14  1  0  0  0  0
  3 17  1  0  0  0  0
  4 18  1  0  0  0  0
  4 27  1  0  0  0  0
  5 27  2  0  0  0  0
  6 35  2  0  0  0  0
  7 13  1  0  0  0  0
  7 36  1  0  0  0  0
  8 11  1  0  0  0  0
  8 21  1  0  0  0  0
  8 23  1  0  0  0  0
  9 22  1  0  0  0  0
  9 27  1  0  0  0  0
  9 54  1  0  0  0  0
 10 26  1  0  0  0  0
 10 29  1  0  0  0  0
 10 55  1  0  0  0  0
 11 28  2  0  0  0  0
 12 26  2  0  0  0  0
 12 28  1  0  0  0  0
 13 35  1  0  0  0  0
 13 59  1  0  0  0  0
 14 15  1  0  0  0  0
 14 18  1  0  0  0  0
 14 37  1  0  0  0  0
 15 16  1  0  0  0  0
 15 38  1  0  0  0  0
 15 39  1  0  0  0  0
 16 17  1  0  0  0  0
 16 40  1  0  0  0  0
 16 41  1  0  0  0  0
 17 42  1  0  0  0  0
 17 43  1  0  0  0  0
 18 44  1  0  0  0  0
 18 45  1  0  0  0  0
 19 20  1  0  0  0  0
 19 21  2  0  0  0  0
 19 22  1  0  0  0  0
 20 24  1  0  0  0  0
 20 25  1  0  0  0  0
 20 46  1  0  0  0  0
 21 26  1  0  0  0  0
 22 23  2  0  0  0  0
 23 47  1  0  0  0  0
 24 48  1  0  0  0  0
 24 49  1  0  0  0  0
 24 50  1  0  0  0  0
 25 51  1  0  0  0  0
 25 52  1  0  0  0  0
 25 53  1  0  0  0  0
 28 56  1  0  0  0  0
 29 30  1  0  0  0  0
 29 31  2  0  0  0  0
 30 32  2  0  0  0  0
 30 57  1  0  0  0  0
 31 33  1  0  0  0  0
 32 34  1  0  0  0  0
 32 35  1  0  0  0  0
 33 34  2  0  0  0  0
 33 58  1  0  0  0  0
 36 60  1  0  0  0  0
 36 61  1  0  0  0  0
 36 62  1  0  0  0  0
M  END
> <PUBCHEM_COMPOUND_CID>
11477626

> <PUBCHEM_CONFORMER_RMSD>
1.2

> <PUBCHEM_CONFORMER_DIVERSEORDER>
2
21
19
14
8
35
25
3
17
29
12
15
32
16
20
28
30
34
11
23
31
24
18
1
22
27
7
33
9
6
13
5
36
10
4
26

> <PUBCHEM_MMFF94_PARTIAL_CHARGES>
39
1 -0.19
10 -0.55
11 -0.65
12 -0.66
13 -0.39
14 0.28
17 0.28
18 0.28
19 -0.18
2 -0.19
20 0.18
21 -0.24
22 0.06
23 -0.3
26 0.58
27 0.78
28 0.6
29 0.1
3 -0.56
30 -0.15
31 0.19
32 0.09
33 -0.15
34 0.19
35 0.54
36 0.28
4 -0.43
47 0.15
5 -0.57
54 0.37
55 0.4
56 0.06
57 0.15
58 0.15
59 0.37
6 -0.57
7 -0.32
8 0.51
9 -0.49

> <PUBCHEM_EFFECTIVE_ROTOR_COUNT>
12

> <PUBCHEM_PHARMACOPHORE_FEATURES>
13
1 10 donor
1 13 donor
1 3 acceptor
1 5 acceptor
1 6 acceptor
1 9 donor
3 10 12 26 cation
3 11 12 28 cation
3 20 24 25 hydrophobe
5 3 14 15 16 17 rings
5 8 19 21 22 23 rings
6 29 30 31 32 33 34 rings
6 8 11 12 21 26 28 rings

> <PUBCHEM_HEAVY_ATOM_COUNT>
36

> <PUBCHEM_ATOM_DEF_STEREO_COUNT>
0

> <PUBCHEM_ATOM_UDEF_STEREO_COUNT>
1

> <PUBCHEM_BOND_DEF_STEREO_COUNT>
0

> <PUBCHEM_BOND_UDEF_STEREO_COUNT>
0

> <PUBCHEM_ISOTOPIC_ATOM_COUNT>
0

> <PUBCHEM_COMPONENT_COUNT>
1

> <PUBCHEM_CACTVS_TAUTO_COUNT>
12

> <PUBCHEM_CONFORMER_ID>
00AF227A00000002

> <PUBCHEM_MMFF94_ENERGY>
95.9817

> <PUBCHEM_FEATURE_SELFOVERLAP>
66.206

> <PUBCHEM_SHAPE_FINGERPRINT>
10 15 18408610288388199629
10533779 47 17894354346175264699
10906281 52 18268444588759748903
11135609 127 10087629404617289826
11297750 10 17979653242413539527
11456790 92 18343865528510992665
11607047 141 17346880019553527506
11607047 74 14419567873310938607
12107183 9 18050836733851018744
12838862 33 17917705795959782537
13533116 47 18187357745221000248
14068700 675 12757142485592033135
14294032 229 17560792264708290381
14394314 77 18200305662236866144
14849402 71 17845945108832254265
15064986 96 17916292854835732270
16728300 4 18119227503485779554
16991971 28 12612753519389502153
16994733 274 14692276357428309531
19302320 297 18340211890085172461
20554085 129 16773794805230653038
20578428 11 13335033737378881710
21057603 238 17315347025820619215
21298829 104 17917723409515057865
21362857 166 11963653501243090792
21781055 127 17775018890309470292
21792934 111 18201441320931208927
21814621 53 17168128032441385325
22149856 69 17702963430986534961
23569914 2 13468707769204997938
23569943 247 14492688497002658368
23576562 1 11527364032082845459
24771293 8 18060419145016575573
3918712 181 17274822492800286113
4093350 32 16343434920928028781
445580 126 18131915957790281125
5372103 7 13110662987904742234
5758199 1 17846504742706354173
5937810 71 14189032051214293611
9831232 110 14996554071391010603

> <PUBCHEM_SHAPE_MULTIPOLES>
667.08
27.12
3.36
2.03
53.3
1.03
0.67
0.58
22.54
-7.86
-0.28
-0.52
0.83
-3.62

> <PUBCHEM_SHAPE_SELFOVERLAP>
1432.581

> <PUBCHEM_SHAPE_VOLUME>
369.4

> <PUBCHEM_COORDINATE_TYPE>
2
5
10

$$$$
