25141092
  -OEChem-10052120433D

 75 80  0     0  0  0  0  0  0999 V2000
    6.5286   -2.6051    1.5158 F   0  0  0  0  0  0  0  0  0  0  0  0
    3.3127   -4.8013   -1.1793 F   0  0  0  0  0  0  0  0  0  0  0  0
    1.2746   -2.3697    1.8400 O   0  0  0  0  0  0  0  0  0  0  0  0
   -1.1793    4.0066    1.0908 O   0  0  0  0  0  0  0  0  0  0  0  0
   -5.6561   -0.2040   -0.4303 N   0  0  0  0  0  0  0  0  0  0  0  0
   -7.8389   -1.9514   -1.0145 N   0  0  0  0  0  0  0  0  0  0  0  0
   -1.2617    0.2423    1.5500 N   0  0  0  0  0  0  0  0  0  0  0  0
    0.1602    2.4035    0.0226 N   0  0  0  0  0  0  0  0  0  0  0  0
    3.0059    4.3351    0.4935 N   0  0  0  0  0  0  0  0  0  0  0  0
    1.6850    4.1605    0.6650 N   0  0  0  0  0  0  0  0  0  0  0  0
   -1.3098   -1.0989    2.0981 C   0  0  0  0  0  0  0  0  0  0  0  0
   -0.9983   -2.1274    1.0090 C   0  0  0  0  0  0  0  0  0  0  0  0
   -0.3250   -1.2203    3.2620 C   0  0  0  0  0  0  0  0  0  0  0  0
   -6.0751   -1.2091    0.5513 C   0  0  0  0  0  0  0  0  0  0  0  0
   -6.0195   -0.4874   -1.8245 C   0  0  0  0  0  0  0  0  0  0  0  0
   -7.5556   -1.5530    0.3696 C   0  0  0  0  0  0  0  0  0  0  0  0
   -7.5018   -0.8534   -1.9291 C   0  0  0  0  0  0  0  0  0  0  0  0
   -4.5102    0.5630   -0.1925 C   0  0  0  0  0  0  0  0  0  0  0  0
    0.4882   -2.1700    0.6666 C   0  0  0  0  0  0  0  0  0  0  0  0
    1.1189   -1.3065    2.7781 C   0  0  0  0  0  0  0  0  0  0  0  0
   -2.3158    0.7974    0.7907 C   0  0  0  0  0  0  0  0  0  0  0  0
   -3.4577    0.0323    0.5534 C   0  0  0  0  0  0  0  0  0  0  0  0
   -2.2265    2.0932    0.2823 C   0  0  0  0  0  0  0  0  0  0  0  0
   -4.4208    1.8589   -0.7008 C   0  0  0  0  0  0  0  0  0  0  0  0
   -9.2441   -2.3290   -1.1625 C   0  0  0  0  0  0  0  0  0  0  0  0
   -3.2789    2.6240   -0.4634 C   0  0  0  0  0  0  0  0  0  0  0  0
   -1.0470    2.9180    0.5118 C   0  0  0  0  0  0  0  0  0  0  0  0
    1.4505    2.9858    0.0763 C   0  0  0  0  0  0  0  0  0  0  0  0
    2.6144    2.4058   -0.4727 C   0  0  0  0  0  0  0  0  0  0  0  0
    3.6233    3.3174   -0.1825 C   0  0  0  0  0  0  0  0  0  0  0  0
    2.9301    1.2298   -1.1732 C   0  0  0  0  0  0  0  0  0  0  0  0
    4.2600    1.0165   -1.5573 C   0  0  0  0  0  0  0  0  0  0  0  0
    4.6177   -0.2262   -2.3036 C   0  0  0  0  0  0  0  0  0  0  0  0
    4.9551    3.1240   -0.5557 C   0  0  0  0  0  0  0  0  0  0  0  0
    5.2536    1.9488   -1.2528 C   0  0  0  0  0  0  0  0  0  0  0  0
    4.7250   -1.4577   -1.4282 C   0  0  0  0  0  0  0  0  0  0  0  0
    3.9542   -2.5849   -1.7126 C   0  0  0  0  0  0  0  0  0  0  0  0
    5.5947   -1.4645   -0.3377 C   0  0  0  0  0  0  0  0  0  0  0  0
    5.6936   -2.5985    0.4684 C   0  0  0  0  0  0  0  0  0  0  0  0
    4.0530   -3.7188   -0.9063 C   0  0  0  0  0  0  0  0  0  0  0  0
    4.9227   -3.7256    0.1842 C   0  0  0  0  0  0  0  0  0  0  0  0
   -2.2977   -1.2935    2.5320 H   0  0  0  0  0  0  0  0  0  0  0  0
   -1.5742   -1.9646    0.0928 H   0  0  0  0  0  0  0  0  0  0  0  0
   -1.2836   -3.1151    1.3944 H   0  0  0  0  0  0  0  0  0  0  0  0
   -0.5573   -2.1428    3.8099 H   0  0  0  0  0  0  0  0  0  0  0  0
   -0.4362   -0.3857    3.9638 H   0  0  0  0  0  0  0  0  0  0  0  0
   -5.9369   -0.8357    1.5737 H   0  0  0  0  0  0  0  0  0  0  0  0
   -5.4725   -2.1193    0.4360 H   0  0  0  0  0  0  0  0  0  0  0  0
   -5.3995   -1.3131   -2.1972 H   0  0  0  0  0  0  0  0  0  0  0  0
   -5.8350    0.3740   -2.4767 H   0  0  0  0  0  0  0  0  0  0  0  0
   -7.8035   -2.3730    1.0546 H   0  0  0  0  0  0  0  0  0  0  0  0
   -8.1707   -0.6897    0.6578 H   0  0  0  0  0  0  0  0  0  0  0  0
   -8.1147    0.0325   -1.7146 H   0  0  0  0  0  0  0  0  0  0  0  0
   -7.7090   -1.1511   -2.9642 H   0  0  0  0  0  0  0  0  0  0  0  0
   -0.4180    0.7910    1.6643 H   0  0  0  0  0  0  0  0  0  0  0  0
    0.6881   -3.0041   -0.0137 H   0  0  0  0  0  0  0  0  0  0  0  0
    0.8105   -1.2513    0.1630 H   0  0  0  0  0  0  0  0  0  0  0  0
    1.4553   -0.3668    2.3250 H   0  0  0  0  0  0  0  0  0  0  0  0
    1.7798   -1.5134    3.6260 H   0  0  0  0  0  0  0  0  0  0  0  0
   -3.5453   -0.9828    0.9207 H   0  0  0  0  0  0  0  0  0  0  0  0
   -5.2357    2.2956   -1.2722 H   0  0  0  0  0  0  0  0  0  0  0  0
   -9.4467   -2.6608   -2.1868 H   0  0  0  0  0  0  0  0  0  0  0  0
   -9.9238   -1.5020   -0.9269 H   0  0  0  0  0  0  0  0  0  0  0  0
   -9.4863   -3.1722   -0.5061 H   0  0  0  0  0  0  0  0  0  0  0  0
   -3.2237    3.6327   -0.8651 H   0  0  0  0  0  0  0  0  0  0  0  0
    0.1316    1.5045   -0.4533 H   0  0  0  0  0  0  0  0  0  0  0  0
    2.1582    0.5037   -1.4116 H   0  0  0  0  0  0  0  0  0  0  0  0
    3.8751   -0.3855   -3.0972 H   0  0  0  0  0  0  0  0  0  0  0  0
    5.5719   -0.1008   -2.8329 H   0  0  0  0  0  0  0  0  0  0  0  0
    3.4288    5.1768    0.8643 H   0  0  0  0  0  0  0  0  0  0  0  0
    5.7255    3.8491   -0.3181 H   0  0  0  0  0  0  0  0  0  0  0  0
    6.2838    1.7729   -1.5555 H   0  0  0  0  0  0  0  0  0  0  0  0
    3.2714   -2.5942   -2.5577 H   0  0  0  0  0  0  0  0  0  0  0  0
    6.2129   -0.6026   -0.1043 H   0  0  0  0  0  0  0  0  0  0  0  0
    4.9992   -4.6082    0.8121 H   0  0  0  0  0  0  0  0  0  0  0  0
  1 39  1  0  0  0  0
  2 40  1  0  0  0  0
  3 19  1  0  0  0  0
  3 20  1  0  0  0  0
  4 27  2  0  0  0  0
  5 14  1  0  0  0  0
  5 15  1  0  0  0  0
  5 18  1  0  0  0  0
  6 16  1  0  0  0  0
  6 17  1  0  0  0  0
  6 25  1  0  0  0  0
  7 11  1  0  0  0  0
  7 21  1  0  0  0  0
  7 55  1  0  0  0  0
  8 27  1  0  0  0  0
  8 28  1  0  0  0  0
  8 66  1  0  0  0  0
  9 10  1  0  0  0  0
  9 30  1  0  0  0  0
  9 70  1  0  0  0  0
 10 28  2  0  0  0  0
 11 12  1  0  0  0  0
 11 13  1  0  0  0  0
 11 42  1  0  0  0  0
 12 19  1  0  0  0  0
 12 43  1  0  0  0  0
 12 44  1  0  0  0  0
 13 20  1  0  0  0  0
 13 45  1  0  0  0  0
 13 46  1  0  0  0  0
 14 16  1  0  0  0  0
 14 47  1  0  0  0  0
 14 48  1  0  0  0  0
 15 17  1  0  0  0  0
 15 49  1  0  0  0  0
 15 50  1  0  0  0  0
 16 51  1  0  0  0  0
 16 52  1  0  0  0  0
 17 53  1  0  0  0  0
 17 54  1  0  0  0  0
 18 22  2  0  0  0  0
 18 24  1  0  0  0  0
 19 56  1  0  0  0  0
 19 57  1  0  0  0  0
 20 58  1  0  0  0  0
 20 59  1  0  0  0  0
 21 22  1  0  0  0  0
 21 23  2  0  0  0  0
 22 60  1  0  0  0  0
 23 26  1  0  0  0  0
 23 27  1  0  0  0  0
 24 26  2  0  0  0  0
 24 61  1  0  0  0  0
 25 62  1  0  0  0  0
 25 63  1  0  0  0  0
 25 64  1  0  0  0  0
 26 65  1  0  0  0  0
 28 29  1  0  0  0  0
 29 30  2  0  0  0  0
 29 31  1  0  0  0  0
 30 34  1  0  0  0  0
 31 32  2  0  0  0  0
 31 67  1  0  0  0  0
 32 33  1  0  0  0  0
 32 35  1  0  0  0  0
 33 36  1  0  0  0  0
 33 68  1  0  0  0  0
 33 69  1  0  0  0  0
 34 35  2  0  0  0  0
 34 71  1  0  0  0  0
 35 72  1  0  0  0  0
 36 37  2  0  0  0  0
 36 38  1  0  0  0  0
 37 40  1  0  0  0  0
 37 73  1  0  0  0  0
 38 39  2  0  0  0  0
 38 74  1  0  0  0  0
 39 41  1  0  0  0  0
 40 41  2  0  0  0  0
 41 75  1  0  0  0  0
M  END
> <PUBCHEM_COMPOUND_CID>
25141092

> <PUBCHEM_CONFORMER_RMSD>
1.2

> <PUBCHEM_CONFORMER_DIVERSEORDER>
1
60
96
110
52
97
84
66
105
45
89
30
69
120
103
98
78
90
65
118
54
63
26
114
92
50
95
115
87
111
119
85
46
83
70
88
93
104
48
7
31
81
100
59
76
75
77
71
56
68
62
94
91
99
32
82
64
39
101
112
33
29
47
113
38
79
116
107
73
4
102
86
80
72
28
57
34
53
2
74
106
49
109
108
117
22
67
24
51
27
61
43
40
37
18
42
35
11
36
17
10
9
15
25
44
55
58
5
21
19
12
41
23
3
16
20
8
13
6
14

> <PUBCHEM_MMFF94_PARTIAL_CHARGES>
50
1 -0.19
10 -0.71
11 0.37
14 0.37
15 0.37
16 0.27
17 0.27
18 0.1
19 0.28
2 -0.19
20 0.28
21 0.1
22 -0.15
23 0.09
24 -0.15
25 0.27
26 -0.15
27 0.54
28 0.35
3 -0.56
30 -0.15
31 -0.15
32 -0.14
33 0.29
34 -0.15
35 -0.15
36 -0.14
37 -0.15
38 -0.15
39 0.19
4 -0.57
40 0.19
41 -0.15
5 -0.84
55 0.4
6 -0.81
60 0.15
61 0.15
65 0.15
66 0.37
67 0.15
7 -0.87
70 0.27
71 0.15
72 0.15
73 0.15
74 0.15
75 0.15
8 -0.49
9 0.3

> <PUBCHEM_EFFECTIVE_ROTOR_COUNT>
10.4

> <PUBCHEM_PHARMACOPHORE_FEATURES>
14
1 3 acceptor
1 4 acceptor
1 5 cation
1 6 cation
1 7 cation
1 7 donor
1 8 donor
1 9 donor
5 9 10 28 29 30 rings
6 18 21 22 23 24 26 rings
6 29 30 31 32 34 35 rings
6 3 11 12 13 19 20 rings
6 36 37 38 39 40 41 rings
6 5 6 14 15 16 17 rings

> <PUBCHEM_HEAVY_ATOM_COUNT>
41

> <PUBCHEM_ATOM_DEF_STEREO_COUNT>
0

> <PUBCHEM_ATOM_UDEF_STEREO_COUNT>
0

> <PUBCHEM_BOND_DEF_STEREO_COUNT>
0

> <PUBCHEM_BOND_UDEF_STEREO_COUNT>
0

> <PUBCHEM_ISOTOPIC_ATOM_COUNT>
0

> <PUBCHEM_COMPONENT_COUNT>
1

> <PUBCHEM_CACTVS_TAUTO_COUNT>
21

> <PUBCHEM_CONFORMER_ID>
017F9F6400000001

> <PUBCHEM_MMFF94_ENERGY>
121.7582

> <PUBCHEM_FEATURE_SELFOVERLAP>
71.144

> <PUBCHEM_SHAPE_FINGERPRINT>
10693767 8 18341606071102797439
11607047 403 18057867208524960384
12124843 1 18189070719696458142
12838863 1 18262230029002799994
1361 2 18271813478922233596
13782708 43 18259990344821754397
14347332 77 18341335496368300021
15160629 131 18200612327127696039
15320295 40 17896026656116990818
15351339 4 18260829284968055112
15444296 7 18131338726854998894
15840311 113 10881941893416321749
16067689 302 18263654008319538451
17324776 126 17974847268478301618
19311894 1 17907304251808161552
19315092 285 17632579323394199040
19958102 18 17967537878189346781
20764821 26 17832175761091606450
20775438 99 18196638803975010351
21344244 246 18337106860657547331
21792938 131 18342453755749550889
2260408 40 11743832595134902571
23569914 152 17908116817477904141
397830 11 10375867516026298885
4066623 53 18186796959556913956
4173938 188 17488459849194240772
44344687 77 18337408110112530451
45266715 3 18334573594436259888
50009960 94 18263068938893684498
56611832 218 17762054741938681275
57527295 17 18269012924497443428
6004065 56 18410853244695579658
6669772 16 18267864067531019344
6700243 42 17697884670038604686

> <PUBCHEM_SHAPE_MULTIPOLES>
787.59
19.74
5.95
2.2
34.95
1.4
-0.92
-15.09
11.78
-8.93
-0.22
-0.11
-1.42
-1.01

> <PUBCHEM_SHAPE_SELFOVERLAP>
1718.238

> <PUBCHEM_SHAPE_VOLUME>
429

> <PUBCHEM_COORDINATE_TYPE>
2
5
10

$$$$
