23647212
  -OEChem-10062121563D

 37 39  0     0  0  0  0  0  0999 V2000
    5.4402   -0.6155   -0.1870 Cl  0  0  0  0  0  0  0  0  0  0  0  0
   -1.1787   -1.7274    0.8089 O   0  0  0  0  0  0  0  0  0  0  0  0
    1.4507    2.9235   -0.5605 O   0  0  0  0  0  0  0  0  0  0  0  0
   -0.4881   -0.5728    0.4682 N   0  0  0  0  0  0  0  0  0  0  0  0
   -2.4636    0.8226    0.3684 N   0  0  0  0  0  0  0  0  0  0  0  0
   -2.7982    2.1042    0.1093 N   0  0  0  0  0  0  0  0  0  0  0  0
   -1.1279    0.5970    0.2698 C   0  0  0  0  0  0  0  0  0  0  0  0
   -0.5459    1.7891   -0.0722 C   0  0  0  0  0  0  0  0  0  0  0  0
    0.9313   -0.5935    0.3132 C   0  0  0  0  0  0  0  0  0  0  0  0
    1.6317    0.5968   -0.0419 C   0  0  0  0  0  0  0  0  0  0  0  0
    0.8825    1.8844   -0.2558 C   0  0  0  0  0  0  0  0  0  0  0  0
   -1.6217    2.6879   -0.1588 C   0  0  0  0  0  0  0  0  0  0  0  0
    1.6684   -1.7703    0.5038 C   0  0  0  0  0  0  0  0  0  0  0  0
    3.0210    0.5876   -0.1961 C   0  0  0  0  0  0  0  0  0  0  0  0
   -1.5227   -2.3549   -0.4183 C   0  0  0  0  0  0  0  0  0  0  0  0
   -3.5173   -0.1062    0.7048 C   0  0  0  0  0  0  0  0  0  0  0  0
   -1.5831    4.1215   -0.4957 C   0  0  0  0  0  0  0  0  0  0  0  0
    3.0565   -1.7697    0.3473 C   0  0  0  0  0  0  0  0  0  0  0  0
   -2.2869   -3.6354   -0.1185 C   0  0  0  0  0  0  0  0  0  0  0  0
    3.7283   -0.5977   -0.0006 C   0  0  0  0  0  0  0  0  0  0  0  0
   -2.6764   -4.3711   -1.3880 C   0  0  0  0  0  0  0  0  0  0  0  0
    1.1818   -2.7008    0.7842 H   0  0  0  0  0  0  0  0  0  0  0  0
    3.5535    1.4960   -0.4667 H   0  0  0  0  0  0  0  0  0  0  0  0
   -0.6150   -2.6181   -0.9760 H   0  0  0  0  0  0  0  0  0  0  0  0
   -2.1197   -1.7024   -1.0635 H   0  0  0  0  0  0  0  0  0  0  0  0
   -3.2119   -0.7343    1.5423 H   0  0  0  0  0  0  0  0  0  0  0  0
   -4.3956    0.4652    1.0229 H   0  0  0  0  0  0  0  0  0  0  0  0
   -3.7833   -0.6841   -0.1803 H   0  0  0  0  0  0  0  0  0  0  0  0
   -1.1595    4.2694   -1.4943 H   0  0  0  0  0  0  0  0  0  0  0  0
   -2.5819    4.5708   -0.4865 H   0  0  0  0  0  0  0  0  0  0  0  0
   -0.9644    4.6679    0.2236 H   0  0  0  0  0  0  0  0  0  0  0  0
   -1.6770   -4.2881    0.5176 H   0  0  0  0  0  0  0  0  0  0  0  0
   -3.1853   -3.3997    0.4643 H   0  0  0  0  0  0  0  0  0  0  0  0
    3.6040   -2.6963    0.5032 H   0  0  0  0  0  0  0  0  0  0  0  0
   -3.3190   -3.7497   -2.0201 H   0  0  0  0  0  0  0  0  0  0  0  0
   -1.7907   -4.6507   -1.9674 H   0  0  0  0  0  0  0  0  0  0  0  0
   -3.2244   -5.2863   -1.1430 H   0  0  0  0  0  0  0  0  0  0  0  0
  1 20  1  0  0  0  0
  2  4  1  0  0  0  0
  2 15  1  0  0  0  0
  3 11  2  0  0  0  0
  4  7  1  0  0  0  0
  4  9  1  0  0  0  0
  5  6  1  0  0  0  0
  5  7  1  0  0  0  0
  5 16  1  0  0  0  0
  6 12  2  0  0  0  0
  7  8  2  0  0  0  0
  8 11  1  0  0  0  0
  8 12  1  0  0  0  0
  9 10  2  0  0  0  0
  9 13  1  0  0  0  0
 10 11  1  0  0  0  0
 10 14  1  0  0  0  0
 12 17  1  0  0  0  0
 13 18  2  0  0  0  0
 13 22  1  0  0  0  0
 14 20  2  0  0  0  0
 14 23  1  0  0  0  0
 15 19  1  0  0  0  0
 15 24  1  0  0  0  0
 15 25  1  0  0  0  0
 16 26  1  0  0  0  0
 16 27  1  0  0  0  0
 16 28  1  0  0  0  0
 17 29  1  0  0  0  0
 17 30  1  0  0  0  0
 17 31  1  0  0  0  0
 18 20  1  0  0  0  0
 18 34  1  0  0  0  0
 19 21  1  0  0  0  0
 19 32  1  0  0  0  0
 19 33  1  0  0  0  0
 21 35  1  0  0  0  0
 21 36  1  0  0  0  0
 21 37  1  0  0  0  0
M  END
> <PUBCHEM_COMPOUND_CID>
23647212

> <PUBCHEM_CONFORMER_RMSD>
0.6

> <PUBCHEM_CONFORMER_DIVERSEORDER>
2
1

> <PUBCHEM_MMFF94_PARTIAL_CHARGES>
22
1 -0.18
10 0.09
11 0.57
12 0.11
13 -0.15
14 -0.15
15 0.28
16 0.26
17 0.18
18 -0.15
2 -0.26
20 0.18
22 0.15
23 0.15
3 -0.57
34 0.15
4 -0.2
5 0.31
6 -0.71
7 -0.07
8 -0.09
9 0.1

> <PUBCHEM_EFFECTIVE_ROTOR_COUNT>
3

> <PUBCHEM_PHARMACOPHORE_FEATURES>
6
1 21 hydrophobe
1 3 acceptor
1 6 acceptor
5 5 6 7 8 12 rings
6 4 7 8 9 10 11 rings
6 9 10 13 14 18 20 rings

> <PUBCHEM_HEAVY_ATOM_COUNT>
21

> <PUBCHEM_ATOM_DEF_STEREO_COUNT>
0

> <PUBCHEM_ATOM_UDEF_STEREO_COUNT>
0

> <PUBCHEM_BOND_DEF_STEREO_COUNT>
0

> <PUBCHEM_BOND_UDEF_STEREO_COUNT>
0

> <PUBCHEM_ISOTOPIC_ATOM_COUNT>
0

> <PUBCHEM_COMPONENT_COUNT>
1

> <PUBCHEM_CACTVS_TAUTO_COUNT>
1

> <PUBCHEM_CONFORMER_ID>
0168D3EC00000002

> <PUBCHEM_MMFF94_ENERGY>
45.3961

> <PUBCHEM_FEATURE_SELFOVERLAP>
30.566

> <PUBCHEM_SHAPE_FINGERPRINT>
10411042 1 18193840577021061402
10693767 8 17337040751113879150
10967382 1 18263933300487251528
1100329 8 18337675325254057315
11578080 2 17487893625863622931
12173636 292 18193834830143381268
12553582 1 18120945167738560330
12788726 201 18335410262212733787
13140716 1 18264497358637018696
138480 1 16321183789977470375
14178342 30 18337371808774436618
14508225 48 18196643210437064711
14790565 3 18050857619591793864
15042514 8 18410018744923282955
15196674 1 18046349635086877760
16087824 20 18410011019210352157
16945 1 18408884044464829416
17539 30 18341038692326236430
19591789 44 18121783828790685602
20028762 73 18201154348596982079
20510252 161 18197780990392415568
20775438 99 17550617461815111583
21267235 1 18262814977276973226
21452121 199 18049703411523179458
2334 1 17904209474294048528
23402539 116 18340480071657235620
23419403 2 16821023399536112780
23557571 272 18272658909608000670
23559900 14 18269556028097469070
238 59 16164367120971757357
257057 1 18195522820877946595
2748010 2 18048041770022233528
3091708 16 9202810619765169427
34934 24 18261109621983945882
350125 39 18264215724778802897
352729 6 17759521067066395568
5104073 3 18046065961234728904
6443956 14 17904757026995500671
7471813 234 17910381015933945662
81228 2 18267292304579000787
9709674 26 18341336578942567262

> <PUBCHEM_SHAPE_MULTIPOLES>
407.36
6.59
5.12
0.83
7.55
1.17
0.09
2.73
0.19
-6.07
1.89
-0.32
0.39
-0.92

> <PUBCHEM_SHAPE_SELFOVERLAP>
874.316

> <PUBCHEM_SHAPE_VOLUME>
228.9

> <PUBCHEM_COORDINATE_TYPE>
2
5
10

$$$$
