10061448
  -OEChem-10052120443D

 34 36  0     0  0  0  0  0  0999 V2000
   -4.0264   -1.7650   -0.0419 O   0  0  0  0  0  0  0  0  0  0  0  0
   -4.6753    0.9156    0.2987 O   0  0  0  0  0  0  0  0  0  0  0  0
   -0.0634    2.0743    0.3154 N   0  0  0  0  0  0  0  0  0  0  0  0
    5.7577   -0.6164   -0.1630 N   0  0  0  0  0  0  0  0  0  0  0  0
   -0.6949   -0.2366    0.0538 C   0  0  0  0  0  0  0  0  0  0  0  0
   -1.0154    1.1264    0.2264 C   0  0  0  0  0  0  0  0  0  0  0  0
    1.6418    0.3834    0.0665 C   0  0  0  0  0  0  0  0  0  0  0  0
    0.6586   -0.5912   -0.0248 C   0  0  0  0  0  0  0  0  0  0  0  0
   -1.7144   -1.1996   -0.0351 C   0  0  0  0  0  0  0  0  0  0  0  0
   -2.3601    1.4780    0.3045 C   0  0  0  0  0  0  0  0  0  0  0  0
   -3.0510   -0.8198    0.0463 C   0  0  0  0  0  0  0  0  0  0  0  0
   -3.3739    0.5207    0.2162 C   0  0  0  0  0  0  0  0  0  0  0  0
    3.0425    0.0432   -0.0115 C   0  0  0  0  0  0  0  0  0  0  0  0
    1.2311    1.6902    0.2349 C   0  0  0  0  0  0  0  0  0  0  0  0
    3.4880   -1.1984    0.4330 C   0  0  0  0  0  0  0  0  0  0  0  0
    3.9571    0.9542   -0.5319 C   0  0  0  0  0  0  0  0  0  0  0  0
    4.8420   -1.4766    0.3365 C   0  0  0  0  0  0  0  0  0  0  0  0
    5.2901    0.5798   -0.5852 C   0  0  0  0  0  0  0  0  0  0  0  0
   -3.6061   -3.1173   -0.2159 C   0  0  0  0  0  0  0  0  0  0  0  0
   -5.3281    1.2550   -0.9230 C   0  0  0  0  0  0  0  0  0  0  0  0
    0.9118   -1.6373   -0.1846 H   0  0  0  0  0  0  0  0  0  0  0  0
   -1.4010   -2.2307   -0.1675 H   0  0  0  0  0  0  0  0  0  0  0  0
   -2.6318    2.5241    0.4387 H   0  0  0  0  0  0  0  0  0  0  0  0
    1.9250    2.5181    0.3427 H   0  0  0  0  0  0  0  0  0  0  0  0
    2.8346   -1.9440    0.8727 H   0  0  0  0  0  0  0  0  0  0  0  0
    3.6744    1.9277   -0.9179 H   0  0  0  0  0  0  0  0  0  0  0  0
    5.2395   -2.4277    0.6754 H   0  0  0  0  0  0  0  0  0  0  0  0
    6.0405    1.2522   -0.9878 H   0  0  0  0  0  0  0  0  0  0  0  0
   -4.5113   -3.7316   -0.2659 H   0  0  0  0  0  0  0  0  0  0  0  0
   -3.0276   -3.4741    0.6432 H   0  0  0  0  0  0  0  0  0  0  0  0
   -3.0756   -3.2562   -1.1640 H   0  0  0  0  0  0  0  0  0  0  0  0
   -5.3468    0.3964   -1.6018 H   0  0  0  0  0  0  0  0  0  0  0  0
   -4.8278    2.1023   -1.4024 H   0  0  0  0  0  0  0  0  0  0  0  0
   -6.3580    1.5414   -0.6932 H   0  0  0  0  0  0  0  0  0  0  0  0
  1 11  1  0  0  0  0
  1 19  1  0  0  0  0
  2 12  1  0  0  0  0
  2 20  1  0  0  0  0
  3  6  2  0  0  0  0
  3 14  1  0  0  0  0
  4 17  2  0  0  0  0
  4 18  1  0  0  0  0
  5  6  1  0  0  0  0
  5  8  2  0  0  0  0
  5  9  1  0  0  0  0
  6 10  1  0  0  0  0
  7  8  1  0  0  0  0
  7 13  1  0  0  0  0
  7 14  2  0  0  0  0
  8 21  1  0  0  0  0
  9 11  2  0  0  0  0
  9 22  1  0  0  0  0
 10 12  2  0  0  0  0
 10 23  1  0  0  0  0
 11 12  1  0  0  0  0
 13 15  2  0  0  0  0
 13 16  1  0  0  0  0
 14 24  1  0  0  0  0
 15 17  1  0  0  0  0
 15 25  1  0  0  0  0
 16 18  2  0  0  0  0
 16 26  1  0  0  0  0
 17 27  1  0  0  0  0
 18 28  1  0  0  0  0
 19 29  1  0  0  0  0
 19 30  1  0  0  0  0
 19 31  1  0  0  0  0
 20 32  1  0  0  0  0
 20 33  1  0  0  0  0
 20 34  1  0  0  0  0
M  END
> <PUBCHEM_COMPOUND_CID>
10061448

> <PUBCHEM_CONFORMER_RMSD>
0.6

> <PUBCHEM_CONFORMER_DIVERSEORDER>
1
2
3
4

> <PUBCHEM_MMFF94_PARTIAL_CHARGES>
25
1 -0.36
10 -0.15
11 0.08
12 0.08
14 0.16
15 -0.15
16 -0.15
17 0.16
18 0.16
19 0.28
2 -0.36
20 0.28
21 0.15
22 0.15
23 0.15
24 0.15
25 0.15
26 0.15
27 0.15
28 0.15
3 -0.62
4 -0.62
6 0.31
8 -0.15
9 -0.15

> <PUBCHEM_EFFECTIVE_ROTOR_COUNT>
3

> <PUBCHEM_PHARMACOPHORE_FEATURES>
7
1 1 acceptor
1 2 acceptor
1 3 acceptor
1 4 acceptor
6 3 5 6 7 8 14 rings
6 4 13 15 16 17 18 rings
6 5 6 9 10 11 12 rings

> <PUBCHEM_HEAVY_ATOM_COUNT>
20

> <PUBCHEM_ATOM_DEF_STEREO_COUNT>
0

> <PUBCHEM_ATOM_UDEF_STEREO_COUNT>
0

> <PUBCHEM_BOND_DEF_STEREO_COUNT>
0

> <PUBCHEM_BOND_UDEF_STEREO_COUNT>
0

> <PUBCHEM_ISOTOPIC_ATOM_COUNT>
0

> <PUBCHEM_COMPONENT_COUNT>
1

> <PUBCHEM_CACTVS_TAUTO_COUNT>
1

> <PUBCHEM_CONFORMER_ID>
0099868800000001

> <PUBCHEM_MMFF94_ENERGY>
85.9007

> <PUBCHEM_FEATURE_SELFOVERLAP>
35.559

> <PUBCHEM_SHAPE_FINGERPRINT>
10062212 137 18412261757202043527
10366900 7 17418371368005025067
10616163 171 18412829088064707526
10906281 52 18129958775611702649
11045515 52 18113336410020130588
11046707 91 18342740740557326914
11315181 36 18272375274136133176
11796584 16 18413109446529035470
12107183 9 17688026410476607306
12236239 1 18040719156036214512
12555020 224 18411689977386406831
12788726 201 18263360287657636440
13140716 1 18271811271820791929
13167823 11 18408323289598379458
13288520 33 18341898501770803862
13760787 19 18260829293288820882
13862211 1 18342452608449801261
14790565 3 18123475973365989689
15099037 51 18411416185795140445
15196674 1 18411138073545557992
15242433 33 18335423452357284560
15250474 111 18334564746709360490
15788980 27 18040438784681619024
17492 89 18122904493427981843
17804303 29 18272652371913454113
17834072 33 18335142016230432484
18186145 218 14418139551396770780
18222031 100 17060336323353983712
18681886 176 18411983594599581800
19141452 34 18410857650967723173
19489759 90 16343703192911429409
200 152 18343301470081175968
20281475 54 18409447011750762864
20374829 77 18410853261379206464
21267235 1 18410865372992075170
221490 88 18193279808577898745
23402539 116 18410853265611052246
23559900 14 18342731949055106680
2916195 48 11602827942971290390
300161 21 18333726918895590560
3004659 81 18260830367758541042
335352 9 18411981352194422757
34934 24 18337388249608571339
3545911 37 18409731746539144389
4214541 1 18410012143304879950
465052 167 18128263478457245919
4921388 177 16226339217044054275
5104073 3 18342458179106826554
559249 180 18408599245231073307
59755656 215 18269277868165929774
633830 44 16877946052682235872
67856867 119 18334857277432602372
77779 3 18409732867852539274
9709674 26 18192711378399240579

> <PUBCHEM_SHAPE_MULTIPOLES>
389.89
12.08
2.28
0.72
5.48
1.12
0.05
1.87
1.84
-2.22
0.01
-0.04
-0.08
-0.34

> <PUBCHEM_SHAPE_SELFOVERLAP>
862.594

> <PUBCHEM_SHAPE_VOLUME>
209.4

> <PUBCHEM_COORDINATE_TYPE>
2
5
10

$$$$
