24905308
  -OEChem-10052115143D

 45 49  0     0  0  0  0  0  0999 V2000
    6.0431   -1.2551    0.3669 F   0  0  0  0  0  0  0  0  0  0  0  0
   -4.5916    0.5867    0.6420 O   0  0  0  0  0  0  0  0  0  0  0  0
    4.1917   -2.0200   -1.5194 O   0  0  0  0  0  0  0  0  0  0  0  0
   -1.1457    0.9984    1.0849 N   0  0  0  0  0  0  0  0  0  0  0  0
   -0.0595    0.2234    1.2625 N   0  0  0  0  0  0  0  0  0  0  0  0
   -1.8034    3.0301   -0.0561 N   0  0  0  0  0  0  0  0  0  0  0  0
    0.0584    4.0182   -1.2841 N   0  0  0  0  0  0  0  0  0  0  0  0
   -4.5565   -1.2198   -0.7181 N   0  0  0  0  0  0  0  0  0  0  0  0
    2.2399    3.0501   -1.3179 N   0  0  0  0  0  0  0  0  0  0  0  0
    0.4165    2.0175   -0.0710 C   0  0  0  0  0  0  0  0  0  0  0  0
   -2.3927    0.6308    1.7126 C   0  0  0  0  0  0  0  0  0  0  0  0
   -0.9163    2.0856    0.2951 C   0  0  0  0  0  0  0  0  0  0  0  0
    0.8883    0.8494    0.5562 C   0  0  0  0  0  0  0  0  0  0  0  0
   -3.3735   -0.0107    0.7628 C   0  0  0  0  0  0  0  0  0  0  0  0
    2.2215    0.3042    0.5059 C   0  0  0  0  0  0  0  0  0  0  0  0
    0.8997    3.0318   -0.8910 C   0  0  0  0  0  0  0  0  0  0  0  0
   -3.3566   -1.1064   -0.0639 C   0  0  0  0  0  0  0  0  0  0  0  0
   -2.2608   -2.0082   -0.2333 C   0  0  0  0  0  0  0  0  0  0  0  0
    2.5659   -0.6047   -0.4946 C   0  0  0  0  0  0  0  0  0  0  0  0
    3.1676    0.6856    1.4573 C   0  0  0  0  0  0  0  0  0  0  0  0
   -1.2226    3.9569   -0.8483 C   0  0  0  0  0  0  0  0  0  0  0  0
    3.8562   -1.1322   -0.5438 C   0  0  0  0  0  0  0  0  0  0  0  0
    4.4579    0.1582    1.4083 C   0  0  0  0  0  0  0  0  0  0  0  0
   -5.2419   -0.1959   -0.2621 C   0  0  0  0  0  0  0  0  0  0  0  0
   -1.7696   -2.7221    0.8598 C   0  0  0  0  0  0  0  0  0  0  0  0
   -1.6826   -2.1747   -1.4917 C   0  0  0  0  0  0  0  0  0  0  0  0
    4.8022   -0.7507    0.4077 C   0  0  0  0  0  0  0  0  0  0  0  0
   -0.7002   -3.6024    0.6946 C   0  0  0  0  0  0  0  0  0  0  0  0
   -0.6132   -3.0550   -1.6571 C   0  0  0  0  0  0  0  0  0  0  0  0
   -0.1221   -3.7689   -0.5638 C   0  0  0  0  0  0  0  0  0  0  0  0
   -2.8206    1.5411    2.1482 H   0  0  0  0  0  0  0  0  0  0  0  0
   -2.1759   -0.0532    2.5409 H   0  0  0  0  0  0  0  0  0  0  0  0
    1.8310   -0.9020   -1.2397 H   0  0  0  0  0  0  0  0  0  0  0  0
    2.9153    1.3935    2.2433 H   0  0  0  0  0  0  0  0  0  0  0  0
   -1.8689    4.7618   -1.1816 H   0  0  0  0  0  0  0  0  0  0  0  0
    5.1947    0.4549    2.1488 H   0  0  0  0  0  0  0  0  0  0  0  0
   -6.2495    0.0970   -0.5159 H   0  0  0  0  0  0  0  0  0  0  0  0
    2.8896    2.3287   -1.0419 H   0  0  0  0  0  0  0  0  0  0  0  0
    2.5498    3.8058   -1.9141 H   0  0  0  0  0  0  0  0  0  0  0  0
   -2.2096   -2.6123    1.8481 H   0  0  0  0  0  0  0  0  0  0  0  0
   -2.0511   -1.6241   -2.3540 H   0  0  0  0  0  0  0  0  0  0  0  0
   -0.3179   -4.1584    1.5456 H   0  0  0  0  0  0  0  0  0  0  0  0
   -0.1614   -3.1832   -2.6363 H   0  0  0  0  0  0  0  0  0  0  0  0
    0.7115   -4.4529   -0.6924 H   0  0  0  0  0  0  0  0  0  0  0  0
    3.4165   -2.1733   -2.0866 H   0  0  0  0  0  0  0  0  0  0  0  0
  1 27  1  0  0  0  0
  2 14  1  0  0  0  0
  2 24  1  0  0  0  0
  3 22  1  0  0  0  0
  3 45  1  0  0  0  0
  4  5  1  0  0  0  0
  4 11  1  0  0  0  0
  4 12  1  0  0  0  0
  5 13  2  0  0  0  0
  6 12  2  0  0  0  0
  6 21  1  0  0  0  0
  7 16  1  0  0  0  0
  7 21  2  0  0  0  0
  8 17  1  0  0  0  0
  8 24  2  0  0  0  0
  9 16  1  0  0  0  0
  9 38  1  0  0  0  0
  9 39  1  0  0  0  0
 10 12  1  0  0  0  0
 10 13  1  0  0  0  0
 10 16  2  0  0  0  0
 11 14  1  0  0  0  0
 11 31  1  0  0  0  0
 11 32  1  0  0  0  0
 13 15  1  0  0  0  0
 14 17  2  0  0  0  0
 15 19  2  0  0  0  0
 15 20  1  0  0  0  0
 17 18  1  0  0  0  0
 18 25  2  0  0  0  0
 18 26  1  0  0  0  0
 19 22  1  0  0  0  0
 19 33  1  0  0  0  0
 20 23  2  0  0  0  0
 20 34  1  0  0  0  0
 21 35  1  0  0  0  0
 22 27  2  0  0  0  0
 23 27  1  0  0  0  0
 23 36  1  0  0  0  0
 24 37  1  0  0  0  0
 25 28  1  0  0  0  0
 25 40  1  0  0  0  0
 26 29  2  0  0  0  0
 26 41  1  0  0  0  0
 28 30  2  0  0  0  0
 28 42  1  0  0  0  0
 29 30  1  0  0  0  0
 29 43  1  0  0  0  0
 30 44  1  0  0  0  0
M  END
> <PUBCHEM_COMPOUND_CID>
24905308

> <PUBCHEM_CONFORMER_RMSD>
0.8

> <PUBCHEM_CONFORMER_DIVERSEORDER>
1
22
99
56
97
77
75
46
85
62
34
84
98
70
93
61
100
12
86
45
19
20
58
33
6
96
30
9
72
76
90
79
68
50
101
5
60
92
57
69
87
21
52
3
8
67
29
59
55
89
94
63
14
7
23
51
71
95
88
2
78
24
44
13
73
66
28
53
91
4
64
36
18
43
27
65
83
74
16
54
35
10
25
42
32
37
47
82
41
11
26
17
31
38
48
49
15
40
80
39
81

> <PUBCHEM_MMFF94_PARTIAL_CHARGES>
42
1 -0.19
11 0.44
12 0.11
13 0.23
14 -0.04
15 0.05
16 0.41
17 0.17
18 0.05
19 -0.15
2 -0.28
20 -0.15
21 0.47
22 0.08
23 -0.15
24 0.33
25 -0.15
26 -0.15
27 0.19
28 -0.15
29 -0.15
3 -0.53
30 -0.15
33 0.15
34 0.15
35 0.15
36 0.15
37 0.15
38 0.4
39 0.4
4 0.31
40 0.15
41 0.15
42 0.15
43 0.15
44 0.15
45 0.45
5 -0.71
6 -0.57
7 -0.62
8 -0.57
9 -0.9

> <PUBCHEM_EFFECTIVE_ROTOR_COUNT>
4

> <PUBCHEM_PHARMACOPHORE_FEATURES>
11
1 3 donor
1 5 acceptor
1 9 cation
1 9 donor
3 4 6 12 cation
3 6 7 21 cation
5 2 8 14 17 24 rings
5 4 5 10 12 13 rings
6 15 19 20 22 23 27 rings
6 18 25 26 28 29 30 rings
6 6 7 10 12 16 21 rings

> <PUBCHEM_HEAVY_ATOM_COUNT>
30

> <PUBCHEM_ATOM_DEF_STEREO_COUNT>
0

> <PUBCHEM_ATOM_UDEF_STEREO_COUNT>
0

> <PUBCHEM_BOND_DEF_STEREO_COUNT>
0

> <PUBCHEM_BOND_UDEF_STEREO_COUNT>
0

> <PUBCHEM_ISOTOPIC_ATOM_COUNT>
0

> <PUBCHEM_COMPONENT_COUNT>
1

> <PUBCHEM_CACTVS_TAUTO_COUNT>
15

> <PUBCHEM_CONFORMER_ID>
017C065C00000001

> <PUBCHEM_MMFF94_ENERGY>
68.3985

> <PUBCHEM_FEATURE_SELFOVERLAP>
56.102

> <PUBCHEM_SHAPE_FINGERPRINT>
11513181 2 17272289326211903206
11578080 2 15720532021411784524
12422481 6 18056225538790616427
12553582 1 18263381281372940824
12788726 201 18262230032875059642
13004483 165 18263063514239116288
13402501 40 18131073693144920198
14117953 113 18338798918689804229
14415361 349 18059578061433753158
14840074 17 18410016519897692930
15274700 242 17896862310601942554
17093844 170 18341892974475227354
1813 80 18334573559818097568
20905425 154 17981331084256701135
21285901 2 18273218564672880734
22113638 7 18340482386840222231
23559900 14 17917140723648608264
3027735 51 18268140955804093033
3298306 158 17618782453793658774
340366 18 18263077872393810463
4280585 95 18335416907117327888
463206 1 18118692251560334772
5080951 261 17680953394305066736
513202 73 18117839893941541434
6138700 20 18341610395729221603

> <PUBCHEM_SHAPE_MULTIPOLES>
568.49
8.76
5.05
1.47
4.44
1.57
-0.04
-3.56
1.07
-0.95
-2.38
0.3
-0.05
-0.24

> <PUBCHEM_SHAPE_SELFOVERLAP>
1285.8

> <PUBCHEM_SHAPE_VOLUME>
300.6

> <PUBCHEM_COORDINATE_TYPE>
2
5
10

$$$$
