49830766
  -OEChem-10052120433D

 29 31  0     0  0  0  0  0  0999 V2000
    3.4365   -1.0209   -0.1915 O   0  0  0  0  0  0  0  0  0  0  0  0
    2.6137   -2.1342   -0.0712 N   0  0  0  0  0  0  0  0  0  0  0  0
    0.2541   -2.3989    0.1917 N   0  0  0  0  0  0  0  0  0  0  0  0
    0.3832    0.7771    0.0848 C   0  0  0  0  0  0  0  0  0  0  0  0
    1.3479   -0.2383    0.0104 C   0  0  0  0  0  0  0  0  0  0  0  0
   -1.0138    0.4543    0.2434 C   0  0  0  0  0  0  0  0  0  0  0  0
    2.6788    0.1087   -0.1427 C   0  0  0  0  0  0  0  0  0  0  0  0
    0.8154    2.1083   -0.0004 C   0  0  0  0  0  0  0  0  0  0  0  0
   -1.8179    0.2637   -0.8802 C   0  0  0  0  0  0  0  0  0  0  0  0
    1.3755   -1.6457    0.0484 C   0  0  0  0  0  0  0  0  0  0  0  0
   -3.1689   -0.0479   -0.7265 C   0  0  0  0  0  0  0  0  0  0  0  0
   -1.5605    0.3334    1.5211 C   0  0  0  0  0  0  0  0  0  0  0  0
    3.1429    1.4178   -0.2305 C   0  0  0  0  0  0  0  0  0  0  0  0
    2.1702    2.4201   -0.1551 C   0  0  0  0  0  0  0  0  0  0  0  0
   -3.7157   -0.1689    0.5511 C   0  0  0  0  0  0  0  0  0  0  0  0
   -2.9116    0.0220    1.6748 C   0  0  0  0  0  0  0  0  0  0  0  0
   -4.0298   -0.2505   -1.9277 C   0  0  0  0  0  0  0  0  0  0  0  0
    0.0956    2.9230    0.0531 H   0  0  0  0  0  0  0  0  0  0  0  0
   -1.3963    0.3586   -1.8790 H   0  0  0  0  0  0  0  0  0  0  0  0
   -0.9478    0.4784    2.4077 H   0  0  0  0  0  0  0  0  0  0  0  0
    4.1941    1.6496   -0.3502 H   0  0  0  0  0  0  0  0  0  0  0  0
    2.4740    3.4622   -0.2181 H   0  0  0  0  0  0  0  0  0  0  0  0
   -4.7671   -0.4093    0.6844 H   0  0  0  0  0  0  0  0  0  0  0  0
   -3.3374   -0.0719    2.6696 H   0  0  0  0  0  0  0  0  0  0  0  0
   -4.4412    0.7075   -2.2607 H   0  0  0  0  0  0  0  0  0  0  0  0
   -3.4587   -0.6938   -2.7506 H   0  0  0  0  0  0  0  0  0  0  0  0
   -4.8598   -0.9315   -1.7109 H   0  0  0  0  0  0  0  0  0  0  0  0
   -0.6827   -2.0247    0.2817 H   0  0  0  0  0  0  0  0  0  0  0  0
    0.3026   -3.4130    0.2161 H   0  0  0  0  0  0  0  0  0  0  0  0
  1  2  1  0  0  0  0
  1  7  1  0  0  0  0
  2 10  2  0  0  0  0
  3 10  1  0  0  0  0
  3 28  1  0  0  0  0
  3 29  1  0  0  0  0
  4  5  2  0  0  0  0
  4  6  1  0  0  0  0
  4  8  1  0  0  0  0
  5  7  1  0  0  0  0
  5 10  1  0  0  0  0
  6  9  1  0  0  0  0
  6 12  2  0  0  0  0
  7 13  2  0  0  0  0
  8 14  2  0  0  0  0
  8 18  1  0  0  0  0
  9 11  2  0  0  0  0
  9 19  1  0  0  0  0
 11 15  1  0  0  0  0
 11 17  1  0  0  0  0
 12 16  1  0  0  0  0
 12 20  1  0  0  0  0
 13 14  1  0  0  0  0
 13 21  1  0  0  0  0
 14 22  1  0  0  0  0
 15 16  2  0  0  0  0
 15 23  1  0  0  0  0
 16 24  1  0  0  0  0
 17 25  1  0  0  0  0
 17 26  1  0  0  0  0
 17 27  1  0  0  0  0
M  END
> <PUBCHEM_COMPOUND_CID>
49830766

> <PUBCHEM_CONFORMER_RMSD>
0.6

> <PUBCHEM_CONFORMER_DIVERSEORDER>
1
2

> <PUBCHEM_MMFF94_PARTIAL_CHARGES>
23
1 -0.02
10 0.37
11 -0.14
12 -0.15
13 -0.15
14 -0.15
15 -0.15
16 -0.15
17 0.14
18 0.15
19 0.15
2 -0.41
20 0.15
21 0.15
22 0.15
23 0.15
24 0.15
28 0.4
29 0.4
3 -0.88
7 0.14
8 -0.15
9 -0.15

> <PUBCHEM_EFFECTIVE_ROTOR_COUNT>
1

> <PUBCHEM_PHARMACOPHORE_FEATURES>
5
1 3 donor
3 2 3 10 cation
5 1 2 5 7 10 rings
6 4 5 7 8 13 14 rings
6 6 9 11 12 15 16 rings

> <PUBCHEM_HEAVY_ATOM_COUNT>
17

> <PUBCHEM_ATOM_DEF_STEREO_COUNT>
0

> <PUBCHEM_ATOM_UDEF_STEREO_COUNT>
0

> <PUBCHEM_BOND_DEF_STEREO_COUNT>
0

> <PUBCHEM_BOND_UDEF_STEREO_COUNT>
0

> <PUBCHEM_ISOTOPIC_ATOM_COUNT>
0

> <PUBCHEM_COMPONENT_COUNT>
1

> <PUBCHEM_CACTVS_TAUTO_COUNT>
2

> <PUBCHEM_CONFORMER_ID>
02F85B6E00000001

> <PUBCHEM_MMFF94_ENERGY>
45.0709

> <PUBCHEM_FEATURE_SELFOVERLAP>
25.47

> <PUBCHEM_SHAPE_FINGERPRINT>
10967382 1 18410298046767549128
11471102 20 18409448093876988084
11582403 64 16887458057019173677
11725454 13 17172886830161398773
12236239 1 17775290469211883129
12553582 1 18122353380288409810
12596599 1 17989214728350632391
13140716 1 18266462203723230656
13296908 3 17821734939780464505
13538477 17 17346883338587015409
13583140 156 17024014042413511008
13862211 1 18410570644590535166
14251717 144 18411412925408398231
15219456 202 18040437715414155897
15375462 189 17917996100676727219
16752209 62 16773788196050886029
16945 1 18410299137684071504
1813 80 17913792534643382062
18186145 218 18341057401150757284
18219364 16 18261115222241355123
19049666 15 17749948856474430081
19422 9 17775569736417083279
200 152 18272364265828913685
20279233 1 17821727260421156705
20361792 2 18269276772394809255
204376 136 18121503711498524056
20645477 70 18408597059287521903
21639500 275 18338797921983116857
22112679 90 17346604066833712073
2255824 54 18342183297179409428
22802520 49 17968373447029010597
232386 152 16702012089410320557
2334 1 17834120019392376928
23388829 49 18201159849479501193
23402539 116 18269276751563934230
23419403 2 14857451509607665858
23557571 272 17095527331272510357
23559900 14 16660640705478988706
23598291 2 18059863835229776821
23728640 28 15812835554011783275
238 59 18262500594213251119
25 1 18336266837699849444
2748010 2 18049738604764556504
350125 39 17544488908245072576
474 4 17628907121776776560
581208 293 18412541037476729240
6049 1 17603877706043072133
633830 44 18056504930138884852
7615 1 17918275342175842721
77492 1 17775291568660226897
81228 2 17472414353391517632
8272917 22 18341061731073715025
88987 49 15502371253412878441
9981440 41 16050106392679111464

> <PUBCHEM_SHAPE_MULTIPOLES>
334.02
6.47
2.11
1.26
2.98
0.34
0.02
0.16
-1.36
-2.48
-0.04
1.85
-0.05
-0.17

> <PUBCHEM_SHAPE_SELFOVERLAP>
747.15

> <PUBCHEM_SHAPE_VOLUME>
180.7

> <PUBCHEM_COORDINATE_TYPE>
2
5
10

$$$$
