9850467
  -OEChem-10052120443D

 76 80  0     1  0  0  0  0  0999 V2000
   -6.0800   -0.2800   -1.7608 S   0  0  0  0  0  0  0  0  0  0  0  0
   -0.4367   -1.7187    1.4924 O   0  0  0  0  0  0  0  0  0  0  0  0
   -3.1723   -0.4165   -2.3578 O   0  0  0  0  0  0  0  0  0  0  0  0
    1.9161   -2.2787   -0.0047 N   0  0  1  0  0  0  0  0  0  0  0  0
    3.7470   -0.3083    1.2433 N   0  0  0  0  0  0  0  0  0  0  0  0
   -1.2208   -1.0784   -0.6038 N   0  0  0  0  0  0  0  0  0  0  0  0
   -5.0554   -0.0528    0.5952 N   0  0  0  0  0  0  0  0  0  0  0  0
    0.3105    3.3873   -0.0846 N   0  0  0  0  0  0  0  0  0  0  0  0
    0.3983    5.7815   -0.2583 N   0  0  0  0  0  0  0  0  0  0  0  0
    1.8512    4.6580    1.0916 N   0  0  0  0  0  0  0  0  0  0  0  0
    2.7207   -3.4999   -0.0915 C   0  0  1  0  0  0  0  0  0  0  0  0
    3.9342   -0.8507   -0.1125 C   0  0  2  0  0  0  0  0  0  0  0  0
    2.5439   -1.1713   -0.7241 C   0  0  0  0  0  0  0  0  0  0  0  0
    0.5757   -2.6473   -0.4536 C   0  0  1  0  0  0  0  0  0  0  0  0
    4.0573   -3.3076    0.6109 C   0  0  0  0  0  0  0  0  0  0  0  0
    1.7835   -4.5073    0.5469 C   0  0  0  0  0  0  0  0  0  0  0  0
    4.8039   -2.1293   -0.0295 C   0  0  0  0  0  0  0  0  0  0  0  0
    0.4254   -4.1158   -0.0369 C   0  0  0  0  0  0  0  0  0  0  0  0
    4.6459    0.2120   -0.9616 C   0  0  0  0  0  0  0  0  0  0  0  0
   -0.3963   -1.7712    0.2660 C   0  0  0  0  0  0  0  0  0  0  0  0
    5.9745    0.5835   -0.3701 C   0  0  0  0  0  0  0  0  0  0  0  0
   -2.2623   -0.1805   -0.1595 C   0  0  1  0  0  0  0  0  0  0  0  0
    7.1148   -0.1178   -0.7448 C   0  0  0  0  0  0  0  0  0  0  0  0
    6.0521    1.6254    0.5471 C   0  0  0  0  0  0  0  0  0  0  0  0
   -1.7371    1.2479    0.0294 C   0  0  0  0  0  0  0  0  0  0  0  0
   -3.4224   -0.2639   -1.1585 C   0  0  0  0  0  0  0  0  0  0  0  0
    8.3493    0.2274   -0.1948 C   0  0  0  0  0  0  0  0  0  0  0  0
    7.2865    1.9706    1.0970 C   0  0  0  0  0  0  0  0  0  0  0  0
   -1.2580    1.9250   -1.2637 C   0  0  0  0  0  0  0  0  0  0  0  0
    8.4351    1.2717    0.7260 C   0  0  0  0  0  0  0  0  0  0  0  0
   -4.8083   -0.1876   -0.6591 C   0  0  0  0  0  0  0  0  0  0  0  0
   -0.8065    3.3639   -1.0303 C   0  0  0  0  0  0  0  0  0  0  0  0
   -7.1689   -0.1233   -0.4332 C   0  0  0  0  0  0  0  0  0  0  0  0
   -6.4334   -0.0129    0.7507 C   0  0  0  0  0  0  0  0  0  0  0  0
   -8.5728   -0.0998   -0.4389 C   0  0  0  0  0  0  0  0  0  0  0  0
   -7.1301    0.1260    1.9707 C   0  0  0  0  0  0  0  0  0  0  0  0
    0.8007    4.5508    0.2108 C   0  0  0  0  0  0  0  0  0  0  0  0
   -9.2377    0.0386    0.7821 C   0  0  0  0  0  0  0  0  0  0  0  0
   -8.5278    0.1501    1.9724 C   0  0  0  0  0  0  0  0  0  0  0  0
    2.8924   -3.7793   -1.1417 H   0  0  0  0  0  0  0  0  0  0  0  0
    1.9047   -0.2801   -0.6719 H   0  0  0  0  0  0  0  0  0  0  0  0
    2.6523   -1.4188   -1.7889 H   0  0  0  0  0  0  0  0  0  0  0  0
    0.4789   -2.5728   -1.5437 H   0  0  0  0  0  0  0  0  0  0  0  0
    4.6616   -4.2181    0.5235 H   0  0  0  0  0  0  0  0  0  0  0  0
    3.9147   -3.1276    1.6835 H   0  0  0  0  0  0  0  0  0  0  0  0
    1.7648   -4.4033    1.6390 H   0  0  0  0  0  0  0  0  0  0  0  0
    2.0497   -5.5412    0.3070 H   0  0  0  0  0  0  0  0  0  0  0  0
    5.1158   -2.4300   -1.0385 H   0  0  0  0  0  0  0  0  0  0  0  0
    5.7146   -1.9696    0.5588 H   0  0  0  0  0  0  0  0  0  0  0  0
   -0.3780   -4.2997    0.6841 H   0  0  0  0  0  0  0  0  0  0  0  0
    0.2220   -4.7286   -0.9236 H   0  0  0  0  0  0  0  0  0  0  0  0
    4.0240    1.1130   -1.0599 H   0  0  0  0  0  0  0  0  0  0  0  0
    4.7897   -0.1500   -1.9888 H   0  0  0  0  0  0  0  0  0  0  0  0
    3.1891    0.5443    1.1983 H   0  0  0  0  0  0  0  0  0  0  0  0
    3.2056   -0.9629    1.8065 H   0  0  0  0  0  0  0  0  0  0  0  0
   -1.0851   -1.1809   -1.6054 H   0  0  0  0  0  0  0  0  0  0  0  0
   -2.6084   -0.5538    0.8114 H   0  0  0  0  0  0  0  0  0  0  0  0
    7.0672   -0.9248   -1.4706 H   0  0  0  0  0  0  0  0  0  0  0  0
    5.1684    2.1867    0.8378 H   0  0  0  0  0  0  0  0  0  0  0  0
   -2.5375    1.8594    0.4651 H   0  0  0  0  0  0  0  0  0  0  0  0
   -0.9190    1.2296    0.7601 H   0  0  0  0  0  0  0  0  0  0  0  0
    9.2443   -0.3148   -0.4858 H   0  0  0  0  0  0  0  0  0  0  0  0
    7.3539    2.7854    1.8119 H   0  0  0  0  0  0  0  0  0  0  0  0
   -0.4288    1.3503   -1.6935 H   0  0  0  0  0  0  0  0  0  0  0  0
   -2.0636    1.9406   -2.0053 H   0  0  0  0  0  0  0  0  0  0  0  0
    9.3966    1.5413    1.1532 H   0  0  0  0  0  0  0  0  0  0  0  0
   -1.6511    3.9472   -0.6437 H   0  0  0  0  0  0  0  0  0  0  0  0
   -0.4991    3.7912   -1.9924 H   0  0  0  0  0  0  0  0  0  0  0  0
   -9.1337   -0.1864   -1.3644 H   0  0  0  0  0  0  0  0  0  0  0  0
   -6.5853    0.2139    2.9065 H   0  0  0  0  0  0  0  0  0  0  0  0
  -10.3243    0.0590    0.7998 H   0  0  0  0  0  0  0  0  0  0  0  0
   -9.0620    0.2571    2.9124 H   0  0  0  0  0  0  0  0  0  0  0  0
   -0.3644    5.8863   -0.9178 H   0  0  0  0  0  0  0  0  0  0  0  0
    0.8598    6.6325    0.0445 H   0  0  0  0  0  0  0  0  0  0  0  0
    2.2491    5.5582    1.3355 H   0  0  0  0  0  0  0  0  0  0  0  0
    2.2599    3.8354    1.5215 H   0  0  0  0  0  0  0  0  0  0  0  0
  1 31  1  0  0  0  0
  1 33  1  0  0  0  0
  2 20  2  0  0  0  0
  3 26  2  0  0  0  0
  4 11  1  0  0  0  0
  4 13  1  0  0  0  0
  4 14  1  0  0  0  0
  5 12  1  0  0  0  0
  5 54  1  0  0  0  0
  5 55  1  0  0  0  0
  6 20  1  0  0  0  0
  6 22  1  0  0  0  0
  6 56  1  0  0  0  0
  7 31  2  0  0  0  0
  7 34  1  0  0  0  0
  8 32  1  0  0  0  0
  8 37  2  0  0  0  0
  9 37  1  0  0  0  0
  9 73  1  0  0  0  0
  9 74  1  0  0  0  0
 10 37  1  0  0  0  0
 10 75  1  0  0  0  0
 10 76  1  0  0  0  0
 11 15  1  0  0  0  0
 11 16  1  0  0  0  0
 11 40  1  0  0  0  0
 12 13  1  0  0  0  0
 12 17  1  0  0  0  0
 12 19  1  0  0  0  0
 13 41  1  0  0  0  0
 13 42  1  0  0  0  0
 14 18  1  0  0  0  0
 14 20  1  0  0  0  0
 14 43  1  0  0  0  0
 15 17  1  0  0  0  0
 15 44  1  0  0  0  0
 15 45  1  0  0  0  0
 16 18  1  0  0  0  0
 16 46  1  0  0  0  0
 16 47  1  0  0  0  0
 17 48  1  0  0  0  0
 17 49  1  0  0  0  0
 18 50  1  0  0  0  0
 18 51  1  0  0  0  0
 19 21  1  0  0  0  0
 19 52  1  0  0  0  0
 19 53  1  0  0  0  0
 21 23  2  0  0  0  0
 21 24  1  0  0  0  0
 22 25  1  0  0  0  0
 22 26  1  0  0  0  0
 22 57  1  0  0  0  0
 23 27  1  0  0  0  0
 23 58  1  0  0  0  0
 24 28  2  0  0  0  0
 24 59  1  0  0  0  0
 25 29  1  0  0  0  0
 25 60  1  0  0  0  0
 25 61  1  0  0  0  0
 26 31  1  0  0  0  0
 27 30  2  0  0  0  0
 27 62  1  0  0  0  0
 28 30  1  0  0  0  0
 28 63  1  0  0  0  0
 29 32  1  0  0  0  0
 29 64  1  0  0  0  0
 29 65  1  0  0  0  0
 30 66  1  0  0  0  0
 32 67  1  0  0  0  0
 32 68  1  0  0  0  0
 33 34  1  0  0  0  0
 33 35  2  0  0  0  0
 34 36  2  0  0  0  0
 35 38  1  0  0  0  0
 35 69  1  0  0  0  0
 36 39  1  0  0  0  0
 36 70  1  0  0  0  0
 38 39  2  0  0  0  0
 38 71  1  0  0  0  0
 39 72  1  0  0  0  0
M  END
> <PUBCHEM_COMPOUND_CID>
9850467

> <PUBCHEM_CONFORMER_RMSD>
1.6

> <PUBCHEM_CONFORMER_DIVERSEORDER>
1
25
39
128
51
222
106
153
32
176
70
181
104
136
98
195
114
58
210
102
127
160
159
107
23
149
82
91
190
167
138
170
84
77
76
223
68
162
73
120
165
194
7
71
14
155
57
133
101
161
15
60
197
83
188
26
24
111
154
186
110
20
31
208
44
218
64
143
140
189
48
113
49
17
212
227
53
141
146
183
182
27
10
216
79
156
124
135
173
9
59
147
69
119
152
5
99
202
105
163
3
179
220
139
90
175
29
61
30
180
168
142
36
134
151
130
63
204
217
213
214
171
75
92
40
211
34
86
35
172
131
80
19
93
72
56
203
74
205
200
46
123
66
2
209
65
174
112
118
116
191
50
52
137
12
67
33
129
193
28
145
199
108
96
78
42
115
117
177
11
88
6
206
132
178
184
45
47
94
192
198
81
55
125
207
4
95
157
16
166
169
150
148
144
121
126
221
89
103
187
8
21
43
109
226
185
85
87
196
225
224
37
38
22
18
97
41
215
164
201
158
122
62
219
54
13
100

> <PUBCHEM_MMFF94_PARTIAL_CHARGES>
49
1 -0.08
10 -0.85
11 0.27
12 0.27
13 0.27
14 0.33
19 0.14
2 -0.57
20 0.57
21 -0.14
22 0.36
23 -0.15
24 -0.15
26 0.59
27 -0.15
28 -0.15
3 -0.57
30 -0.15
31 0.29
32 0.25
33 0.04
34 0.23
35 -0.15
36 -0.15
37 0.55
38 -0.15
39 -0.15
4 -0.81
5 -0.99
54 0.36
55 0.36
56 0.37
58 0.15
59 0.15
6 -0.73
62 0.15
63 0.15
66 0.15
69 0.15
7 -0.57
70 0.15
71 0.15
72 0.15
73 0.4
74 0.4
75 0.4
76 0.4
8 -0.7
9 -0.85

> <PUBCHEM_EFFECTIVE_ROTOR_COUNT>
12.4

> <PUBCHEM_PHARMACOPHORE_FEATURES>
15
1 10 donor
1 2 acceptor
1 3 acceptor
1 4 cation
1 5 cation
1 5 donor
1 6 donor
1 7 acceptor
1 9 donor
4 8 9 10 37 cation
5 1 7 31 33 34 rings
5 4 11 14 16 18 rings
6 21 23 24 27 28 30 rings
6 33 34 35 36 38 39 rings
6 4 11 12 13 15 17 rings

> <PUBCHEM_HEAVY_ATOM_COUNT>
39

> <PUBCHEM_ATOM_DEF_STEREO_COUNT>
3

> <PUBCHEM_ATOM_UDEF_STEREO_COUNT>
1

> <PUBCHEM_BOND_DEF_STEREO_COUNT>
0

> <PUBCHEM_BOND_UDEF_STEREO_COUNT>
0

> <PUBCHEM_ISOTOPIC_ATOM_COUNT>
0

> <PUBCHEM_COMPONENT_COUNT>
1

> <PUBCHEM_CACTVS_TAUTO_COUNT>
14

> <PUBCHEM_CONFORMER_ID>
00964E6300000001

> <PUBCHEM_MMFF94_ENERGY>
89.9612

> <PUBCHEM_FEATURE_SELFOVERLAP>
76.334

> <PUBCHEM_SHAPE_FINGERPRINT>
10 15 17894348878191798899
10165383 225 18411982477528640586
10653451 467 18187367666295170057
11135926 11 18408316701282221295
12677640 9 18051973911703930543
13383668 251 18264200487199310685
13560911 43 18263073320034958562
1361 2 18411415146107171408
13811026 1 18186518769860860943
14092694 8 17631152109983242846
14394314 77 18339927013193767333
14840074 17 18201712934542046535
14849402 71 18411986888539252809
15150948 74 18408885144002610062
15264996 19 15051154809973413324
15328829 1 17846226557711684385
15347590 135 18113899333939289618
15439362 3 18052813934203387424
15664458 129 18272646887251728809
15890870 6 18334577967171559126
16664035 1 18410856594132585584
16992787 43 18411138034869831293
19302320 297 17895194454900881140
20156587 191 18261944138963493157
23522609 53 17632022957778798755
24180151 248 18056489352471604142
24771293 8 18272373070801903925
24771750 20 17825403022614870333
3178227 256 18335425690114613905
3552219 110 17917435285200687739
394071 54 18272656757570785949
44575985 19 18267022932720507088
5758199 1 18342176674229413383
58083652 198 18264762174279612971
9961470 85 17982162628733270176

> <PUBCHEM_SHAPE_MULTIPOLES>
759.85
25.52
5.5
1.44
20.57
3.96
-0.03
4.36
-6.76
-7.11
-0.63
2.31
0.18
0.55

> <PUBCHEM_SHAPE_SELFOVERLAP>
1617.669

> <PUBCHEM_SHAPE_VOLUME>
423.4

> <PUBCHEM_COORDINATE_TYPE>
2
5
10

$$$$
