49830337
  -OEChem-10062121563D

 40 42  0     0  0  0  0  0  0999 V2000
   -0.6798   -5.0720    0.6980 Cl  0  0  0  0  0  0  0  0  0  0  0  0
    2.2520    1.0214   -0.3431 O   0  0  0  0  0  0  0  0  0  0  0  0
   -3.9717    0.5632   -1.5983 N   0  0  0  0  0  0  0  0  0  0  0  0
    2.4575   -1.2592    0.1761 N   0  0  0  0  0  0  0  0  0  0  0  0
   -4.4145    2.5192   -0.2635 N   0  0  0  0  0  0  0  0  0  0  0  0
    0.8758   -3.0198    0.4037 N   0  0  0  0  0  0  0  0  0  0  0  0
   -2.2439   -0.3081   -0.4999 C   0  0  0  0  0  0  0  0  0  0  0  0
    5.0302    1.4726   -0.1993 C   0  0  0  0  0  0  0  0  0  0  0  0
   -2.6421    0.8803    0.1678 C   0  0  0  0  0  0  0  0  0  0  0  0
    4.4393    0.0849    0.0474 C   0  0  0  0  0  0  0  0  0  0  0  0
   -1.1853   -1.2281   -0.1933 C   0  0  0  0  0  0  0  0  0  0  0  0
    6.5558    1.4862   -0.0766 C   0  0  0  0  0  0  0  0  0  0  0  0
   -3.7213    1.3989   -0.5419 C   0  0  0  0  0  0  0  0  0  0  0  0
   -3.0801   -0.4778   -1.5823 C   0  0  0  0  0  0  0  0  0  0  0  0
    0.1335   -0.7885   -0.1581 C   0  0  0  0  0  0  0  0  0  0  0  0
    2.9201    0.0325   -0.0604 C   0  0  0  0  0  0  0  0  0  0  0  0
    1.1183   -1.7156    0.1426 C   0  0  0  0  0  0  0  0  0  0  0  0
   -2.2142    1.5889    1.3023 C   0  0  0  0  0  0  0  0  0  0  0  0
   -1.4747   -2.5625    0.0698 C   0  0  0  0  0  0  0  0  0  0  0  0
    7.1198    2.8764   -0.3257 C   0  0  0  0  0  0  0  0  0  0  0  0
   -0.4178   -3.4102    0.3605 C   0  0  0  0  0  0  0  0  0  0  0  0
   -2.8975    2.7567    1.6362 C   0  0  0  0  0  0  0  0  0  0  0  0
   -3.9594    3.1605    0.8381 C   0  0  0  0  0  0  0  0  0  0  0  0
    4.7394    1.8195   -1.1988 H   0  0  0  0  0  0  0  0  0  0  0  0
    4.5983    2.1842    0.5156 H   0  0  0  0  0  0  0  0  0  0  0  0
    4.7192   -0.2600    1.0504 H   0  0  0  0  0  0  0  0  0  0  0  0
    4.8550   -0.6254   -0.6778 H   0  0  0  0  0  0  0  0  0  0  0  0
    6.9925    0.7848   -0.7969 H   0  0  0  0  0  0  0  0  0  0  0  0
    6.8509    1.1508    0.9243 H   0  0  0  0  0  0  0  0  0  0  0  0
   -3.1250   -1.2412   -2.3475 H   0  0  0  0  0  0  0  0  0  0  0  0
   -4.7022    0.6951   -2.2840 H   0  0  0  0  0  0  0  0  0  0  0  0
    0.3011    0.2536   -0.3760 H   0  0  0  0  0  0  0  0  0  0  0  0
   -1.3806    1.2465    1.9069 H   0  0  0  0  0  0  0  0  0  0  0  0
    3.1388   -1.9806    0.3996 H   0  0  0  0  0  0  0  0  0  0  0  0
   -2.4952   -2.9343    0.0542 H   0  0  0  0  0  0  0  0  0  0  0  0
    6.7251    3.5956    0.3990 H   0  0  0  0  0  0  0  0  0  0  0  0
    6.8675    3.2277   -1.3314 H   0  0  0  0  0  0  0  0  0  0  0  0
    8.2103    2.8648   -0.2336 H   0  0  0  0  0  0  0  0  0  0  0  0
   -2.6042    3.3383    2.5036 H   0  0  0  0  0  0  0  0  0  0  0  0
   -4.5034    4.0688    1.0839 H   0  0  0  0  0  0  0  0  0  0  0  0
  1 21  1  0  0  0  0
  2 16  2  0  0  0  0
  3 13  1  0  0  0  0
  3 14  1  0  0  0  0
  3 31  1  0  0  0  0
  4 16  1  0  0  0  0
  4 17  1  0  0  0  0
  4 34  1  0  0  0  0
  5 13  1  0  0  0  0
  5 23  2  0  0  0  0
  6 17  2  0  0  0  0
  6 21  1  0  0  0  0
  7  9  1  0  0  0  0
  7 11  1  0  0  0  0
  7 14  2  0  0  0  0
  8 10  1  0  0  0  0
  8 12  1  0  0  0  0
  8 24  1  0  0  0  0
  8 25  1  0  0  0  0
  9 13  2  0  0  0  0
  9 18  1  0  0  0  0
 10 16  1  0  0  0  0
 10 26  1  0  0  0  0
 10 27  1  0  0  0  0
 11 15  2  0  0  0  0
 11 19  1  0  0  0  0
 12 20  1  0  0  0  0
 12 28  1  0  0  0  0
 12 29  1  0  0  0  0
 14 30  1  0  0  0  0
 15 17  1  0  0  0  0
 15 32  1  0  0  0  0
 18 22  2  0  0  0  0
 18 33  1  0  0  0  0
 19 21  2  0  0  0  0
 19 35  1  0  0  0  0
 20 36  1  0  0  0  0
 20 37  1  0  0  0  0
 20 38  1  0  0  0  0
 22 23  1  0  0  0  0
 22 39  1  0  0  0  0
 23 40  1  0  0  0  0
M  END
> <PUBCHEM_COMPOUND_CID>
49830337

> <PUBCHEM_CONFORMER_RMSD>
0.8

> <PUBCHEM_CONFORMER_DIVERSEORDER>
1
28
15
32
9
27
23
24
16
10
14
8
29
30
11
18
4
25
21
13
26
7
12
17
20
31
33
3
2
34
5
22
19
6

> <PUBCHEM_MMFF94_PARTIAL_CHARGES>
27
1 -0.18
10 0.06
11 0.05
13 0.11
14 -0.3
15 -0.15
16 0.57
17 0.43
18 -0.15
19 -0.15
2 -0.57
21 0.49
22 -0.15
23 0.16
3 0.03
30 0.15
31 0.27
32 0.15
33 0.15
34 0.37
35 0.15
39 0.15
4 -0.55
40 0.15
5 -0.57
6 -0.62
7 -0.05

> <PUBCHEM_EFFECTIVE_ROTOR_COUNT>
6

> <PUBCHEM_PHARMACOPHORE_FEATURES>
9
1 2 acceptor
1 20 hydrophobe
1 3 cation
1 3 donor
1 4 donor
1 5 acceptor
5 3 7 9 13 14 rings
6 5 9 13 18 22 23 rings
6 6 11 15 17 19 21 rings

> <PUBCHEM_HEAVY_ATOM_COUNT>
23

> <PUBCHEM_ATOM_DEF_STEREO_COUNT>
0

> <PUBCHEM_ATOM_UDEF_STEREO_COUNT>
0

> <PUBCHEM_BOND_DEF_STEREO_COUNT>
0

> <PUBCHEM_BOND_UDEF_STEREO_COUNT>
0

> <PUBCHEM_ISOTOPIC_ATOM_COUNT>
0

> <PUBCHEM_COMPONENT_COUNT>
1

> <PUBCHEM_CACTVS_TAUTO_COUNT>
18

> <PUBCHEM_CONFORMER_ID>
02F859C100000001

> <PUBCHEM_MMFF94_ENERGY>
49.4841

> <PUBCHEM_FEATURE_SELFOVERLAP>
45.783

> <PUBCHEM_SHAPE_FINGERPRINT>
10291535 26 18270121352381620400
10411042 1 17472420327676091858
10871710 139 18271524213255227409
10937287 8 18338801117554725842
11049842 53 15765275234091439471
11135609 187 18335409150554610837
11135609 201 18342183266945782009
11640471 11 17913768323949273963
12107183 9 18261660499433404874
12293681 160 18060700559299462928
12390115 104 18337684069791712558
12788726 201 18266445697568800259
13140716 1 18190182291113028003
14251764 75 17985280568441638465
14508225 48 17550377883696675479
14713325 29 18267313212585584842
14739800 52 18128229334337142256
14767858 380 18269253782242061023
14787075 74 18412820301268170399
14790565 3 18265899064627802028
14849402 71 18121503445215950154
14931854 50 18201992214347701277
14950920 106 13262395575088318652
15342168 16 18263929839175906941
15513586 35 16809849054753503268
16087824 20 18265894851909599847
1813 80 16828966890485932231
19784866 34 18338235959834977505
20238998 120 17762341718446497915
20715895 44 16255034980777704057
20739085 24 17970919851618293742
21304253 13 17762348311421868043
21756936 100 18342461460540954618
2255824 54 17907574727584909543
22956985 138 16029299346314848346
23522609 53 17485647058281212977
23845131 108 18261962838897113155
283562 15 18336262457250679627
38570 142 18055655939726536828
394222 165 18123183511667653531
4258327 124 17459476730758717948
4409770 3 18192147311760382907
474 4 18193835942782438947
5104073 3 17968088751454251082
531348 171 17775008994725783654
57634706 229 18269578124913150648
6034566 193 18260844712300911900
6058803 2 17840291234973104783
6299153 45 18337102364454490944
6327066 14 18261101980873376652
633830 44 18270117881605330158
7288768 16 18187653487351263371
77188 2 17256249770006947827
7808743 9 18409447024989287712
9981440 41 18408881815524574531

> <PUBCHEM_SHAPE_MULTIPOLES>
449.41
12.17
5.22
1.11
27.15
5.24
0.04
-16.59
1.92
-2.92
-2.06
-1.41
-0.43
-1.19

> <PUBCHEM_SHAPE_SELFOVERLAP>
962.3

> <PUBCHEM_SHAPE_VOLUME>
250.2

> <PUBCHEM_COORDINATE_TYPE>
2
5
10

$$$$
