9916282
  -OEChem-10062121563D

 74 78  0     0  0  0  0  0  0999 V2000
   -3.4860    0.6678    1.7731 S   0  0  0  0  0  0  0  0  0  0  0  0
   -7.0333   -5.3459   -0.8830 F   0  0  0  0  0  0  0  0  0  0  0  0
    7.1625   -4.6956    2.9080 O   0  0  0  0  0  0  0  0  0  0  0  0
    4.4498    1.0571   -1.8974 O   0  0  0  0  0  0  0  0  0  0  0  0
    2.6464   -0.8423   -0.9566 O   0  0  0  0  0  0  0  0  0  0  0  0
   -7.5745    1.1641    0.1875 O   0  0  0  0  0  0  0  0  0  0  0  0
    6.9073   -1.0843   -0.7097 N   0  0  0  0  0  0  0  0  0  0  0  0
    1.5270    4.5532   -0.4895 N   0  0  0  0  0  0  0  0  0  0  0  0
   -1.2335    1.8238    0.9458 N   0  0  0  0  0  0  0  0  0  0  0  0
   -0.5756    4.0523    0.5760 N   0  0  0  0  0  0  0  0  0  0  0  0
   -3.2351    3.0888    0.9024 N   0  0  0  0  0  0  0  0  0  0  0  0
   -6.6859   -0.8954    0.8850 N   0  0  0  0  0  0  0  0  0  0  0  0
    7.7560   -2.9597    1.3777 C   0  0  0  0  0  0  0  0  0  0  0  0
    8.3602   -1.5585    1.2359 C   0  0  0  0  0  0  0  0  0  0  0  0
    6.3454   -2.9783    0.7795 C   0  0  0  0  0  0  0  0  0  0  0  0
    8.2889   -1.0655   -0.2109 C   0  0  0  0  0  0  0  0  0  0  0  0
    6.3412   -2.4388   -0.6523 C   0  0  0  0  0  0  0  0  0  0  0  0
    6.8491   -0.5625   -2.0750 C   0  0  0  0  0  0  0  0  0  0  0  0
    7.7387   -3.4044    2.8376 C   0  0  0  0  0  0  0  0  0  0  0  0
    6.8376    0.9627   -2.0588 C   0  0  0  0  0  0  0  0  0  0  0  0
    5.6478    1.5042   -1.2780 C   0  0  0  0  0  0  0  0  0  0  0  0
    3.2708    1.4392   -1.3118 C   0  0  0  0  0  0  0  0  0  0  0  0
    2.3727    0.4865   -0.8438 C   0  0  0  0  0  0  0  0  0  0  0  0
    2.9766    2.8003   -1.1877 C   0  0  0  0  0  0  0  0  0  0  0  0
    1.7926    3.2397   -0.6002 C   0  0  0  0  0  0  0  0  0  0  0  0
    0.8936    2.2679   -0.1314 C   0  0  0  0  0  0  0  0  0  0  0  0
    1.1821    0.8973   -0.2524 C   0  0  0  0  0  0  0  0  0  0  0  0
   -0.2781    2.7453    0.4493 C   0  0  0  0  0  0  0  0  0  0  0  0
    0.3574    4.8882    0.0920 C   0  0  0  0  0  0  0  0  0  0  0  0
    1.6703   -1.7513   -0.4503 C   0  0  0  0  0  0  0  0  0  0  0  0
   -2.5730    1.9807    1.1505 C   0  0  0  0  0  0  0  0  0  0  0  0
   -4.8913    1.6489    1.7135 C   0  0  0  0  0  0  0  0  0  0  0  0
   -6.1977    1.1167    2.1466 C   0  0  0  0  0  0  0  0  0  0  0  0
   -4.5642    2.8966    1.2254 C   0  0  0  0  0  0  0  0  0  0  0  0
   -6.9171    0.4729    0.9615 C   0  0  0  0  0  0  0  0  0  0  0  0
   -7.1903   -1.8017   -0.0781 C   0  0  0  0  0  0  0  0  0  0  0  0
   -6.8561   -3.1541   -0.0051 C   0  0  0  0  0  0  0  0  0  0  0  0
   -8.0222   -1.3430   -1.0994 C   0  0  0  0  0  0  0  0  0  0  0  0
   -7.3540   -4.0475   -0.9535 C   0  0  0  0  0  0  0  0  0  0  0  0
   -8.5201   -2.2365   -2.0479 C   0  0  0  0  0  0  0  0  0  0  0  0
   -8.1860   -3.5888   -1.9748 C   0  0  0  0  0  0  0  0  0  0  0  0
    8.3678   -3.6718    0.8068 H   0  0  0  0  0  0  0  0  0  0  0  0
    9.4060   -1.5686    1.5654 H   0  0  0  0  0  0  0  0  0  0  0  0
    7.8282   -0.8522    1.8870 H   0  0  0  0  0  0  0  0  0  0  0  0
    5.9437   -3.9984    0.7712 H   0  0  0  0  0  0  0  0  0  0  0  0
    5.6672   -2.3744    1.3969 H   0  0  0  0  0  0  0  0  0  0  0  0
    8.9411   -1.6873   -0.8387 H   0  0  0  0  0  0  0  0  0  0  0  0
    8.6955   -0.0487   -0.2304 H   0  0  0  0  0  0  0  0  0  0  0  0
    5.3014   -2.4236   -1.0014 H   0  0  0  0  0  0  0  0  0  0  0  0
    6.8965   -3.1224   -1.3080 H   0  0  0  0  0  0  0  0  0  0  0  0
    5.9352   -0.9021   -2.5799 H   0  0  0  0  0  0  0  0  0  0  0  0
    7.6824   -0.9308   -2.6870 H   0  0  0  0  0  0  0  0  0  0  0  0
    7.1452   -2.7222    3.4555 H   0  0  0  0  0  0  0  0  0  0  0  0
    8.7554   -3.4506    3.2413 H   0  0  0  0  0  0  0  0  0  0  0  0
    7.7681    1.3683   -1.6482 H   0  0  0  0  0  0  0  0  0  0  0  0
    6.7711    1.3094   -3.0977 H   0  0  0  0  0  0  0  0  0  0  0  0
    5.6728    1.1881   -0.2284 H   0  0  0  0  0  0  0  0  0  0  0  0
    5.7020    2.5986   -1.3014 H   0  0  0  0  0  0  0  0  0  0  0  0
    7.1633   -4.9593    3.8439 H   0  0  0  0  0  0  0  0  0  0  0  0
    3.6740    3.5422   -1.5725 H   0  0  0  0  0  0  0  0  0  0  0  0
    0.4569    0.1775    0.1020 H   0  0  0  0  0  0  0  0  0  0  0  0
   -0.8308    0.9654    1.3078 H   0  0  0  0  0  0  0  0  0  0  0  0
    0.1492    5.9477    0.1781 H   0  0  0  0  0  0  0  0  0  0  0  0
    2.0565   -2.7621   -0.6190 H   0  0  0  0  0  0  0  0  0  0  0  0
    0.7257   -1.6780   -0.9999 H   0  0  0  0  0  0  0  0  0  0  0  0
    1.5371   -1.6412    0.6314 H   0  0  0  0  0  0  0  0  0  0  0  0
   -6.8368    1.9232    2.5262 H   0  0  0  0  0  0  0  0  0  0  0  0
   -6.0955    0.3967    2.9669 H   0  0  0  0  0  0  0  0  0  0  0  0
   -5.2617    3.7113    1.0827 H   0  0  0  0  0  0  0  0  0  0  0  0
   -6.0885   -1.3120    1.5957 H   0  0  0  0  0  0  0  0  0  0  0  0
   -6.2090   -3.5249    0.7855 H   0  0  0  0  0  0  0  0  0  0  0  0
   -8.3276   -0.3134   -1.2210 H   0  0  0  0  0  0  0  0  0  0  0  0
   -9.1686   -1.8808   -2.8434 H   0  0  0  0  0  0  0  0  0  0  0  0
   -8.5736   -4.2849   -2.7129 H   0  0  0  0  0  0  0  0  0  0  0  0
  1 31  1  0  0  0  0
  1 32  1  0  0  0  0
  2 39  1  0  0  0  0
  3 19  1  0  0  0  0
  3 59  1  0  0  0  0
  4 21  1  0  0  0  0
  4 22  1  0  0  0  0
  5 23  1  0  0  0  0
  5 30  1  0  0  0  0
  6 35  2  0  0  0  0
  7 16  1  0  0  0  0
  7 17  1  0  0  0  0
  7 18  1  0  0  0  0
  8 25  1  0  0  0  0
  8 29  2  0  0  0  0
  9 28  1  0  0  0  0
  9 31  1  0  0  0  0
  9 62  1  0  0  0  0
 10 28  2  0  0  0  0
 10 29  1  0  0  0  0
 11 31  2  0  0  0  0
 11 34  1  0  0  0  0
 12 35  1  0  0  0  0
 12 36  1  0  0  0  0
 12 70  1  0  0  0  0
 13 14  1  0  0  0  0
 13 15  1  0  0  0  0
 13 19  1  0  0  0  0
 13 42  1  0  0  0  0
 14 16  1  0  0  0  0
 14 43  1  0  0  0  0
 14 44  1  0  0  0  0
 15 17  1  0  0  0  0
 15 45  1  0  0  0  0
 15 46  1  0  0  0  0
 16 47  1  0  0  0  0
 16 48  1  0  0  0  0
 17 49  1  0  0  0  0
 17 50  1  0  0  0  0
 18 20  1  0  0  0  0
 18 51  1  0  0  0  0
 18 52  1  0  0  0  0
 19 53  1  0  0  0  0
 19 54  1  0  0  0  0
 20 21  1  0  0  0  0
 20 55  1  0  0  0  0
 20 56  1  0  0  0  0
 21 57  1  0  0  0  0
 21 58  1  0  0  0  0
 22 23  2  0  0  0  0
 22 24  1  0  0  0  0
 23 27  1  0  0  0  0
 24 25  2  0  0  0  0
 24 60  1  0  0  0  0
 25 26  1  0  0  0  0
 26 27  2  0  0  0  0
 26 28  1  0  0  0  0
 27 61  1  0  0  0  0
 29 63  1  0  0  0  0
 30 64  1  0  0  0  0
 30 65  1  0  0  0  0
 30 66  1  0  0  0  0
 32 33  1  0  0  0  0
 32 34  2  0  0  0  0
 33 35  1  0  0  0  0
 33 67  1  0  0  0  0
 33 68  1  0  0  0  0
 34 69  1  0  0  0  0
 36 37  2  0  0  0  0
 36 38  1  0  0  0  0
 37 39  1  0  0  0  0
 37 71  1  0  0  0  0
 38 40  2  0  0  0  0
 38 72  1  0  0  0  0
 39 41  2  0  0  0  0
 40 41  1  0  0  0  0
 40 73  1  0  0  0  0
 41 74  1  0  0  0  0
M  END
> <PUBCHEM_COMPOUND_CID>
9916282

> <PUBCHEM_CONFORMER_RMSD>
1.4

> <PUBCHEM_CONFORMER_DIVERSEORDER>
9
4
111
79
31
41
93
40
83
8
103
100
112
114
101
86
107
43
95
52
62
56
109
25
90
10
60
113
82
54
37
28
75
64
87
36
76
7
33
66
117
88
104
108
59
92
38
58
63
20
68
34
47
96
98
94
73
1
74
89
55
78
84
17
99
115
21
15
110
42
116
5
27
71
24
61
77
35
70
106
91
49
81
65
45
51
32
105
72
12
46
57
69
102
26
53
30
6
67
39
14
29
44
48
16
11
23
85
80
22
50
3
13
19
2
97
18

> <PUBCHEM_MMFF94_PARTIAL_CHARGES>
47
1 -0.08
10 -0.62
11 -0.57
12 -0.55
16 0.27
17 0.27
18 0.27
19 0.28
2 -0.19
21 0.28
22 0.08
23 0.08
24 -0.15
25 0.31
27 -0.15
28 0.41
29 0.47
3 -0.68
30 0.28
31 0.46
32 -0.14
33 0.24
34 0.08
35 0.57
36 0.12
37 -0.15
38 -0.15
39 0.19
4 -0.36
40 -0.15
41 -0.15
5 -0.36
59 0.4
6 -0.57
60 0.15
61 0.15
62 0.4
63 0.15
69 0.15
7 -0.81
70 0.37
71 0.15
72 0.15
73 0.15
74 0.15
8 -0.62
9 -0.58

> <PUBCHEM_EFFECTIVE_ROTOR_COUNT>
14.2

> <PUBCHEM_PHARMACOPHORE_FEATURES>
16
1 12 donor
1 3 acceptor
1 3 donor
1 4 acceptor
1 5 acceptor
1 6 acceptor
1 7 cation
1 9 donor
3 8 10 29 cation
3 9 10 28 cation
3 9 11 31 cation
5 1 11 31 32 34 rings
6 22 23 24 25 26 27 rings
6 36 37 38 39 40 41 rings
6 7 13 14 15 16 17 rings
6 8 10 25 26 28 29 rings

> <PUBCHEM_HEAVY_ATOM_COUNT>
41

> <PUBCHEM_ATOM_DEF_STEREO_COUNT>
0

> <PUBCHEM_ATOM_UDEF_STEREO_COUNT>
0

> <PUBCHEM_BOND_DEF_STEREO_COUNT>
0

> <PUBCHEM_BOND_UDEF_STEREO_COUNT>
0

> <PUBCHEM_ISOTOPIC_ATOM_COUNT>
0

> <PUBCHEM_COMPONENT_COUNT>
1

> <PUBCHEM_CACTVS_TAUTO_COUNT>
8

> <PUBCHEM_CONFORMER_ID>
00974F7A00000009

> <PUBCHEM_MMFF94_ENERGY>
116.5521

> <PUBCHEM_FEATURE_SELFOVERLAP>
81.799

> <PUBCHEM_SHAPE_FINGERPRINT>
11478447 30 18271524303781466833
11963148 33 18339370651777648534
12013929 27 18192716863979878407
12120059 9 18337376189172196776
12539765 74 10881400937548169840
13165054 54 18261385586413108082
14017579 52 18129952165135373567
16990366 60 18272932747384136753
16993427 108 18335422322976753688
19303781 99 18334868225293242595
19841028 212 18271247222134423845
21585483 132 18410574015290491011
21987483 16 18341048618771111184
25025965 108 18337107869637752699
4167350 143 18270399386805561242
4756088 132 17543073385514010658
50009960 94 18411135835614343695
5719381 36 18410299102960108851
5874358 3 18334007264406958410
6201320 221 17458897133850265082

> <PUBCHEM_SHAPE_MULTIPOLES>
786.97
32.42
7.02
2.3
10.11
1.43
0.66
45.7
-0.98
3.1
0.9
-1.99
1.62
-12.06

> <PUBCHEM_SHAPE_SELFOVERLAP>
1676.372

> <PUBCHEM_SHAPE_VOLUME>
441

> <PUBCHEM_COORDINATE_TYPE>
2
5
10

$$$$
