49830717
  -OEChem-10062121543D

 42 44  0     1  0  0  0  0  0999 V2000
    1.7004   -0.2831   -0.1766 S   0  0  0  0  0  0  0  0  0  0  0  0
   -5.8854    1.1963    1.5460 O   0  0  0  0  0  0  0  0  0  0  0  0
   -0.5611   -3.3610    0.5483 O   0  0  0  0  0  0  0  0  0  0  0  0
   -1.0339   -1.2999   -0.4009 N   0  0  0  0  0  0  0  0  0  0  0  0
    6.1982    2.4902   -0.2465 N   0  0  0  0  0  0  0  0  0  0  0  0
   -2.4531   -1.5356   -0.6059 C   0  0  1  0  0  0  0  0  0  0  0  0
   -3.2556   -0.2815   -0.5240 C   0  0  0  0  0  0  0  0  0  0  0  0
   -2.6437   -2.2967   -1.9265 C   0  0  0  0  0  0  0  0  0  0  0  0
   -4.2061   -0.1266    0.4851 C   0  0  0  0  0  0  0  0  0  0  0  0
   -3.0563    0.7366   -1.4566 C   0  0  0  0  0  0  0  0  0  0  0  0
   -0.2056   -2.2491    0.1662 C   0  0  0  0  0  0  0  0  0  0  0  0
    1.2141   -1.8444    0.3317 C   0  0  0  0  0  0  0  0  0  0  0  0
   -4.9574    1.0462    0.5618 C   0  0  0  0  0  0  0  0  0  0  0  0
   -3.8077    1.9093   -1.3801 C   0  0  0  0  0  0  0  0  0  0  0  0
    3.3173   -0.5696    0.3089 C   0  0  0  0  0  0  0  0  0  0  0  0
   -4.7581    2.0643   -0.3709 C   0  0  0  0  0  0  0  0  0  0  0  0
    2.2623   -2.5662    0.8590 C   0  0  0  0  0  0  0  0  0  0  0  0
    3.4807   -1.8275    0.8459 C   0  0  0  0  0  0  0  0  0  0  0  0
    4.2979    0.4730    0.1198 C   0  0  0  0  0  0  0  0  0  0  0  0
    4.9780    0.9983    1.2130 C   0  0  0  0  0  0  0  0  0  0  0  0
    4.5669    0.9552   -1.1564 C   0  0  0  0  0  0  0  0  0  0  0  0
    5.9099    1.9964    0.9786 C   0  0  0  0  0  0  0  0  0  0  0  0
    5.5174    1.9552   -1.2848 C   0  0  0  0  0  0  0  0  0  0  0  0
   -6.6191    2.4200    1.5651 C   0  0  0  0  0  0  0  0  0  0  0  0
   -2.7802   -2.2165    0.1911 H   0  0  0  0  0  0  0  0  0  0  0  0
   -0.6366   -0.4156   -0.7059 H   0  0  0  0  0  0  0  0  0  0  0  0
   -3.7049   -2.4947   -2.1136 H   0  0  0  0  0  0  0  0  0  0  0  0
   -2.1208   -3.2593   -1.9027 H   0  0  0  0  0  0  0  0  0  0  0  0
   -2.2494   -1.7361   -2.7815 H   0  0  0  0  0  0  0  0  0  0  0  0
   -4.3698   -0.9135    1.2173 H   0  0  0  0  0  0  0  0  0  0  0  0
   -2.3179    0.6373   -2.2476 H   0  0  0  0  0  0  0  0  0  0  0  0
   -3.6512    2.7018   -2.1063 H   0  0  0  0  0  0  0  0  0  0  0  0
   -5.3062    3.0002   -0.3699 H   0  0  0  0  0  0  0  0  0  0  0  0
    2.1677   -3.5760    1.2377 H   0  0  0  0  0  0  0  0  0  0  0  0
    4.4255   -2.2090    1.2129 H   0  0  0  0  0  0  0  0  0  0  0  0
    4.7958    0.6514    2.2251 H   0  0  0  0  0  0  0  0  0  0  0  0
    4.0685    0.5692   -2.0399 H   0  0  0  0  0  0  0  0  0  0  0  0
    6.4669    2.4397    1.7975 H   0  0  0  0  0  0  0  0  0  0  0  0
    5.7657    2.3639   -2.2588 H   0  0  0  0  0  0  0  0  0  0  0  0
   -5.9633    3.2796    1.7406 H   0  0  0  0  0  0  0  0  0  0  0  0
   -7.2268    2.5390    0.6617 H   0  0  0  0  0  0  0  0  0  0  0  0
   -7.3116    2.3684    2.4116 H   0  0  0  0  0  0  0  0  0  0  0  0
  1 12  1  0  0  0  0
  1 15  1  0  0  0  0
  2 13  1  0  0  0  0
  2 24  1  0  0  0  0
  3 11  2  0  0  0  0
  4  6  1  0  0  0  0
  4 11  1  0  0  0  0
  4 26  1  0  0  0  0
  5 22  2  0  0  0  0
  5 23  1  0  0  0  0
  6  7  1  0  0  0  0
  6  8  1  0  0  0  0
  6 25  1  0  0  0  0
  7  9  2  0  0  0  0
  7 10  1  0  0  0  0
  8 27  1  0  0  0  0
  8 28  1  0  0  0  0
  8 29  1  0  0  0  0
  9 13  1  0  0  0  0
  9 30  1  0  0  0  0
 10 14  2  0  0  0  0
 10 31  1  0  0  0  0
 11 12  1  0  0  0  0
 12 17  2  0  0  0  0
 13 16  2  0  0  0  0
 14 16  1  0  0  0  0
 14 32  1  0  0  0  0
 15 18  2  0  0  0  0
 15 19  1  0  0  0  0
 16 33  1  0  0  0  0
 17 18  1  0  0  0  0
 17 34  1  0  0  0  0
 18 35  1  0  0  0  0
 19 20  2  0  0  0  0
 19 21  1  0  0  0  0
 20 22  1  0  0  0  0
 20 36  1  0  0  0  0
 21 23  2  0  0  0  0
 21 37  1  0  0  0  0
 22 38  1  0  0  0  0
 23 39  1  0  0  0  0
 24 40  1  0  0  0  0
 24 41  1  0  0  0  0
 24 42  1  0  0  0  0
M  END
> <PUBCHEM_COMPOUND_CID>
49830717

> <PUBCHEM_CONFORMER_RMSD>
0.8

> <PUBCHEM_CONFORMER_DIVERSEORDER>
4
20
97
106
115
16
119
131
55
18
43
93
85
29
66
73
114
30
123
116
129
86
21
126
11
13
94
23
15
27
38
31
14
79
78
127
95
44
2
80
124
104
135
87
17
35
59
118
61
54
75
128
120
49
132
28
112
83
109
72
19
45
130
137
122
6
47
7
81
51
32
70
103
62
108
99
64
10
134
67
82
107
5
96
71
77
91
133
60
69
48
90
113
41
63
111
98
89
68
100
26
46
76
92
88
65
37
9
58
121
101
36
34
84
117
52
53
105
8
56
12
110
25
33
136
1
40
3
125
50
74
22
24
57
102
42
39

> <PUBCHEM_MMFF94_PARTIAL_CHARGES>
34
1 -0.08
10 -0.15
11 0.71
12 -0.05
13 0.08
14 -0.15
15 -0.01
16 -0.15
17 -0.15
18 -0.15
19 0.05
2 -0.36
20 -0.15
21 -0.15
22 0.16
23 0.16
24 0.28
26 0.37
3 -0.57
30 0.15
31 0.15
32 0.15
33 0.15
34 0.15
35 0.15
36 0.15
37 0.15
38 0.15
39 0.15
4 -0.73
5 -0.62
6 0.44
7 -0.14
9 -0.15

> <PUBCHEM_EFFECTIVE_ROTOR_COUNT>
6

> <PUBCHEM_PHARMACOPHORE_FEATURES>
7
1 2 acceptor
1 3 acceptor
1 4 donor
1 5 acceptor
5 1 12 15 17 18 rings
6 5 19 20 21 22 23 rings
6 7 9 10 13 14 16 rings

> <PUBCHEM_HEAVY_ATOM_COUNT>
24

> <PUBCHEM_ATOM_DEF_STEREO_COUNT>
0

> <PUBCHEM_ATOM_UDEF_STEREO_COUNT>
1

> <PUBCHEM_BOND_DEF_STEREO_COUNT>
0

> <PUBCHEM_BOND_UDEF_STEREO_COUNT>
0

> <PUBCHEM_ISOTOPIC_ATOM_COUNT>
0

> <PUBCHEM_COMPONENT_COUNT>
1

> <PUBCHEM_CACTVS_TAUTO_COUNT>
2

> <PUBCHEM_CONFORMER_ID>
02F85B3D00000004

> <PUBCHEM_MMFF94_ENERGY>
66.6883

> <PUBCHEM_FEATURE_SELFOVERLAP>
35.522

> <PUBCHEM_SHAPE_FINGERPRINT>
10 15 17603588525731567117
105312 117 17489304230573125606
11088757 655 16734695159099534515
11135609 201 18337105777893415482
11273773 46 11024108751088326229
11720765 8 17773041848376007358
12107183 9 17969761091634594938
12390115 104 18412549842049098111
12422481 6 17241032237573971508
12788726 201 17346041048050317817
13398642 44 17314810687363088964
13540713 5 18268408222761041575
13782708 43 11675413242825427816
13828863 39 18412268303296315201
13885169 86 18410019861530591505
14251764 75 18413109450470380073
14565420 104 18261116214848773803
14765038 42 18413114969461598961
14790565 3 18334856147423414164
14840074 17 18342185427604995089
14848178 5 8862942766710164534
14910302 57 12463280363527143371
14950920 106 16226313820828703152
15163728 17 18131636677051859558
15183329 4 12751241372383665465
15188451 53 11674873424499595761
15326923 82 18272939298949931841
15338160 23 18339648936232007075
15519825 34 16298963064429834857
16067690 210 17274829029851747712
1768 23 17968671526655275556
18393751 57 18113623370271049211
19246450 95 17100822459303115336
20691028 202 18342176648470217969
21120745 212 18055064622242717351
21302155 148 18334293162688384845
21315763 87 12468640555764204212
21365058 113 17337326168639043487
21401589 2 18186800296582888259
21756936 100 18338516451491505014
21774942 28 17632576042392736480
23559900 14 17917146083874191334
23622692 118 9079119955429206594
249057 25 18198036171405487463
270888 7 18413671309449224321
2748736 6 18410845560234391081
2838139 119 18269546312533006576
3014063 24 11241974801924085393
312425 54 11891869698400510196
3178227 256 18116153260453532450
3459 39 18266435746608876672
3472631 163 18130787854259358165
3680242 22 18187355533313271760
38570 142 18340222812043944790
437795 70 14907904830047301161
44062 13 10880003457968059403
50009960 94 16302080257652228771
5104073 3 18186794794846294690
5252454 2 18341038662472039441
5718773 13 7781507089063636033
57724786 102 18199469853237560887
59682541 52 15769503014786825420
6058803 2 18197472105140910159
633830 44 18409440363221393798
636775 72 18053375789657547328
6712543 237 15574713582566554849
7288768 16 18040155132262329227
7808743 9 18335697295151002946
7970288 3 7853560306403366793
960060 61 14476961199069359882

> <PUBCHEM_SHAPE_MULTIPOLES>
476.06
16.76
3.5
1.5
0.29
1.11
0.21
-17.95
-3.69
0.34
-0.22
-1.02
-0.37
-2.2

> <PUBCHEM_SHAPE_SELFOVERLAP>
1014.655

> <PUBCHEM_SHAPE_VOLUME>
266.1

> <PUBCHEM_COORDINATE_TYPE>
2
5
10

$$$$
