24905290
  -OEChem-10052115153D

 32 34  0     0  0  0  0  0  0999 V2000
    3.8672   -0.0689   -2.0231 O   0  0  0  0  0  0  0  0  0  0  0  0
   -2.2180    1.7344   -0.0299 N   0  0  0  0  0  0  0  0  0  0  0  0
   -0.8843    1.8942    0.0564 N   0  0  0  0  0  0  0  0  0  0  0  0
   -3.8677   -0.0352   -0.1273 N   0  0  0  0  0  0  0  0  0  0  0  0
   -2.8299   -2.2414   -0.0464 N   0  0  0  0  0  0  0  0  0  0  0  0
   -0.4685   -2.5510    0.1109 N   0  0  0  0  0  0  0  0  0  0  0  0
   -0.4222    0.6396    0.0940 C   0  0  0  0  0  0  0  0  0  0  0  0
   -1.4497   -0.3201    0.0324 C   0  0  0  0  0  0  0  0  0  0  0  0
   -2.6105    0.4289   -0.0479 C   0  0  0  0  0  0  0  0  0  0  0  0
    0.9961    0.4012    0.1878 C   0  0  0  0  0  0  0  0  0  0  0  0
   -1.5888   -1.7040    0.0316 C   0  0  0  0  0  0  0  0  0  0  0  0
    1.7613    0.2784   -0.9719 C   0  0  0  0  0  0  0  0  0  0  0  0
    1.6035    0.2929    1.4389 C   0  0  0  0  0  0  0  0  0  0  0  0
    3.7413   -0.0610    0.3703 C   0  0  0  0  0  0  0  0  0  0  0  0
    3.1340    0.0474   -0.8807 C   0  0  0  0  0  0  0  0  0  0  0  0
   -3.0717    2.8969   -0.0924 C   0  0  0  0  0  0  0  0  0  0  0  0
    2.9760    0.0616    1.5300 C   0  0  0  0  0  0  0  0  0  0  0  0
   -3.8774   -1.3857   -0.1200 C   0  0  0  0  0  0  0  0  0  0  0  0
    5.2091   -0.3082    0.4871 C   0  0  0  0  0  0  0  0  0  0  0  0
    1.2892    0.3622   -1.9487 H   0  0  0  0  0  0  0  0  0  0  0  0
    1.0210    0.3855    2.3525 H   0  0  0  0  0  0  0  0  0  0  0  0
   -2.9152    3.4856    0.8151 H   0  0  0  0  0  0  0  0  0  0  0  0
   -2.7963    3.4765   -0.9771 H   0  0  0  0  0  0  0  0  0  0  0  0
   -4.1179    2.5910   -0.1603 H   0  0  0  0  0  0  0  0  0  0  0  0
    3.4336   -0.0206    2.5124 H   0  0  0  0  0  0  0  0  0  0  0  0
   -4.8563   -1.8491   -0.1812 H   0  0  0  0  0  0  0  0  0  0  0  0
    5.4746   -1.2554    0.0062 H   0  0  0  0  0  0  0  0  0  0  0  0
    5.7705    0.5045    0.0144 H   0  0  0  0  0  0  0  0  0  0  0  0
    5.5323   -0.3674    1.5320 H   0  0  0  0  0  0  0  0  0  0  0  0
    0.4682   -2.1798    0.1709 H   0  0  0  0  0  0  0  0  0  0  0  0
   -0.6144   -3.5516    0.1082 H   0  0  0  0  0  0  0  0  0  0  0  0
    3.2787    0.0337   -2.7906 H   0  0  0  0  0  0  0  0  0  0  0  0
  1 15  1  0  0  0  0
  1 32  1  0  0  0  0
  2  3  1  0  0  0  0
  2  9  1  0  0  0  0
  2 16  1  0  0  0  0
  3  7  2  0  0  0  0
  4  9  2  0  0  0  0
  4 18  1  0  0  0  0
  5 11  1  0  0  0  0
  5 18  2  0  0  0  0
  6 11  1  0  0  0  0
  6 30  1  0  0  0  0
  6 31  1  0  0  0  0
  7  8  1  0  0  0  0
  7 10  1  0  0  0  0
  8  9  1  0  0  0  0
  8 11  2  0  0  0  0
 10 12  2  0  0  0  0
 10 13  1  0  0  0  0
 12 15  1  0  0  0  0
 12 20  1  0  0  0  0
 13 17  2  0  0  0  0
 13 21  1  0  0  0  0
 14 15  2  0  0  0  0
 14 17  1  0  0  0  0
 14 19  1  0  0  0  0
 16 22  1  0  0  0  0
 16 23  1  0  0  0  0
 16 24  1  0  0  0  0
 17 25  1  0  0  0  0
 18 26  1  0  0  0  0
 19 27  1  0  0  0  0
 19 28  1  0  0  0  0
 19 29  1  0  0  0  0
M  END
> <PUBCHEM_COMPOUND_CID>
24905290

> <PUBCHEM_CONFORMER_RMSD>
0.6

> <PUBCHEM_CONFORMER_DIVERSEORDER>
1
2

> <PUBCHEM_MMFF94_PARTIAL_CHARGES>
25
1 -0.53
10 0.05
11 0.41
12 -0.15
13 -0.15
14 -0.14
15 0.08
16 0.26
17 -0.15
18 0.47
19 0.14
2 0.31
20 0.15
21 0.15
25 0.15
26 0.15
3 -0.71
30 0.4
31 0.4
32 0.45
4 -0.57
5 -0.62
6 -0.9
7 0.23
9 0.11

> <PUBCHEM_EFFECTIVE_ROTOR_COUNT>
1

> <PUBCHEM_PHARMACOPHORE_FEATURES>
9
1 1 donor
1 3 acceptor
1 6 cation
1 6 donor
3 2 4 9 cation
3 4 5 18 cation
5 2 3 7 8 9 rings
6 10 12 13 14 15 17 rings
6 4 5 8 9 11 18 rings

> <PUBCHEM_HEAVY_ATOM_COUNT>
19

> <PUBCHEM_ATOM_DEF_STEREO_COUNT>
0

> <PUBCHEM_ATOM_UDEF_STEREO_COUNT>
0

> <PUBCHEM_BOND_DEF_STEREO_COUNT>
0

> <PUBCHEM_BOND_UDEF_STEREO_COUNT>
0

> <PUBCHEM_ISOTOPIC_ATOM_COUNT>
0

> <PUBCHEM_COMPONENT_COUNT>
1

> <PUBCHEM_CACTVS_TAUTO_COUNT>
15

> <PUBCHEM_CONFORMER_ID>
017C064A00000001

> <PUBCHEM_MMFF94_ENERGY>
49.4585

> <PUBCHEM_FEATURE_SELFOVERLAP>
45.951

> <PUBCHEM_SHAPE_FINGERPRINT>
10616163 171 18409445886417129634
1100329 8 14091870874565421712
11543360 7 15502930952097396163
11582403 64 16332937809913044880
11796584 16 18199189482600546230
12236239 1 17676485042867288616
12500047 106 18340197484526815624
12553582 1 18264491857132208203
13140716 1 18266743670136335017
13538477 17 18113615733011847514
13581323 91 18410003351733684994
13862211 1 18338514257406911767
14386348 63 17703793634736260062
15042514 8 18337392763878136619
15653759 3 18060700602259366352
16752209 62 18335974320641639755
16945 1 18410570695802640393
17804303 29 18341893034599137633
18186145 218 17917435267794243992
19049666 15 17774447062062250336
19141452 34 17631735001680659495
19422 9 17822010895771633626
19862831 5 17458059395729979258
200 152 16588016914144054400
20028762 73 17912932978924281071
20279233 1 17846781814845870022
20510252 161 18344144791421354921
20645476 183 17531247309249241307
20645477 70 16415200014702682452
20871999 31 18340499914680696676
20905425 154 18270684151653139935
21065201 7 18341048536834000522
22112679 90 18040154002633137036
23175994 123 17132117948420700816
23366157 5 17753331959222099275
23402539 116 18340476829199533381
23526113 38 17417242114045313176
23557571 272 18272090509183149944
23559900 14 18129101131035646654
23598291 2 17676492726695721724
2748010 2 18050556637294682409
43471831 8 18335414621899925147
465052 167 17898305033204219283
474 4 17024320840950110828
559249 180 18190172396030253658
573450 72 18261384521302325432
602551 16 18412822499874506282
6049 1 17918276471583436504
67856867 119 18043249240183504684
77492 1 17676204663065131352
81228 2 18411421743451199177
90525 40 18186799141073011939
9709674 26 18343868796917930822

> <PUBCHEM_SHAPE_MULTIPOLES>
360.24
8.31
2.19
1.13
5.14
0.18
-0.14
-0.6
-0.42
-3.43
0
1.55
0.05
0.01

> <PUBCHEM_SHAPE_SELFOVERLAP>
800.222

> <PUBCHEM_SHAPE_VOLUME>
193.7

> <PUBCHEM_COORDINATE_TYPE>
2
5
10

$$$$
