49830616
  -OEChem-10062121523D

 52 55  0     0  0  0  0  0  0999 V2000
   -0.8902   -2.3919   -1.9748 F   0  0  0  0  0  0  0  0  0  0  0  0
    1.7764   -4.8433    1.0653 F   0  0  0  0  0  0  0  0  0  0  0  0
    5.0028   -0.7989   -0.0738 O   0  0  0  0  0  0  0  0  0  0  0  0
    6.2327    1.0853    0.1044 O   0  0  0  0  0  0  0  0  0  0  0  0
    2.6949    1.7198    0.2401 N   0  0  0  0  0  0  0  0  0  0  0  0
   -2.9704    1.0786   -0.0023 N   0  0  0  0  0  0  0  0  0  0  0  0
   -3.1930   -1.0899   -0.4810 N   0  0  0  0  0  0  0  0  0  0  0  0
    0.4540    1.1178    0.3392 N   0  0  0  0  0  0  0  0  0  0  0  0
    1.4563    2.4910    2.0472 N   0  0  0  0  0  0  0  0  0  0  0  0
   -5.4979    1.6718   -1.0107 N   0  0  0  0  0  0  0  0  0  0  0  0
    4.3665    1.0727   -1.4816 C   0  0  0  0  0  0  0  0  0  0  0  0
    2.8956    0.9992   -0.9981 C   0  0  0  0  0  0  0  0  0  0  0  0
    4.4822    0.2226   -2.7596 C   0  0  0  0  0  0  0  0  0  0  0  0
    4.7458    2.5315   -1.7897 C   0  0  0  0  0  0  0  0  0  0  0  0
   -1.8081    0.4886    0.4053 C   0  0  0  0  0  0  0  0  0  0  0  0
    5.3040    0.4796   -0.4180 C   0  0  0  0  0  0  0  0  0  0  0  0
   -1.9692   -0.8470    0.0999 C   0  0  0  0  0  0  0  0  0  0  0  0
   -3.7653    0.0894   -0.5258 C   0  0  0  0  0  0  0  0  0  0  0  0
   -0.7124    1.1962    1.0128 C   0  0  0  0  0  0  0  0  0  0  0  0
    1.4821    1.7788    0.9045 C   0  0  0  0  0  0  0  0  0  0  0  0
   -1.0044   -1.8771    0.3446 C   0  0  0  0  0  0  0  0  0  0  0  0
   -5.0692    0.4366   -1.0388 C   0  0  0  0  0  0  0  0  0  0  0  0
   -3.4259    2.3830    0.0265 C   0  0  0  0  0  0  0  0  0  0  0  0
   -0.8706    1.8927    2.1935 C   0  0  0  0  0  0  0  0  0  0  0  0
   -4.6526    2.6323   -0.4699 C   0  0  0  0  0  0  0  0  0  0  0  0
    0.2592    2.5271    2.6686 C   0  0  0  0  0  0  0  0  0  0  0  0
   -0.4909   -2.6241   -0.7157 C   0  0  0  0  0  0  0  0  0  0  0  0
   -0.5786   -2.1322    1.6482 C   0  0  0  0  0  0  0  0  0  0  0  0
   -5.9363   -0.6479   -1.6113 C   0  0  0  0  0  0  0  0  0  0  0  0
    0.4484   -3.6263   -0.4723 C   0  0  0  0  0  0  0  0  0  0  0  0
    0.3605   -3.1345    1.8917 C   0  0  0  0  0  0  0  0  0  0  0  0
    0.8740   -3.8815    0.8314 C   0  0  0  0  0  0  0  0  0  0  0  0
    2.2353    1.4121   -1.7720 H   0  0  0  0  0  0  0  0  0  0  0  0
    2.6059   -0.0498   -0.8524 H   0  0  0  0  0  0  0  0  0  0  0  0
    4.1743   -0.8151   -2.5880 H   0  0  0  0  0  0  0  0  0  0  0  0
    5.5175    0.1975   -3.1188 H   0  0  0  0  0  0  0  0  0  0  0  0
    3.8572    0.6277   -3.5633 H   0  0  0  0  0  0  0  0  0  0  0  0
    4.7399    3.1582   -0.8916 H   0  0  0  0  0  0  0  0  0  0  0  0
    5.7567    2.5893   -2.2103 H   0  0  0  0  0  0  0  0  0  0  0  0
    4.0573    2.9755   -2.5172 H   0  0  0  0  0  0  0  0  0  0  0  0
    3.4729    2.2004    0.6764 H   0  0  0  0  0  0  0  0  0  0  0  0
   -2.7921    3.1597    0.4337 H   0  0  0  0  0  0  0  0  0  0  0  0
   -1.8094    1.9432    2.7309 H   0  0  0  0  0  0  0  0  0  0  0  0
   -5.0423    3.6447   -0.4671 H   0  0  0  0  0  0  0  0  0  0  0  0
    0.2326    3.0976    3.5908 H   0  0  0  0  0  0  0  0  0  0  0  0
   -0.9718   -1.5687    2.4911 H   0  0  0  0  0  0  0  0  0  0  0  0
   -6.1340   -1.4033   -0.8453 H   0  0  0  0  0  0  0  0  0  0  0  0
   -5.4254   -1.1198   -2.4555 H   0  0  0  0  0  0  0  0  0  0  0  0
   -6.8880   -0.2350   -1.9574 H   0  0  0  0  0  0  0  0  0  0  0  0
    5.6110   -1.1457    0.6132 H   0  0  0  0  0  0  0  0  0  0  0  0
    0.8485   -4.2076   -1.2975 H   0  0  0  0  0  0  0  0  0  0  0  0
    0.6910   -3.3346    2.9066 H   0  0  0  0  0  0  0  0  0  0  0  0
  1 27  1  0  0  0  0
  2 32  1  0  0  0  0
  3 16  1  0  0  0  0
  3 50  1  0  0  0  0
  4 16  2  0  0  0  0
  5 12  1  0  0  0  0
  5 20  1  0  0  0  0
  5 41  1  0  0  0  0
  6 15  1  0  0  0  0
  6 18  1  0  0  0  0
  6 23  1  0  0  0  0
  7 17  1  0  0  0  0
  7 18  2  0  0  0  0
  8 19  2  0  0  0  0
  8 20  1  0  0  0  0
  9 20  2  0  0  0  0
  9 26  1  0  0  0  0
 10 22  2  0  0  0  0
 10 25  1  0  0  0  0
 11 12  1  0  0  0  0
 11 13  1  0  0  0  0
 11 14  1  0  0  0  0
 11 16  1  0  0  0  0
 12 33  1  0  0  0  0
 12 34  1  0  0  0  0
 13 35  1  0  0  0  0
 13 36  1  0  0  0  0
 13 37  1  0  0  0  0
 14 38  1  0  0  0  0
 14 39  1  0  0  0  0
 14 40  1  0  0  0  0
 15 17  2  0  0  0  0
 15 19  1  0  0  0  0
 17 21  1  0  0  0  0
 18 22  1  0  0  0  0
 19 24  1  0  0  0  0
 21 27  2  0  0  0  0
 21 28  1  0  0  0  0
 22 29  1  0  0  0  0
 23 25  2  0  0  0  0
 23 42  1  0  0  0  0
 24 26  2  0  0  0  0
 24 43  1  0  0  0  0
 25 44  1  0  0  0  0
 26 45  1  0  0  0  0
 27 30  1  0  0  0  0
 28 31  2  0  0  0  0
 28 46  1  0  0  0  0
 29 47  1  0  0  0  0
 29 48  1  0  0  0  0
 29 49  1  0  0  0  0
 30 32  2  0  0  0  0
 30 51  1  0  0  0  0
 31 32  1  0  0  0  0
 31 52  1  0  0  0  0
M  END
> <PUBCHEM_COMPOUND_CID>
49830616

> <PUBCHEM_CONFORMER_RMSD>
1

> <PUBCHEM_CONFORMER_DIVERSEORDER>
1
97
115
12
22
56
47
76
140
120
48
99
40
107
116
39
75
127
145
128
79
68
81
131
37
118
14
155
33
122
86
80
41
101
67
26
110
44
94
130
83
34
139
73
64
88
112
77
117
35
3
61
125
25
51
65
16
129
32
103
91
85
154
147
114
43
45
152
19
124
121
104
126
23
63
119
144
113
74
141
72
102
15
95
66
98
89
153
84
17
150
105
58
38
100
143
13
6
2
90
138
5
54
36
135
9
146
55
8
11
109
136
142
30
27
62
87
7
96
134
78
4
53
106
137
93
148
59
29
46
21
133
10
60
132
28
69
149
24
123
82
50
70
31
71
151
92
42
18
52
111
49
20
57
108

> <PUBCHEM_MMFF94_PARTIAL_CHARGES>
39
1 -0.19
10 -0.62
11 0.06
12 0.37
15 -0.2
16 0.66
17 0.17
18 0.1
19 0.36
2 -0.19
20 0.72
21 0.05
22 0.47
23 -0.18
24 -0.15
25 0.02
26 0.16
27 0.19
28 -0.15
29 0.06
3 -0.65
30 -0.15
31 -0.15
32 0.19
4 -0.57
41 0.4
42 0.15
43 0.15
44 0.15
45 0.15
46 0.15
5 -0.87
50 0.5
51 0.15
52 0.15
6 0.33
7 -0.57
8 -0.62
9 -0.62

> <PUBCHEM_EFFECTIVE_ROTOR_COUNT>
6

> <PUBCHEM_PHARMACOPHORE_FEATURES>
13
1 10 acceptor
1 3 acceptor
1 4 acceptor
1 5 donor
1 8 acceptor
3 11 13 14 hydrophobe
3 3 4 16 anion
3 6 7 18 cation
4 5 8 9 20 cation
5 6 7 15 17 18 rings
6 21 27 28 30 31 32 rings
6 6 10 18 22 23 25 rings
6 8 9 19 20 24 26 rings

> <PUBCHEM_HEAVY_ATOM_COUNT>
32

> <PUBCHEM_ATOM_DEF_STEREO_COUNT>
0

> <PUBCHEM_ATOM_UDEF_STEREO_COUNT>
0

> <PUBCHEM_BOND_DEF_STEREO_COUNT>
0

> <PUBCHEM_BOND_UDEF_STEREO_COUNT>
0

> <PUBCHEM_ISOTOPIC_ATOM_COUNT>
0

> <PUBCHEM_COMPONENT_COUNT>
1

> <PUBCHEM_CACTVS_TAUTO_COUNT>
3

> <PUBCHEM_CONFORMER_ID>
02F85AD800000001

> <PUBCHEM_MMFF94_ENERGY>
91.1353

> <PUBCHEM_FEATURE_SELFOVERLAP>
66.151

> <PUBCHEM_SHAPE_FINGERPRINT>
10190108 129 18193561301922337115
10675989 125 18339929208264765000
107951 10 17531248404286502410
11578080 2 17534656766490439977
11763715 3 12750420131760818168
12156800 1 14328001652787193582
12553582 1 17557735678660778224
12788726 201 18059588987883489192
133893 2 17903093134978911584
140371 6 17701534245426253056
14068700 675 17979912714700014114
14114207 22 18042960983332016742
14713325 29 18041293157283412817
14725015 67 17981038936402810890
14931854 50 18343587326288668916
15463212 79 17969500592539535952
15775530 1 17553197014345650721
20465049 17 18201151157188283063
20600515 1 9799147274387774979
20642791 178 18122335780002443857
21133410 230 17825704224055014387
21781051 124 18190176966091806083
22393880 68 18130210624072830421
23366157 5 17971178249994413235
23559900 14 17987511683945767200
3298306 158 18411697681750886759
4015057 19 17417258757218263024
44802255 64 17895775000960397598
474144 1 18266452105527519922
5265222 85 18265055902386776988
6669772 16 17986651861230077744
9981440 41 18260838106683441139

> <PUBCHEM_SHAPE_MULTIPOLES>
602.37
11.27
4.77
2.21
3.22
5.65
-0.34
-7.76
8.71
0.92
-1.87
1.05
-0.65
-0.89

> <PUBCHEM_SHAPE_SELFOVERLAP>
1326.353

> <PUBCHEM_SHAPE_VOLUME>
326.5

> <PUBCHEM_COORDINATE_TYPE>
2
5
10

$$$$
