24905209
  -OEChem-10052115153D

 32 35  0     0  0  0  0  0  0999 V2000
   -2.5078    1.7194   -0.1130 N   0  0  0  0  0  0  0  0  0  0  0  0
   -1.1811    1.8979    0.0284 N   0  0  0  0  0  0  0  0  0  0  0  0
    3.8974   -0.0798   -1.5728 N   0  0  0  0  0  0  0  0  0  0  0  0
   -4.1305   -0.0726   -0.2455 N   0  0  0  0  0  0  0  0  0  0  0  0
   -3.0714   -2.2632   -0.0729 N   0  0  0  0  0  0  0  0  0  0  0  0
   -0.7157   -2.5395    0.1945 N   0  0  0  0  0  0  0  0  0  0  0  0
   -0.7063    0.6503    0.1125 C   0  0  0  0  0  0  0  0  0  0  0  0
    0.7054    0.4326    0.2731 C   0  0  0  0  0  0  0  0  0  0  0  0
   -1.7188   -0.3234    0.0260 C   0  0  0  0  0  0  0  0  0  0  0  0
   -2.8837    0.4090   -0.1208 C   0  0  0  0  0  0  0  0  0  0  0  0
    2.8803    0.0864   -0.6601 C   0  0  0  0  0  0  0  0  0  0  0  0
    3.4526    0.0086    0.6116 C   0  0  0  0  0  0  0  0  0  0  0  0
    1.5115    0.2974   -0.8606 C   0  0  0  0  0  0  0  0  0  0  0  0
    1.2487    0.3590    1.5542 C   0  0  0  0  0  0  0  0  0  0  0  0
    2.6199    0.1472    1.7396 C   0  0  0  0  0  0  0  0  0  0  0  0
   -1.8413   -1.7087    0.0481 C   0  0  0  0  0  0  0  0  0  0  0  0
    4.8471   -0.2086    0.4293 C   0  0  0  0  0  0  0  0  0  0  0  0
   -3.3715    2.8695   -0.2373 C   0  0  0  0  0  0  0  0  0  0  0  0
    5.0897   -0.2589   -0.9240 C   0  0  0  0  0  0  0  0  0  0  0  0
   -4.1245   -1.4227   -0.2104 C   0  0  0  0  0  0  0  0  0  0  0  0
    1.1008    0.3518   -1.8646 H   0  0  0  0  0  0  0  0  0  0  0  0
    0.6151    0.4643    2.4327 H   0  0  0  0  0  0  0  0  0  0  0  0
    3.0303    0.0918    2.7438 H   0  0  0  0  0  0  0  0  0  0  0  0
    3.7800   -0.0706   -2.5766 H   0  0  0  0  0  0  0  0  0  0  0  0
    5.5935   -0.3173    1.2042 H   0  0  0  0  0  0  0  0  0  0  0  0
   -3.2618    3.4788    0.6635 H   0  0  0  0  0  0  0  0  0  0  0  0
   -3.0644    3.4342   -1.1212 H   0  0  0  0  0  0  0  0  0  0  0  0
   -4.4100    2.5491   -0.3441 H   0  0  0  0  0  0  0  0  0  0  0  0
    6.0035   -0.4057   -1.4822 H   0  0  0  0  0  0  0  0  0  0  0  0
   -5.0943   -1.8996   -0.3047 H   0  0  0  0  0  0  0  0  0  0  0  0
    0.2131   -2.1553    0.2863 H   0  0  0  0  0  0  0  0  0  0  0  0
   -0.8495   -3.5417    0.2053 H   0  0  0  0  0  0  0  0  0  0  0  0
  1  2  1  0  0  0  0
  1 10  1  0  0  0  0
  1 18  1  0  0  0  0
  2  7  2  0  0  0  0
  3 11  1  0  0  0  0
  3 19  1  0  0  0  0
  3 24  1  0  0  0  0
  4 10  2  0  0  0  0
  4 20  1  0  0  0  0
  5 16  1  0  0  0  0
  5 20  2  0  0  0  0
  6 16  1  0  0  0  0
  6 31  1  0  0  0  0
  6 32  1  0  0  0  0
  7  8  1  0  0  0  0
  7  9  1  0  0  0  0
  8 13  2  0  0  0  0
  8 14  1  0  0  0  0
  9 10  1  0  0  0  0
  9 16  2  0  0  0  0
 11 12  2  0  0  0  0
 11 13  1  0  0  0  0
 12 15  1  0  0  0  0
 12 17  1  0  0  0  0
 13 21  1  0  0  0  0
 14 15  2  0  0  0  0
 14 22  1  0  0  0  0
 15 23  1  0  0  0  0
 17 19  2  0  0  0  0
 17 25  1  0  0  0  0
 18 26  1  0  0  0  0
 18 27  1  0  0  0  0
 18 28  1  0  0  0  0
 19 29  1  0  0  0  0
 20 30  1  0  0  0  0
M  END
> <PUBCHEM_COMPOUND_CID>
24905209

> <PUBCHEM_CONFORMER_RMSD>
0.6

> <PUBCHEM_CONFORMER_DIVERSEORDER>
1
2

> <PUBCHEM_MMFF94_PARTIAL_CHARGES>
27
1 0.31
10 0.11
11 -0.15
13 -0.15
14 -0.15
15 -0.15
16 0.41
17 -0.15
18 0.26
19 -0.3
2 -0.71
20 0.47
21 0.15
22 0.15
23 0.15
24 0.27
25 0.15
29 0.15
3 0.03
30 0.15
31 0.4
32 0.4
4 -0.57
5 -0.62
6 -0.9
7 0.23
8 0.05

> <PUBCHEM_EFFECTIVE_ROTOR_COUNT>
1

> <PUBCHEM_PHARMACOPHORE_FEATURES>
11
1 2 acceptor
1 3 cation
1 3 donor
1 6 cation
1 6 donor
3 1 4 10 cation
3 4 5 20 cation
5 1 2 7 9 10 rings
5 3 11 12 17 19 rings
6 4 5 9 10 16 20 rings
6 8 11 12 13 14 15 rings

> <PUBCHEM_HEAVY_ATOM_COUNT>
20

> <PUBCHEM_ATOM_DEF_STEREO_COUNT>
0

> <PUBCHEM_ATOM_UDEF_STEREO_COUNT>
0

> <PUBCHEM_BOND_DEF_STEREO_COUNT>
0

> <PUBCHEM_BOND_UDEF_STEREO_COUNT>
0

> <PUBCHEM_ISOTOPIC_ATOM_COUNT>
0

> <PUBCHEM_COMPONENT_COUNT>
1

> <PUBCHEM_CACTVS_TAUTO_COUNT>
9

> <PUBCHEM_CONFORMER_ID>
017C05F900000001

> <PUBCHEM_MMFF94_ENERGY>
45.2129

> <PUBCHEM_FEATURE_SELFOVERLAP>
56.193

> <PUBCHEM_SHAPE_FINGERPRINT>
10616163 171 18409731767977538254
11543360 7 18336838567173033428
11582403 64 16117039922727818872
11796584 16 18198908007586899366
12186901 62 18411700963285132157
12236239 1 17603584118899637280
12390115 104 18128263277363981265
12500047 106 18340482266622971932
12553582 1 18263075664754571483
12714826 92 18272373091648993083
13140716 1 18266179625066479993
13862211 1 18338513157905840031
14386348 63 17775569753771129590
15042514 8 18337396071124267251
15653759 3 18060136552815396744
15961568 22 18191015914881295108
16752209 62 18335972125887055763
16945 1 18410003347918765529
17804303 29 18342174509618059235
17870717 6 18271257057345567118
18186145 218 17988922236661403593
19049666 15 17846220986258042336
19141452 34 17631735001633186743
19862831 5 17458622354252223166
200 152 16660358186313398620
20510252 161 18343579651134826441
20645476 183 17530962522937128579
20645477 70 16630527306860947764
20871999 31 18410859858433376196
21033648 29 17274808143625461280
21065201 7 18412821365876390186
21634736 98 18042689592442248620
22094290 60 18410294722209608968
2297311 6 18341622532984306359
23175994 123 17203895162440141664
23366157 5 17680987388375479659
23402539 116 18410568483393433837
23557571 272 18343016718604107672
23559900 14 18343017813757158952
23598291 2 17531798035735787832
34797466 226 18058464239239164556
4214541 1 18410856534255328620
474 4 16951699188857153716
559249 180 18263077717822908738
573450 72 18261103046283384224
59755656 215 18413102854091950479
59755656 520 17844815785440889545
602551 16 18412541029129465826
6049 1 17988919011257177848
67856867 119 18115870887939277068
77492 1 17603579716632096536
9709674 26 18127686243457902410

> <PUBCHEM_SHAPE_MULTIPOLES>
381.7
9.32
2.11
1.14
5.33
0.11
0.2
-0.73
-1.77
-3.66
-0.08
1.43
0.07
0.21

> <PUBCHEM_SHAPE_SELFOVERLAP>
870.37

> <PUBCHEM_SHAPE_VOLUME>
197

> <PUBCHEM_COORDINATE_TYPE>
2
5
10

$$$$
