10391182
  -OEChem-10052115183D

 63 67  0     1  0  0  0  0  0999 V2000
    3.7555    0.6658   -0.2297 S   0  0  0  0  0  0  0  0  0  0  0  0
    4.7384    0.8465   -1.2887 O   0  0  0  0  0  0  0  0  0  0  0  0
    4.0429    1.2089    1.0904 O   0  0  0  0  0  0  0  0  0  0  0  0
    3.3807   -1.0238   -0.0941 N   0  0  2  0  0  0  0  0  0  0  0  0
   -2.1173    3.4597   -0.0126 N   0  0  0  0  0  0  0  0  0  0  0  0
    4.8985   -3.3714   -2.5849 N   0  0  0  0  0  0  0  0  0  0  0  0
    1.6737   -2.0882    3.0225 N   0  0  0  0  0  0  0  0  0  0  0  0
   -5.8500   -1.6386   -1.4353 N   0  0  0  0  0  0  0  0  0  0  0  0
    2.2469    1.3799   -0.7800 C   0  0  0  0  0  0  0  0  0  0  0  0
    1.2620    1.8528    0.1025 C   0  0  0  0  0  0  0  0  0  0  0  0
    0.0742    2.4150   -0.4227 C   0  0  0  0  0  0  0  0  0  0  0  0
    3.4595   -1.8406   -1.3338 C   0  0  0  0  0  0  0  0  0  0  0  0
    2.3170   -1.3644    0.8302 C   0  0  0  0  0  0  0  0  0  0  0  0
   -0.9103    2.8883    0.4599 C   0  0  0  0  0  0  0  0  0  0  0  0
    2.0630    1.4602   -2.1606 C   0  0  0  0  0  0  0  0  0  0  0  0
    1.4303    1.7805    1.4950 C   0  0  0  0  0  0  0  0  0  0  0  0
   -0.0938    2.4878   -1.8152 C   0  0  0  0  0  0  0  0  0  0  0  0
    4.7966   -2.5660   -1.3744 C   0  0  0  0  0  0  0  0  0  0  0  0
    0.8951    2.0131   -2.6773 C   0  0  0  0  0  0  0  0  0  0  0  0
    1.0009   -1.2963    0.4275 C   0  0  0  0  0  0  0  0  0  0  0  0
   -0.7265    2.8083    1.8406 C   0  0  0  0  0  0  0  0  0  0  0  0
    0.4416    2.2555    2.3571 C   0  0  0  0  0  0  0  0  0  0  0  0
    0.0028   -1.6293    1.3364 C   0  0  0  0  0  0  0  0  0  0  0  0
    2.6162   -1.7571    2.1115 C   0  0  0  0  0  0  0  0  0  0  0  0
   -1.3918   -1.5735    0.9652 C   0  0  0  0  0  0  0  0  0  0  0  0
    0.3882   -2.0155    2.6101 C   0  0  0  0  0  0  0  0  0  0  0  0
   -2.2007    4.8819   -0.2615 C   0  0  0  0  0  0  0  0  0  0  0  0
   -3.2698    2.6224   -0.2625 C   0  0  0  0  0  0  0  0  0  0  0  0
   -1.7732   -1.8051   -0.3591 C   0  0  0  0  0  0  0  0  0  0  0  0
   -3.1254   -1.7536   -0.7349 C   0  0  0  0  0  0  0  0  0  0  0  0
   -2.3593   -1.2884    1.9280 C   0  0  0  0  0  0  0  0  0  0  0  0
   -4.0990   -1.4647    0.2435 C   0  0  0  0  0  0  0  0  0  0  0  0
   -3.7069   -1.2337    1.5724 C   0  0  0  0  0  0  0  0  0  0  0  0
   -3.5367   -1.9812   -2.0534 C   0  0  0  0  0  0  0  0  0  0  0  0
   -5.4328   -1.4222   -0.1675 C   0  0  0  0  0  0  0  0  0  0  0  0
   -4.8905   -1.9127   -2.3448 C   0  0  0  0  0  0  0  0  0  0  0  0
    3.3334   -1.2118   -2.2214 H   0  0  0  0  0  0  0  0  0  0  0  0
    2.6456   -2.5759   -1.3686 H   0  0  0  0  0  0  0  0  0  0  0  0
    2.8088    1.0968   -2.8616 H   0  0  0  0  0  0  0  0  0  0  0  0
    2.2371    1.3062    2.0250 H   0  0  0  0  0  0  0  0  0  0  0  0
   -0.9900    2.9089   -2.2636 H   0  0  0  0  0  0  0  0  0  0  0  0
    4.9044   -3.2121   -0.4956 H   0  0  0  0  0  0  0  0  0  0  0  0
    5.6234   -1.8482   -1.3514 H   0  0  0  0  0  0  0  0  0  0  0  0
    0.7518    2.0736   -3.7522 H   0  0  0  0  0  0  0  0  0  0  0  0
    0.7656   -0.9915   -0.5871 H   0  0  0  0  0  0  0  0  0  0  0  0
   -1.4907    3.1694    2.5244 H   0  0  0  0  0  0  0  0  0  0  0  0
    0.5731    2.1763    3.4325 H   0  0  0  0  0  0  0  0  0  0  0  0
    3.6392   -1.8231    2.4666 H   0  0  0  0  0  0  0  0  0  0  0  0
   -0.3197   -2.3188    3.3750 H   0  0  0  0  0  0  0  0  0  0  0  0
   -1.6144    5.1552   -1.1448 H   0  0  0  0  0  0  0  0  0  0  0  0
   -1.8195    5.4502    0.5941 H   0  0  0  0  0  0  0  0  0  0  0  0
   -3.2330    5.2061   -0.4310 H   0  0  0  0  0  0  0  0  0  0  0  0
   -3.7119    2.2925    0.6835 H   0  0  0  0  0  0  0  0  0  0  0  0
   -2.9945    1.7337   -0.8407 H   0  0  0  0  0  0  0  0  0  0  0  0
   -4.0436    3.1508   -0.8292 H   0  0  0  0  0  0  0  0  0  0  0  0
   -1.0408   -2.0589   -1.1230 H   0  0  0  0  0  0  0  0  0  0  0  0
    4.1545   -4.0680   -2.5982 H   0  0  0  0  0  0  0  0  0  0  0  0
    5.7753   -3.8906   -2.5727 H   0  0  0  0  0  0  0  0  0  0  0  0
   -2.1056   -1.0735    2.9627 H   0  0  0  0  0  0  0  0  0  0  0  0
   -4.4469   -1.0030    2.3354 H   0  0  0  0  0  0  0  0  0  0  0  0
   -2.8234   -2.2066   -2.8403 H   0  0  0  0  0  0  0  0  0  0  0  0
   -6.2322   -1.2047    0.5355 H   0  0  0  0  0  0  0  0  0  0  0  0
   -5.2481   -2.0826   -3.3551 H   0  0  0  0  0  0  0  0  0  0  0  0
  1  2  2  0  0  0  0
  1  3  2  0  0  0  0
  1  4  1  0  0  0  0
  1  9  1  0  0  0  0
  4 12  1  0  0  0  0
  4 13  1  0  0  0  0
  5 14  1  0  0  0  0
  5 27  1  0  0  0  0
  5 28  1  0  0  0  0
  6 18  1  0  0  0  0
  6 57  1  0  0  0  0
  6 58  1  0  0  0  0
  7 24  1  0  0  0  0
  7 26  2  0  0  0  0
  8 35  2  0  0  0  0
  8 36  1  0  0  0  0
  9 10  1  0  0  0  0
  9 15  2  0  0  0  0
 10 11  2  0  0  0  0
 10 16  1  0  0  0  0
 11 14  1  0  0  0  0
 11 17  1  0  0  0  0
 12 18  1  0  0  0  0
 12 37  1  0  0  0  0
 12 38  1  0  0  0  0
 13 20  1  0  0  0  0
 13 24  2  0  0  0  0
 14 21  2  0  0  0  0
 15 19  1  0  0  0  0
 15 39  1  0  0  0  0
 16 22  2  0  0  0  0
 16 40  1  0  0  0  0
 17 19  2  0  0  0  0
 17 41  1  0  0  0  0
 18 42  1  0  0  0  0
 18 43  1  0  0  0  0
 19 44  1  0  0  0  0
 20 23  2  0  0  0  0
 20 45  1  0  0  0  0
 21 22  1  0  0  0  0
 21 46  1  0  0  0  0
 22 47  1  0  0  0  0
 23 25  1  0  0  0  0
 23 26  1  0  0  0  0
 24 48  1  0  0  0  0
 25 29  2  0  0  0  0
 25 31  1  0  0  0  0
 26 49  1  0  0  0  0
 27 50  1  0  0  0  0
 27 51  1  0  0  0  0
 27 52  1  0  0  0  0
 28 53  1  0  0  0  0
 28 54  1  0  0  0  0
 28 55  1  0  0  0  0
 29 30  1  0  0  0  0
 29 56  1  0  0  0  0
 30 32  2  0  0  0  0
 30 34  1  0  0  0  0
 31 33  2  0  0  0  0
 31 59  1  0  0  0  0
 32 33  1  0  0  0  0
 32 35  1  0  0  0  0
 33 60  1  0  0  0  0
 34 36  2  0  0  0  0
 34 61  1  0  0  0  0
 35 62  1  0  0  0  0
 36 63  1  0  0  0  0
M  END
> <PUBCHEM_COMPOUND_CID>
10391182

> <PUBCHEM_CONFORMER_RMSD>
1

> <PUBCHEM_CONFORMER_DIVERSEORDER>
1
93
111
123
66
91
68
46
15
82
48
95
112
110
44
33
121
20
2
36
124
122
76
78
116
65
80
118
72
92
71
25
129
35
7
114
54
100
18
57
56
58
42
133
73
47
107
105
40
8
70
125
127
99
75
103
119
43
134
126
3
113
104
85
96
74
101
84
128
63
87
17
28
117
106
30
90
10
61
45
88
67
4
39
37
31
21
16
34
59
102
5
69
120
83
29
26
132
86
89
130
81
50
19
62
53
52
12
27
115
41
23
109
79
131
55
94
24
98
22
32
51
13
6
49
38
9
64
108
97
14
11
77
60

> <PUBCHEM_MMFF94_PARTIAL_CHARGES>
47
1 1.45
12 0.36
13 0.2
14 0.1
15 -0.15
16 -0.15
17 -0.15
18 0.27
19 -0.15
2 -0.65
20 -0.15
21 -0.15
22 -0.15
24 0.16
26 0.16
27 0.37
28 0.37
29 -0.15
3 -0.65
31 -0.15
33 -0.15
34 -0.15
35 0.16
36 0.16
39 0.15
4 -0.69
40 0.15
41 0.15
44 0.15
45 0.15
46 0.15
47 0.15
48 0.15
49 0.15
5 -0.84
56 0.15
57 0.36
58 0.36
59 0.15
6 -0.99
60 0.15
61 0.15
62 0.15
63 0.15
7 -0.62
8 -0.62
9 -0.01

> <PUBCHEM_EFFECTIVE_ROTOR_COUNT>
7

> <PUBCHEM_PHARMACOPHORE_FEATURES>
12
1 2 acceptor
1 3 acceptor
1 5 cation
1 6 cation
1 6 donor
1 7 acceptor
1 8 acceptor
6 10 11 14 16 21 22 rings
6 25 29 30 31 32 33 rings
6 7 13 20 23 24 26 rings
6 8 30 32 34 35 36 rings
6 9 10 11 15 17 19 rings

> <PUBCHEM_HEAVY_ATOM_COUNT>
36

> <PUBCHEM_ATOM_DEF_STEREO_COUNT>
0

> <PUBCHEM_ATOM_UDEF_STEREO_COUNT>
0

> <PUBCHEM_BOND_DEF_STEREO_COUNT>
0

> <PUBCHEM_BOND_UDEF_STEREO_COUNT>
0

> <PUBCHEM_ISOTOPIC_ATOM_COUNT>
0

> <PUBCHEM_COMPONENT_COUNT>
1

> <PUBCHEM_CACTVS_TAUTO_COUNT>
1

> <PUBCHEM_CONFORMER_ID>
009E8E8E00000001

> <PUBCHEM_MMFF94_ENERGY>
143.1402

> <PUBCHEM_FEATURE_SELFOVERLAP>
60.97

> <PUBCHEM_SHAPE_FINGERPRINT>
10165383 225 16813517072724398481
10675989 125 18114740568099733957
11513181 2 18341331076509576326
11578080 2 17560506314639414354
12156800 1 18124016941185711715
12422481 6 17908183964352823569
12788726 201 18409442583539306033
140371 6 17971498405515241324
15210252 30 17677322943626528005
15297060 5 17698166141030876457
17909252 39 18273502286276092078
238 59 17042902750214406218
244849 19 16914509088431653426
35225 105 17835233450587017039
354706 35 16818245028875149421
463206 1 18192145126022338579
469060 322 16371309756304495871
5080951 261 17977940195261722446
513532 50 18125700521448073267
57527573 199 17760072317492635680
70251023 43 18413671314008442207

> <PUBCHEM_SHAPE_MULTIPOLES>
708.07
9.29
5.01
2.88
4.15
4.38
-0.1
-8.11
5.72
0.97
0.51
-0.82
-1.16
-0.18

> <PUBCHEM_SHAPE_SELFOVERLAP>
1554.342

> <PUBCHEM_SHAPE_VOLUME>
384.7

> <PUBCHEM_COORDINATE_TYPE>
2
5
10

$$$$
