49830586
  -OEChem-10062121523D

 27 29  0     0  0  0  0  0  0999 V2000
    3.9667   -0.2350   -0.0476 N   0  0  0  0  0  0  0  0  0  0  0  0
    3.6166    1.0578    0.0983 N   0  0  0  0  0  0  0  0  0  0  0  0
   -4.0699    0.7585   -0.5154 N   0  0  0  0  0  0  0  0  0  0  0  0
    1.8098   -0.3119   -0.0414 C   0  0  0  0  0  0  0  0  0  0  0  0
    2.2718    1.0475    0.1063 C   0  0  0  0  0  0  0  0  0  0  0  0
    2.9188   -1.1039   -0.1370 C   0  0  0  0  0  0  0  0  0  0  0  0
   -0.4035    0.3259    0.0444 C   0  0  0  0  0  0  0  0  0  0  0  0
    0.4933   -0.7533   -0.0815 C   0  0  0  0  0  0  0  0  0  0  0  0
    1.3528    2.1057    0.2299 C   0  0  0  0  0  0  0  0  0  0  0  0
    0.0040    1.6891    0.1928 C   0  0  0  0  0  0  0  0  0  0  0  0
   -1.8256    0.0382    0.0221 C   0  0  0  0  0  0  0  0  0  0  0  0
    3.1183   -2.5537   -0.2995 C   0  0  0  0  0  0  0  0  0  0  0  0
   -2.3191   -1.1746    0.4902 C   0  0  0  0  0  0  0  0  0  0  0  0
   -2.7345    0.9629   -0.4663 C   0  0  0  0  0  0  0  0  0  0  0  0
   -3.6870   -1.4218    0.4561 C   0  0  0  0  0  0  0  0  0  0  0  0
   -4.5125   -0.4317   -0.0516 C   0  0  0  0  0  0  0  0  0  0  0  0
    0.2153   -1.7885   -0.2202 H   0  0  0  0  0  0  0  0  0  0  0  0
    1.6403    3.1418    0.3513 H   0  0  0  0  0  0  0  0  0  0  0  0
   -0.7330    2.4811    0.3230 H   0  0  0  0  0  0  0  0  0  0  0  0
    4.9544   -0.4544   -0.0787 H   0  0  0  0  0  0  0  0  0  0  0  0
    2.6514   -3.1008    0.5260 H   0  0  0  0  0  0  0  0  0  0  0  0
    2.6701   -2.9002   -1.2363 H   0  0  0  0  0  0  0  0  0  0  0  0
    4.1802   -2.8201   -0.3181 H   0  0  0  0  0  0  0  0  0  0  0  0
   -1.6794   -1.9423    0.9161 H   0  0  0  0  0  0  0  0  0  0  0  0
   -2.4406    1.9202   -0.8849 H   0  0  0  0  0  0  0  0  0  0  0  0
   -4.0952   -2.3570    0.8219 H   0  0  0  0  0  0  0  0  0  0  0  0
   -5.5871   -0.5746   -0.0983 H   0  0  0  0  0  0  0  0  0  0  0  0
  1  2  1  0  0  0  0
  1  6  1  0  0  0  0
  1 20  1  0  0  0  0
  2  5  2  0  0  0  0
  3 14  1  0  0  0  0
  3 16  2  0  0  0  0
  4  5  1  0  0  0  0
  4  6  2  0  0  0  0
  4  8  1  0  0  0  0
  5  9  1  0  0  0  0
  6 12  1  0  0  0  0
  7  8  2  0  0  0  0
  7 10  1  0  0  0  0
  7 11  1  0  0  0  0
  8 17  1  0  0  0  0
  9 10  2  0  0  0  0
  9 18  1  0  0  0  0
 10 19  1  0  0  0  0
 11 13  1  0  0  0  0
 11 14  2  0  0  0  0
 12 21  1  0  0  0  0
 12 22  1  0  0  0  0
 12 23  1  0  0  0  0
 13 15  2  0  0  0  0
 13 24  1  0  0  0  0
 14 25  1  0  0  0  0
 15 16  1  0  0  0  0
 15 26  1  0  0  0  0
 16 27  1  0  0  0  0
M  END
> <PUBCHEM_COMPOUND_CID>
49830586

> <PUBCHEM_CONFORMER_RMSD>
0.6

> <PUBCHEM_CONFORMER_DIVERSEORDER>
1
2

> <PUBCHEM_MMFF94_PARTIAL_CHARGES>
21
1 0.3
10 -0.15
12 0.18
13 -0.15
14 0.16
15 -0.15
16 0.16
17 0.15
18 0.15
19 0.15
2 -0.71
20 0.27
24 0.15
25 0.15
26 0.15
27 0.15
3 -0.62
5 0.29
6 -0.33
8 -0.15
9 -0.15

> <PUBCHEM_EFFECTIVE_ROTOR_COUNT>
1

> <PUBCHEM_PHARMACOPHORE_FEATURES>
6
1 1 donor
1 2 acceptor
1 3 acceptor
5 1 2 4 5 6 rings
6 3 11 13 14 15 16 rings
6 4 5 7 8 9 10 rings

> <PUBCHEM_HEAVY_ATOM_COUNT>
16

> <PUBCHEM_ATOM_DEF_STEREO_COUNT>
0

> <PUBCHEM_ATOM_UDEF_STEREO_COUNT>
0

> <PUBCHEM_BOND_DEF_STEREO_COUNT>
0

> <PUBCHEM_BOND_UDEF_STEREO_COUNT>
0

> <PUBCHEM_ISOTOPIC_ATOM_COUNT>
0

> <PUBCHEM_COMPONENT_COUNT>
1

> <PUBCHEM_CACTVS_TAUTO_COUNT>
2

> <PUBCHEM_CONFORMER_ID>
02F85ABA00000001

> <PUBCHEM_MMFF94_ENERGY>
52.0451

> <PUBCHEM_FEATURE_SELFOVERLAP>
30.578

> <PUBCHEM_SHAPE_FINGERPRINT>
10608611 8 18335978757359031541
10922523 26 18334292084899156037
10967382 1 18411701006287591498
11471102 20 18412260661958879332
11543360 7 16588320404954397486
11615757 297 17917717941219557707
116883 192 18054794979251430132
12032990 46 18411141315976834639
12616999 72 18260838128579737964
13134695 92 17988914570197891264
13140716 1 17982441896059211224
13296908 3 18410012126262323219
13571099 22 18412263917364637633
14115302 16 17967544458094893127
14144814 61 18341897385242830833
14252887 29 17847068766027208998
14866123 147 17332811543592538667
15196674 1 18410011026650293283
15219456 202 18409447020419890177
15375358 24 18335980947491386498
15442244 35 18268996388413911233
15536298 74 18413388739266298578
16945 1 18342736364381440544
17834074 16 18335702766923468195
18186145 218 17894345549517752247
200 152 17988920102853675087
20201158 50 18409731767876863371
20279233 1 18335142007134297131
20281475 54 18410863126681857856
20645477 70 18342174444856433559
20871998 22 18270686363945814846
21267235 1 18411709767904986702
21501925 9 18412820270622799906
221490 88 18335990877371554187
22485316 2 18412824698586544751
23402539 116 16515675650369485836
23402655 69 18412821378782657469
23463225 33 18413390916835855678
23557571 272 17676200260481222845
23559900 14 18337104571366235938
2748010 2 18268703927322229580
335352 9 18122626054966269389
33824 294 18411417336809569466
34934 24 18341604941088535490
4214541 1 18409166593620980029
5104073 3 18410292501943626417
69090 78 18411978100761832559
7364860 26 18268148836869212248
77779 3 18408887343278891261
8809292 202 18260552251040158739
9709674 26 18335143136990725611

> <PUBCHEM_SHAPE_MULTIPOLES>
314.33
8.03
2.09
0.67
3.63
0.28
0
2.19
-0.39
-1.39
0.03
0.17
0.02
0.65

> <PUBCHEM_SHAPE_SELFOVERLAP>
702.556

> <PUBCHEM_SHAPE_VOLUME>
167.7

> <PUBCHEM_COORDINATE_TYPE>
2
5
10

$$$$
