24905292
  -OEChem-10052115163D

 36 38  0     0  0  0  0  0  0999 V2000
   -4.1530   -0.4168   -0.4711 O   0  0  0  0  0  0  0  0  0  0  0  0
   -2.9259   -0.3126    2.0206 O   0  0  0  0  0  0  0  0  0  0  0  0
    2.0362   -2.0328    0.0817 N   0  0  0  0  0  0  0  0  0  0  0  0
    3.3834   -1.9647    0.1630 N   0  0  0  0  0  0  0  0  0  0  0  0
    4.8415   -0.0196    0.0903 N   0  0  0  0  0  0  0  0  0  0  0  0
    3.5353    2.1016   -0.1763 N   0  0  0  0  0  0  0  0  0  0  0  0
    1.1327    2.1808   -0.3378 N   0  0  0  0  0  0  0  0  0  0  0  0
    1.4115   -0.8227   -0.0625 C   0  0  0  0  0  0  0  0  0  0  0  0
   -0.0233   -0.7175   -0.1642 C   0  0  0  0  0  0  0  0  0  0  0  0
    2.4294    0.0869   -0.0747 C   0  0  0  0  0  0  0  0  0  0  0  0
   -0.7951   -0.5641    0.9875 C   0  0  0  0  0  0  0  0  0  0  0  0
    3.6360   -0.6546    0.0671 C   0  0  0  0  0  0  0  0  0  0  0  0
   -0.6392   -0.7697   -1.4147 C   0  0  0  0  0  0  0  0  0  0  0  0
   -2.1828   -0.4624    0.8888 C   0  0  0  0  0  0  0  0  0  0  0  0
   -2.7987   -0.5146   -0.3616 C   0  0  0  0  0  0  0  0  0  0  0  0
    2.3307    1.4637   -0.1993 C   0  0  0  0  0  0  0  0  0  0  0  0
   -2.0269   -0.6683   -1.5133 C   0  0  0  0  0  0  0  0  0  0  0  0
   -4.6643    0.6683   -1.2426 C   0  0  0  0  0  0  0  0  0  0  0  0
    4.6746    1.3369   -0.0369 C   0  0  0  0  0  0  0  0  0  0  0  0
   -6.0224    1.0613   -0.7016 C   0  0  0  0  0  0  0  0  0  0  0  0
   -3.1798    1.0212    2.4575 C   0  0  0  0  0  0  0  0  0  0  0  0
   -0.3231   -0.5226    1.9669 H   0  0  0  0  0  0  0  0  0  0  0  0
   -0.0519   -0.8903   -2.3219 H   0  0  0  0  0  0  0  0  0  0  0  0
    1.6061   -2.9479    0.1324 H   0  0  0  0  0  0  0  0  0  0  0  0
   -2.4931   -0.7189   -2.4934 H   0  0  0  0  0  0  0  0  0  0  0  0
   -3.9930    1.5349   -1.1955 H   0  0  0  0  0  0  0  0  0  0  0  0
   -4.7576    0.3499   -2.2865 H   0  0  0  0  0  0  0  0  0  0  0  0
    5.5988    1.9085   -0.0263 H   0  0  0  0  0  0  0  0  0  0  0  0
    0.2316    1.7307   -0.3560 H   0  0  0  0  0  0  0  0  0  0  0  0
    1.1829    3.1877   -0.4205 H   0  0  0  0  0  0  0  0  0  0  0  0
   -6.7121    0.2116   -0.7372 H   0  0  0  0  0  0  0  0  0  0  0  0
   -5.9473    1.3658    0.3475 H   0  0  0  0  0  0  0  0  0  0  0  0
   -6.4493    1.8864   -1.2786 H   0  0  0  0  0  0  0  0  0  0  0  0
   -3.8326    0.9764    3.3334 H   0  0  0  0  0  0  0  0  0  0  0  0
   -3.6820    1.5988    1.6756 H   0  0  0  0  0  0  0  0  0  0  0  0
   -2.2440    1.5121    2.7427 H   0  0  0  0  0  0  0  0  0  0  0  0
  1 15  1  0  0  0  0
  1 18  1  0  0  0  0
  2 14  1  0  0  0  0
  2 21  1  0  0  0  0
  3  4  1  0  0  0  0
  3  8  1  0  0  0  0
  3 24  1  0  0  0  0
  4 12  2  0  0  0  0
  5 12  1  0  0  0  0
  5 19  2  0  0  0  0
  6 16  2  0  0  0  0
  6 19  1  0  0  0  0
  7 16  1  0  0  0  0
  7 29  1  0  0  0  0
  7 30  1  0  0  0  0
  8  9  1  0  0  0  0
  8 10  2  0  0  0  0
  9 11  2  0  0  0  0
  9 13  1  0  0  0  0
 10 12  1  0  0  0  0
 10 16  1  0  0  0  0
 11 14  1  0  0  0  0
 11 22  1  0  0  0  0
 13 17  2  0  0  0  0
 13 23  1  0  0  0  0
 14 15  2  0  0  0  0
 15 17  1  0  0  0  0
 17 25  1  0  0  0  0
 18 20  1  0  0  0  0
 18 26  1  0  0  0  0
 18 27  1  0  0  0  0
 19 28  1  0  0  0  0
 20 31  1  0  0  0  0
 20 32  1  0  0  0  0
 20 33  1  0  0  0  0
 21 34  1  0  0  0  0
 21 35  1  0  0  0  0
 21 36  1  0  0  0  0
M  END
> <PUBCHEM_COMPOUND_CID>
24905292

> <PUBCHEM_CONFORMER_RMSD>
0.6

> <PUBCHEM_CONFORMER_DIVERSEORDER>
1
24
26
22
23
16
25
19
11
15
9
18
14
12
21
10
13
17
20
3
4
2
5
6
7
8

> <PUBCHEM_MMFF94_PARTIAL_CHARGES>
26
1 -0.36
11 -0.15
12 0.54
13 -0.15
14 0.08
15 0.08
16 0.41
17 -0.15
18 0.28
19 0.47
2 -0.36
21 0.28
22 0.15
23 0.15
24 0.27
25 0.15
28 0.15
29 0.4
3 0.3
30 0.4
4 -0.71
5 -0.57
6 -0.62
7 -0.9
8 -0.2
9 0.05

> <PUBCHEM_EFFECTIVE_ROTOR_COUNT>
4

> <PUBCHEM_PHARMACOPHORE_FEATURES>
10
1 1 acceptor
1 2 acceptor
1 3 donor
1 7 donor
3 4 5 12 cation
3 5 6 19 cation
3 6 7 16 cation
5 3 4 8 10 12 rings
6 5 6 10 12 16 19 rings
6 9 11 13 14 15 17 rings

> <PUBCHEM_HEAVY_ATOM_COUNT>
21

> <PUBCHEM_ATOM_DEF_STEREO_COUNT>
0

> <PUBCHEM_ATOM_UDEF_STEREO_COUNT>
0

> <PUBCHEM_BOND_DEF_STEREO_COUNT>
0

> <PUBCHEM_BOND_UDEF_STEREO_COUNT>
0

> <PUBCHEM_ISOTOPIC_ATOM_COUNT>
0

> <PUBCHEM_COMPONENT_COUNT>
1

> <PUBCHEM_CACTVS_TAUTO_COUNT>
13

> <PUBCHEM_CONFORMER_ID>
017C064C00000001

> <PUBCHEM_MMFF94_ENERGY>
77.9791

> <PUBCHEM_FEATURE_SELFOVERLAP>
51.131

> <PUBCHEM_SHAPE_FINGERPRINT>
11471102 20 18409164429078652358
11640471 11 17917441950884428944
12236239 1 17917708015529290966
12507557 5 18411419548538177465
12633257 1 16153698873105997836
12670546 56 17703790314768686488
13533116 47 17168694211999073859
13583140 156 18335989756896779843
15375358 24 17822006523247129734
16752209 62 16559031575838679879
1813 80 17913500043461159734
19049666 15 17459457875847162286
192875 21 17703785908132325201
200 152 18201433697010902015
20157964 124 18410851028413022207
20600515 1 15791733001059516575
20645476 183 17988071313778322351
20645477 70 18336822001036182694
20871999 31 15698006240603982227
21033648 29 17822010943090510305
21618674 57 17385715868396888849
22289505 5 18336536136486539396
23402655 69 18341325660560428206
23557571 272 17240775020382598803
23559900 14 16515687702406921162
25147074 1 16486142674001636759
2838139 119 18337095788533240845
29717793 49 17418377969702061940
3268164 11 15626223498893312833
4409770 3 15535907079441116375
474 4 18340487889072753176
495365 180 18260817198703224002
5104073 3 18114455742720822619
602551 16 15574721330159756264
633830 44 17986695729999976738
77492 1 17917993892974132342
8272917 22 18340203003380774606

> <PUBCHEM_SHAPE_MULTIPOLES>
395.53
10.61
1.8
1.5
4.22
0.41
-0.74
3.54
1.48
-1.7
0.08
2.3
0.23
-0.63

> <PUBCHEM_SHAPE_SELFOVERLAP>
863.562

> <PUBCHEM_SHAPE_VOLUME>
213.4

> <PUBCHEM_COORDINATE_TYPE>
2
5
10

$$$$
