135947979
  -OEChem-10052115143D

 41 44  0     0  0  0  0  0  0999 V2000
   -6.7888    0.1333    0.0167 O   0  0  0  0  0  0  0  0  0  0  0  0
    2.9399    1.0467    0.0482 N   0  0  0  0  0  0  0  0  0  0  0  0
    1.6549    1.4016   -0.1384 N   0  0  0  0  0  0  0  0  0  0  0  0
    4.2920   -0.9460    0.2997 N   0  0  0  0  0  0  0  0  0  0  0  0
    2.9405   -2.9735    0.1856 N   0  0  0  0  0  0  0  0  0  0  0  0
    0.5760   -2.9310   -0.1373 N   0  0  0  0  0  0  0  0  0  0  0  0
    3.9528    2.0699    0.1546 C   0  0  0  0  0  0  0  0  0  0  0  0
    1.0119    0.2296   -0.1855 C   0  0  0  0  0  0  0  0  0  0  0  0
    1.8757   -0.8707   -0.0307 C   0  0  0  0  0  0  0  0  0  0  0  0
    3.1282   -0.3016    0.1198 C   0  0  0  0  0  0  0  0  0  0  0  0
   -0.4115    0.2036   -0.3739 C   0  0  0  0  0  0  0  0  0  0  0  0
    4.0592    2.8930   -1.1315 C   0  0  0  0  0  0  0  0  0  0  0  0
    3.7121    2.9768    1.3639 C   0  0  0  0  0  0  0  0  0  0  0  0
   -1.2617    0.2346    0.7318 C   0  0  0  0  0  0  0  0  0  0  0  0
    1.8033   -2.2591    0.0069 C   0  0  0  0  0  0  0  0  0  0  0  0
   -2.6559    0.2098    0.5645 C   0  0  0  0  0  0  0  0  0  0  0  0
   -0.9418    0.1477   -1.6594 C   0  0  0  0  0  0  0  0  0  0  0  0
   -3.1952    0.1529   -0.7427 C   0  0  0  0  0  0  0  0  0  0  0  0
   -2.3244    0.1225   -1.8441 C   0  0  0  0  0  0  0  0  0  0  0  0
   -3.5267    0.2403    1.6660 C   0  0  0  0  0  0  0  0  0  0  0  0
   -4.5894    0.1281   -0.9100 C   0  0  0  0  0  0  0  0  0  0  0  0
    4.0976   -2.2824    0.3189 C   0  0  0  0  0  0  0  0  0  0  0  0
   -5.4397    0.1589    0.1957 C   0  0  0  0  0  0  0  0  0  0  0  0
   -4.9093    0.2150    1.4812 C   0  0  0  0  0  0  0  0  0  0  0  0
    4.9140    1.5637    0.3053 H   0  0  0  0  0  0  0  0  0  0  0  0
    4.8873    3.6067   -1.0662 H   0  0  0  0  0  0  0  0  0  0  0  0
    4.2402    2.2441   -1.9955 H   0  0  0  0  0  0  0  0  0  0  0  0
    3.1419    3.4592   -1.3273 H   0  0  0  0  0  0  0  0  0  0  0  0
    4.5335    3.6917    1.4803 H   0  0  0  0  0  0  0  0  0  0  0  0
    3.6441    2.3879    2.2853 H   0  0  0  0  0  0  0  0  0  0  0  0
    2.7818    3.5470    1.2643 H   0  0  0  0  0  0  0  0  0  0  0  0
   -0.8406    0.2779    1.7357 H   0  0  0  0  0  0  0  0  0  0  0  0
   -0.2925    0.1226   -2.5315 H   0  0  0  0  0  0  0  0  0  0  0  0
   -2.7168    0.0785   -2.8580 H   0  0  0  0  0  0  0  0  0  0  0  0
   -3.1344    0.2840    2.6799 H   0  0  0  0  0  0  0  0  0  0  0  0
   -5.0132    0.0842   -1.9118 H   0  0  0  0  0  0  0  0  0  0  0  0
    4.9885   -2.8848    0.4603 H   0  0  0  0  0  0  0  0  0  0  0  0
   -5.5669    0.2390    2.3460 H   0  0  0  0  0  0  0  0  0  0  0  0
   -0.2875   -2.4259   -0.2713 H   0  0  0  0  0  0  0  0  0  0  0  0
    0.5682   -3.9416   -0.1040 H   0  0  0  0  0  0  0  0  0  0  0  0
   -6.9805    0.0944   -0.9360 H   0  0  0  0  0  0  0  0  0  0  0  0
  1 23  1  0  0  0  0
  1 41  1  0  0  0  0
  2  3  1  0  0  0  0
  2  7  1  0  0  0  0
  2 10  1  0  0  0  0
  3  8  2  0  0  0  0
  4 10  2  0  0  0  0
  4 22  1  0  0  0  0
  5 15  1  0  0  0  0
  5 22  2  0  0  0  0
  6 15  1  0  0  0  0
  6 39  1  0  0  0  0
  6 40  1  0  0  0  0
  7 12  1  0  0  0  0
  7 13  1  0  0  0  0
  7 25  1  0  0  0  0
  8  9  1  0  0  0  0
  8 11  1  0  0  0  0
  9 10  1  0  0  0  0
  9 15  2  0  0  0  0
 11 14  2  0  0  0  0
 11 17  1  0  0  0  0
 12 26  1  0  0  0  0
 12 27  1  0  0  0  0
 12 28  1  0  0  0  0
 13 29  1  0  0  0  0
 13 30  1  0  0  0  0
 13 31  1  0  0  0  0
 14 16  1  0  0  0  0
 14 32  1  0  0  0  0
 16 18  2  0  0  0  0
 16 20  1  0  0  0  0
 17 19  2  0  0  0  0
 17 33  1  0  0  0  0
 18 19  1  0  0  0  0
 18 21  1  0  0  0  0
 19 34  1  0  0  0  0
 20 24  2  0  0  0  0
 20 35  1  0  0  0  0
 21 23  2  0  0  0  0
 21 36  1  0  0  0  0
 22 37  1  0  0  0  0
 23 24  1  0  0  0  0
 24 38  1  0  0  0  0
M  END
> <PUBCHEM_COMPOUND_CID>
135947979

> <PUBCHEM_CONFORMER_RMSD>
0.6

> <PUBCHEM_CONFORMER_DIVERSEORDER>
1
3
6
4
5
2

> <PUBCHEM_MMFF94_PARTIAL_CHARGES>
29
1 -0.53
10 0.11
11 0.05
14 -0.15
15 0.41
17 -0.15
19 -0.15
2 0.31
20 -0.15
21 -0.15
22 0.47
23 0.08
24 -0.15
3 -0.71
32 0.15
33 0.15
34 0.15
35 0.15
36 0.15
37 0.15
38 0.15
39 0.4
4 -0.57
40 0.4
41 0.45
5 -0.62
6 -0.9
7 0.26
8 0.23

> <PUBCHEM_EFFECTIVE_ROTOR_COUNT>
2

> <PUBCHEM_PHARMACOPHORE_FEATURES>
11
1 1 donor
1 3 acceptor
1 6 cation
1 6 donor
3 2 4 10 cation
3 4 5 22 cation
3 7 12 13 hydrophobe
5 2 3 8 9 10 rings
6 11 14 16 17 18 19 rings
6 16 18 20 21 23 24 rings
6 4 5 9 10 15 22 rings

> <PUBCHEM_HEAVY_ATOM_COUNT>
24

> <PUBCHEM_ATOM_DEF_STEREO_COUNT>
0

> <PUBCHEM_ATOM_UDEF_STEREO_COUNT>
0

> <PUBCHEM_BOND_DEF_STEREO_COUNT>
0

> <PUBCHEM_BOND_UDEF_STEREO_COUNT>
0

> <PUBCHEM_ISOTOPIC_ATOM_COUNT>
0

> <PUBCHEM_COMPONENT_COUNT>
1

> <PUBCHEM_CACTVS_TAUTO_COUNT>
-1

> <PUBCHEM_CONFORMER_ID>
081A66CB00000001

> <PUBCHEM_MMFF94_ENERGY>
62.3394

> <PUBCHEM_FEATURE_SELFOVERLAP>
56.126

> <PUBCHEM_SHAPE_FINGERPRINT>
10165383 225 18263087768236493660
10411042 1 17978228262844485338
10554248 39 17774157887016878301
10670039 82 16271666515164331857
10912923 1 17917714608789133649
12035758 1 18262778728443896962
12107183 9 17694792817992754225
12236239 1 17703787003037710143
12390115 104 17978798140516572292
12403259 118 17845938399349357553
12403259 415 17894344458664689669
12596602 18 18131351947228097851
12616971 3 18059849554642560567
12730499 353 18335990856007234112
12788726 201 17203338797225349969
13140716 1 18337944714662496930
13533116 47 18411983550895600017
13583140 156 18271249447338615225
13631057 29 17911511314483372487
13955234 65 18410569583306001330
14341114 328 17989210352316916931
14386348 63 17530971241841915675
14739800 52 16916487268668419184
14790565 3 17684944887279919156
14849402 71 18271802480355585848
14955137 171 18200319810539517166
15142526 21 17913199051514544736
15238133 3 16988567861981734691
15342168 16 18263365961272510772
15475509 35 16733249159242681378
15880784 105 18408325497554409219
15961568 22 16298678281911627092
17844677 252 18336549318084185389
1813 80 17986120600162915262
18785283 64 18260548939952461844
1979834 28 18041283273989340404
200 152 18341045216908702635
204376 136 18264490753019391644
20600515 1 15936977456618360493
20645477 70 18334009471513531570
20739085 24 18335992999375834580
21033648 29 17895182299547386149
21065201 7 16443343122605739599
21344244 78 17987503845545296384
22079108 93 18198908200284998953
22122407 14 18129956598242873025
22182313 1 17676756600611513093
2255824 54 18341892970496719318
23557571 272 16950843609495488167
23559900 14 16660371350409467758
23845131 108 18265048222784785538
239999 70 17676489449588104536
25147074 1 17916852616720393286
312423 11 18201168645609557057
3178227 256 18335140869717225634
38570 142 18129114479567733988
4340502 62 18411702131780039283
4409770 3 15464699420728660951
458136 41 18336269037245143252
474 4 18199463440772565792
495365 180 18409728491138479232
5104073 3 18338231669337112627
57527293 21 17096359708582006600
6034566 193 17755869958418420908
621550 34 18113332016099183981
633830 44 17987236823345149740
7495541 125 17822013073573539426
8272917 22 18412547595670075461
9981440 41 15834206289575545256

> <PUBCHEM_SHAPE_MULTIPOLES>
463.13
11.93
2.78
1.35
12.37
0.54
-0.12
-2.94
1.95
-6.5
0.27
1.09
-0.49
-0.24

> <PUBCHEM_SHAPE_SELFOVERLAP>
1037.425

> <PUBCHEM_SHAPE_VOLUME>
245.3

> <PUBCHEM_COORDINATE_TYPE>
2
5
10

$$$$
