44269518
  -OEChem-10062121573D

 31 34  0     0  0  0  0  0  0999 V2000
    0.6852   -1.0323    0.0302 N   0  0  0  0  0  0  0  0  0  0  0  0
   -1.5437    1.8931   -0.2522 N   0  0  0  0  0  0  0  0  0  0  0  0
   -4.2042   -1.3460    0.1673 N   0  0  0  0  0  0  0  0  0  0  0  0
   -2.1527   -1.6578   -0.6240 N   0  0  0  0  0  0  0  0  0  0  0  0
    0.1097    0.2106   -0.0740 C   0  0  0  0  0  0  0  0  0  0  0  0
    1.1421    1.1477   -0.0916 C   0  0  0  0  0  0  0  0  0  0  0  0
    2.3736    0.4255    0.0072 C   0  0  0  0  0  0  0  0  0  0  0  0
    2.0559   -0.9312    0.0820 C   0  0  0  0  0  0  0  0  0  0  0  0
   -1.2264    0.5815   -0.1540 C   0  0  0  0  0  0  0  0  0  0  0  0
   -2.2815   -0.3812   -0.1368 C   0  0  0  0  0  0  0  0  0  0  0  0
    0.8086    2.5074   -0.1936 C   0  0  0  0  0  0  0  0  0  0  0  0
    3.7325    0.8029    0.0399 C   0  0  0  0  0  0  0  0  0  0  0  0
    3.0290   -1.9316    0.1882 C   0  0  0  0  0  0  0  0  0  0  0  0
   -3.5454   -0.1643    0.3593 C   0  0  0  0  0  0  0  0  0  0  0  0
   -0.5454    2.8049   -0.2696 C   0  0  0  0  0  0  0  0  0  0  0  0
    4.7168   -0.1861    0.1458 C   0  0  0  0  0  0  0  0  0  0  0  0
    4.3679   -1.5326    0.2191 C   0  0  0  0  0  0  0  0  0  0  0  0
   -4.1939    1.0017    0.9826 C   0  0  0  0  0  0  0  0  0  0  0  0
   -3.3281   -2.2121   -0.4257 C   0  0  0  0  0  0  0  0  0  0  0  0
    0.1746   -1.9038    0.0653 H   0  0  0  0  0  0  0  0  0  0  0  0
    1.5599    3.2885   -0.2127 H   0  0  0  0  0  0  0  0  0  0  0  0
    4.0204    1.8490   -0.0160 H   0  0  0  0  0  0  0  0  0  0  0  0
    2.7580   -2.9805    0.2450 H   0  0  0  0  0  0  0  0  0  0  0  0
   -0.8741    3.8367   -0.3501 H   0  0  0  0  0  0  0  0  0  0  0  0
    5.7645    0.1013    0.1713 H   0  0  0  0  0  0  0  0  0  0  0  0
    5.1478   -2.2853    0.3011 H   0  0  0  0  0  0  0  0  0  0  0  0
   -5.1635   -1.5472    0.4164 H   0  0  0  0  0  0  0  0  0  0  0  0
   -4.3851    1.7806    0.2376 H   0  0  0  0  0  0  0  0  0  0  0  0
   -5.1533    0.7339    1.4380 H   0  0  0  0  0  0  0  0  0  0  0  0
   -3.5637    1.4241    1.7719 H   0  0  0  0  0  0  0  0  0  0  0  0
   -3.6069   -3.2235   -0.6848 H   0  0  0  0  0  0  0  0  0  0  0  0
  1  5  1  0  0  0  0
  1  8  1  0  0  0  0
  1 20  1  0  0  0  0
  2  9  2  0  0  0  0
  2 15  1  0  0  0  0
  3 14  1  0  0  0  0
  3 19  1  0  0  0  0
  3 27  1  0  0  0  0
  4 10  1  0  0  0  0
  4 19  2  0  0  0  0
  5  6  2  0  0  0  0
  5  9  1  0  0  0  0
  6  7  1  0  0  0  0
  6 11  1  0  0  0  0
  7  8  1  0  0  0  0
  7 12  2  0  0  0  0
  8 13  2  0  0  0  0
  9 10  1  0  0  0  0
 10 14  2  0  0  0  0
 11 15  2  0  0  0  0
 11 21  1  0  0  0  0
 12 16  1  0  0  0  0
 12 22  1  0  0  0  0
 13 17  1  0  0  0  0
 13 23  1  0  0  0  0
 14 18  1  0  0  0  0
 15 24  1  0  0  0  0
 16 17  2  0  0  0  0
 16 25  1  0  0  0  0
 17 26  1  0  0  0  0
 18 28  1  0  0  0  0
 18 29  1  0  0  0  0
 18 30  1  0  0  0  0
 19 31  1  0  0  0  0
M  END
> <PUBCHEM_COMPOUND_CID>
44269518

> <PUBCHEM_CONFORMER_RMSD>
0.6

> <PUBCHEM_CONFORMER_DIVERSEORDER>
1
3
4
2

> <PUBCHEM_MMFF94_PARTIAL_CHARGES>
26
1 0.03
10 0.17
11 -0.15
12 -0.15
13 -0.15
14 -0.33
15 0.16
16 -0.15
17 -0.15
18 0.18
19 0.04
2 -0.62
20 0.27
21 0.15
22 0.15
23 0.15
24 0.15
25 0.15
26 0.15
27 0.27
3 0.03
31 0.15
4 -0.57
5 -0.15
8 -0.15
9 0.36

> <PUBCHEM_EFFECTIVE_ROTOR_COUNT>
1

> <PUBCHEM_PHARMACOPHORE_FEATURES>
9
1 1 cation
1 1 donor
1 2 acceptor
1 3 donor
3 3 4 19 cation
5 1 5 6 7 8 rings
5 3 4 10 14 19 rings
6 2 5 6 9 11 15 rings
6 7 8 12 13 16 17 rings

> <PUBCHEM_HEAVY_ATOM_COUNT>
19

> <PUBCHEM_ATOM_DEF_STEREO_COUNT>
0

> <PUBCHEM_ATOM_UDEF_STEREO_COUNT>
0

> <PUBCHEM_BOND_DEF_STEREO_COUNT>
0

> <PUBCHEM_BOND_UDEF_STEREO_COUNT>
0

> <PUBCHEM_ISOTOPIC_ATOM_COUNT>
0

> <PUBCHEM_COMPONENT_COUNT>
1

> <PUBCHEM_CACTVS_TAUTO_COUNT>
5

> <PUBCHEM_CONFORMER_ID>
02A37FCE00000001

> <PUBCHEM_MMFF94_ENERGY>
36.5339

> <PUBCHEM_FEATURE_SELFOVERLAP>
45.857

> <PUBCHEM_SHAPE_FINGERPRINT>
10090160 65 17822573914945652476
10616163 171 18339923719006131166
10618630 7 18407759222752676380
10967382 1 18193555790650133740
11132069 177 18412539899268067936
11578080 2 17773853433374446345
11806522 49 18335419105908461790
12032990 46 18410011027056488182
12251169 10 18343025506001167233
12553582 1 18409160021830666586
13140716 1 18412548742832629313
13544653 18 18259706700622684718
13583140 156 14189565325946065967
138480 1 15095922039482730908
14787075 74 18187928438879214928
14790565 3 17904770234236934580
15042514 8 18120936096978140440
15196674 1 18410574002336601578
15209289 33 18187649123828209219
15352361 1 18409727395711192055
15375462 189 18260548913539223003
15442244 35 18412266172660369945
15536298 74 18199468938203831040
16945 1 18411127056833429852
17349148 13 17676204654939407682
17357779 13 18189594159992554461
17492 89 18122625221991235011
17804303 29 18272654545182710505
1813 80 17676212363767420252
19141452 34 18342740693782152491
200 152 18113615685988701370
20281475 54 18410012160490218868
20291156 8 18409728473599874534
20645477 70 18045487879932174911
21267235 1 18410864277770302287
21421861 104 18043811974876735242
221490 88 18046068430229207963
2255824 54 18047757284326391028
22950370 63 18409737265677718718
23402539 116 18335977610576136374
23463225 33 18411421738839486749
23557571 272 18200601285341680492
23559900 14 18195518191694732658
2748010 2 18338784616459348628
2871803 45 18333724702534431174
3091708 16 9353664718919033952
335352 9 18338516340038367125
34934 24 18335697200703738513
350125 39 18411981356742642912
352729 6 17617932539499956420
5104073 3 18412262852228573442
6992083 37 18341909471734625457
7364860 26 18124594438193442552
83771 10 18408602565203441024
8809292 202 18260269667640249219
9709674 26 18408610236342638066

> <PUBCHEM_SHAPE_MULTIPOLES>
371.09
8.55
2.63
0.71
1.08
0.81
0.04
-3.97
1.36
-0.64
-0.31
-0.28
0.02
-0.56

> <PUBCHEM_SHAPE_SELFOVERLAP>
850.055

> <PUBCHEM_SHAPE_VOLUME>
194

> <PUBCHEM_COORDINATE_TYPE>
2
5
10

$$$$
