24952850
  -OEChem-10052120443D

 49 53  0     0  0  0  0  0  0999 V2000
    3.3046    0.3571   -1.4134 S   0  0  0  0  0  0  0  0  0  0  0  0
   -5.5996    1.4466   -1.2486 S   0  0  0  0  0  0  0  0  0  0  0  0
    0.3138   -5.1999    1.1940 F   0  0  0  0  0  0  0  0  0  0  0  0
    4.7860    0.3261   -1.5060 O   0  0  0  0  0  0  0  0  0  0  0  0
    2.5788    0.7232   -2.6535 O   0  0  0  0  0  0  0  0  0  0  0  0
    2.7831    1.2764   -0.1263 N   0  0  0  0  0  0  0  0  0  0  0  0
   -3.1932    1.4262   -0.3620 N   0  0  0  0  0  0  0  0  0  0  0  0
    2.8459    2.6436    1.6249 N   0  0  0  0  0  0  0  0  0  0  0  0
   -3.9037   -0.6844   -0.5393 N   0  0  0  0  0  0  0  0  0  0  0  0
    4.8991    2.0934    0.5098 N   0  0  0  0  0  0  0  0  0  0  0  0
    2.8355   -1.3454   -1.0628 C   0  0  0  0  0  0  0  0  0  0  0  0
    1.4819    1.3995    0.2888 C   0  0  0  0  0  0  0  0  0  0  0  0
    1.5474    2.2577    1.3829 C   0  0  0  0  0  0  0  0  0  0  0  0
   -0.8796    1.2014    0.4984 C   0  0  0  0  0  0  0  0  0  0  0  0
    0.2896    0.8506   -0.1845 C   0  0  0  0  0  0  0  0  0  0  0  0
   -2.1443    0.6649    0.0544 C   0  0  0  0  0  0  0  0  0  0  0  0
    3.5594    2.0376    0.7025 C   0  0  0  0  0  0  0  0  0  0  0  0
    3.4911   -1.8178    0.2264 C   0  0  0  0  0  0  0  0  0  0  0  0
    3.2011   -2.2447   -2.2344 C   0  0  0  0  0  0  0  0  0  0  0  0
    0.3630    2.5995    2.0571 C   0  0  0  0  0  0  0  0  0  0  0  0
   -0.8458    2.0602    1.5995 C   0  0  0  0  0  0  0  0  0  0  0  0
   -2.6062   -0.6360   -0.0637 C   0  0  0  0  0  0  0  0  0  0  0  0
   -4.2012    0.5752   -0.6988 C   0  0  0  0  0  0  0  0  0  0  0  0
   -1.8529   -1.8110    0.2604 C   0  0  0  0  0  0  0  0  0  0  0  0
   -3.4681    2.7640   -0.5166 C   0  0  0  0  0  0  0  0  0  0  0  0
   -4.7135    2.9589   -0.9828 C   0  0  0  0  0  0  0  0  0  0  0  0
   -1.3775   -1.9993    1.5581 C   0  0  0  0  0  0  0  0  0  0  0  0
   -1.5962   -2.7673   -0.7221 C   0  0  0  0  0  0  0  0  0  0  0  0
   -0.6455   -3.1440    1.8734 C   0  0  0  0  0  0  0  0  0  0  0  0
   -0.8641   -3.9120   -0.4068 C   0  0  0  0  0  0  0  0  0  0  0  0
   -0.3888   -4.1003    0.8909 C   0  0  0  0  0  0  0  0  0  0  0  0
    1.7508   -1.3750   -0.9445 H   0  0  0  0  0  0  0  0  0  0  0  0
    0.2606    0.2106   -1.0587 H   0  0  0  0  0  0  0  0  0  0  0  0
    4.5837   -1.7855    0.1618 H   0  0  0  0  0  0  0  0  0  0  0  0
    3.1901   -1.2022    1.0797 H   0  0  0  0  0  0  0  0  0  0  0  0
    3.1999   -2.8500    0.4497 H   0  0  0  0  0  0  0  0  0  0  0  0
    4.2798   -2.2414   -2.4239 H   0  0  0  0  0  0  0  0  0  0  0  0
    2.7023   -1.9206   -3.1536 H   0  0  0  0  0  0  0  0  0  0  0  0
    2.8967   -3.2784   -2.0388 H   0  0  0  0  0  0  0  0  0  0  0  0
    0.3792    3.2645    2.9147 H   0  0  0  0  0  0  0  0  0  0  0  0
   -1.7596    2.3214    2.1300 H   0  0  0  0  0  0  0  0  0  0  0  0
   -2.7409    3.5267   -0.2835 H   0  0  0  0  0  0  0  0  0  0  0  0
    5.4900    2.6529    1.1166 H   0  0  0  0  0  0  0  0  0  0  0  0
    5.3856    1.6006   -0.2304 H   0  0  0  0  0  0  0  0  0  0  0  0
   -5.1595    3.9220   -1.1873 H   0  0  0  0  0  0  0  0  0  0  0  0
   -1.5732   -1.2713    2.3419 H   0  0  0  0  0  0  0  0  0  0  0  0
   -1.9574   -2.6352   -1.7393 H   0  0  0  0  0  0  0  0  0  0  0  0
   -0.2765   -3.2919    2.8840 H   0  0  0  0  0  0  0  0  0  0  0  0
   -0.6628   -4.6561   -1.1717 H   0  0  0  0  0  0  0  0  0  0  0  0
  1  4  2  0  0  0  0
  1  5  2  0  0  0  0
  1  6  1  0  0  0  0
  1 11  1  0  0  0  0
  2 23  1  0  0  0  0
  2 26  1  0  0  0  0
  3 31  1  0  0  0  0
  6 12  1  0  0  0  0
  6 17  1  0  0  0  0
  7 16  1  0  0  0  0
  7 23  1  0  0  0  0
  7 25  1  0  0  0  0
  8 13  1  0  0  0  0
  8 17  2  0  0  0  0
  9 22  1  0  0  0  0
  9 23  2  0  0  0  0
 10 17  1  0  0  0  0
 10 43  1  0  0  0  0
 10 44  1  0  0  0  0
 11 18  1  0  0  0  0
 11 19  1  0  0  0  0
 11 32  1  0  0  0  0
 12 13  2  0  0  0  0
 12 15  1  0  0  0  0
 13 20  1  0  0  0  0
 14 15  2  0  0  0  0
 14 16  1  0  0  0  0
 14 21  1  0  0  0  0
 15 33  1  0  0  0  0
 16 22  2  0  0  0  0
 18 34  1  0  0  0  0
 18 35  1  0  0  0  0
 18 36  1  0  0  0  0
 19 37  1  0  0  0  0
 19 38  1  0  0  0  0
 19 39  1  0  0  0  0
 20 21  2  0  0  0  0
 20 40  1  0  0  0  0
 21 41  1  0  0  0  0
 22 24  1  0  0  0  0
 24 27  2  0  0  0  0
 24 28  1  0  0  0  0
 25 26  2  0  0  0  0
 25 42  1  0  0  0  0
 26 45  1  0  0  0  0
 27 29  1  0  0  0  0
 27 46  1  0  0  0  0
 28 30  2  0  0  0  0
 28 47  1  0  0  0  0
 29 31  2  0  0  0  0
 29 48  1  0  0  0  0
 30 31  1  0  0  0  0
 30 49  1  0  0  0  0
M  END
> <PUBCHEM_COMPOUND_CID>
24952850

> <PUBCHEM_CONFORMER_RMSD>
0.8

> <PUBCHEM_CONFORMER_DIVERSEORDER>
1
5
3
19
15
17
14
8
16
4
7
13
2
20
12
18
6
10
11
9

> <PUBCHEM_MMFF94_PARTIAL_CHARGES>
40
1 1.18
10 -0.88
11 0.11
12 -0.15
13 0.23
14 0.05
15 -0.15
16 -0.2
17 0.27
2 -0.16
20 -0.15
21 -0.15
22 0.17
23 0.24
24 0.05
25 -0.18
26 -0.05
27 -0.15
28 -0.15
29 -0.15
3 -0.19
30 -0.15
31 0.19
33 0.15
4 -0.65
40 0.15
41 0.15
42 0.15
43 0.4
44 0.4
45 0.15
46 0.15
47 0.15
48 0.15
49 0.15
5 -0.65
6 0.32
7 0.33
8 -0.57
9 -0.57

> <PUBCHEM_EFFECTIVE_ROTOR_COUNT>
4

> <PUBCHEM_PHARMACOPHORE_FEATURES>
10
1 10 donor
1 4 acceptor
1 5 acceptor
3 11 18 19 hydrophobe
3 7 9 23 cation
5 2 7 23 25 26 rings
5 6 8 12 13 17 rings
5 7 9 16 22 23 rings
6 12 13 14 15 20 21 rings
6 24 27 28 29 30 31 rings

> <PUBCHEM_HEAVY_ATOM_COUNT>
31

> <PUBCHEM_ATOM_DEF_STEREO_COUNT>
0

> <PUBCHEM_ATOM_UDEF_STEREO_COUNT>
0

> <PUBCHEM_BOND_DEF_STEREO_COUNT>
0

> <PUBCHEM_BOND_UDEF_STEREO_COUNT>
0

> <PUBCHEM_ISOTOPIC_ATOM_COUNT>
0

> <PUBCHEM_COMPONENT_COUNT>
1

> <PUBCHEM_CACTVS_TAUTO_COUNT>
2

> <PUBCHEM_CONFORMER_ID>
017CC01200000001

> <PUBCHEM_MMFF94_ENERGY>
84.1552

> <PUBCHEM_FEATURE_SELFOVERLAP>
51.124

> <PUBCHEM_SHAPE_FINGERPRINT>
10675989 125 18268988674637440552
1100329 8 18339630132052944898
11582403 64 16550806228294058177
12035759 4 17838900335204232289
12553582 1 17916044398818077680
12788726 201 18058457504213167640
133893 2 17756717330075561977
13402501 40 18055921136745676906
13617811 41 18114459076501888525
140371 6 18129945705488957072
14068700 675 17762332523184910342
14114206 34 17622487902505637364
14114211 68 17973191464074183967
14251757 17 18272650156005669873
14289585 56 13433480005387783735
14725015 67 17907566287826525786
14931854 50 18270125586924014748
1813 80 11311765199006615007
20775438 99 17701790346009881239
21133410 230 17753370597022415603
23366157 5 17753879529503515465
23419403 2 17104292436237423897
23559900 14 18272929436349577064
3298306 158 18337386020689239423
4015057 19 17632580486977161640
463206 1 17690289204916154314
508706 21 18123752216961361182
5265222 85 18335149716880396004
57527295 17 18130784538682015701
6669772 16 18341317946925849203
9709674 26 18127126591960288565

> <PUBCHEM_SHAPE_MULTIPOLES>
601.75
8.9
5.42
1.94
3.17
6.19
-0.19
-6.54
-5.24
-0.36
2.45
-1.28
0.02
1.91

> <PUBCHEM_SHAPE_SELFOVERLAP>
1323.773

> <PUBCHEM_SHAPE_VOLUME>
331.7

> <PUBCHEM_COORDINATE_TYPE>
2
5
10

$$$$
