794531
  -OEChem-10052120433D

 45 48  0     0  0  0  0  0  0999 V2000
    3.1537    2.2262    0.0441 O   0  0  0  0  0  0  0  0  0  0  0  0
   -2.2926   -0.8602    0.7991 N   0  0  0  0  0  0  0  0  0  0  0  0
    3.8651   -0.0146    0.0424 N   0  0  0  0  0  0  0  0  0  0  0  0
    6.0335   -0.9555   -0.2480 N   0  0  0  0  0  0  0  0  0  0  0  0
    5.9072    1.2244   -0.3335 N   0  0  0  0  0  0  0  0  0  0  0  0
    7.3043   -0.5823   -0.4620 N   0  0  0  0  0  0  0  0  0  0  0  0
   -1.0727   -0.2254    0.7352 C   0  0  0  0  0  0  0  0  0  0  0  0
   -0.1935   -1.0899    0.0796 C   0  0  0  0  0  0  0  0  0  0  0  0
   -2.2153   -2.0927    0.2080 C   0  0  0  0  0  0  0  0  0  0  0  0
   -0.9281   -2.2640   -0.2471 C   0  0  0  0  0  0  0  0  0  0  0  0
   -3.4849   -0.3034    1.4052 C   0  0  0  0  0  0  0  0  0  0  0  0
    1.1393   -0.6784   -0.1202 C   0  0  0  0  0  0  0  0  0  0  0  0
   -0.6842    1.0350    1.2029 C   0  0  0  0  0  0  0  0  0  0  0  0
   -3.3812   -2.9987    0.1295 C   0  0  0  0  0  0  0  0  0  0  0  0
   -0.4042   -3.4544   -0.9494 C   0  0  0  0  0  0  0  0  0  0  0  0
   -4.2966    0.4754    0.4058 C   0  0  0  0  0  0  0  0  0  0  0  0
    1.5421    0.5796    0.3424 C   0  0  0  0  0  0  0  0  0  0  0  0
    0.6427    1.4215    0.9935 C   0  0  0  0  0  0  0  0  0  0  0  0
   -5.2779   -0.1727   -0.3322 C   0  0  0  0  0  0  0  0  0  0  0  0
   -4.0539    1.8317    0.2353 C   0  0  0  0  0  0  0  0  0  0  0  0
    2.9163    1.0116    0.1397 C   0  0  0  0  0  0  0  0  0  0  0  0
   -6.0307    0.5491   -1.2585 C   0  0  0  0  0  0  0  0  0  0  0  0
   -4.8068    2.5535   -0.6910 C   0  0  0  0  0  0  0  0  0  0  0  0
   -5.7951    1.9121   -1.4379 C   0  0  0  0  0  0  0  0  0  0  0  0
    5.2389    0.1271   -0.1773 C   0  0  0  0  0  0  0  0  0  0  0  0
    7.1743    0.7453   -0.5057 C   0  0  0  0  0  0  0  0  0  0  0  0
   -3.1819    0.3382    2.2415 H   0  0  0  0  0  0  0  0  0  0  0  0
   -4.0767   -1.0969    1.8702 H   0  0  0  0  0  0  0  0  0  0  0  0
    1.8042   -1.3407   -0.6643 H   0  0  0  0  0  0  0  0  0  0  0  0
   -1.3614    1.6935    1.7330 H   0  0  0  0  0  0  0  0  0  0  0  0
   -3.9833   -2.7757   -0.7554 H   0  0  0  0  0  0  0  0  0  0  0  0
   -3.0458   -4.0374    0.0264 H   0  0  0  0  0  0  0  0  0  0  0  0
   -4.0150   -2.9805    1.0184 H   0  0  0  0  0  0  0  0  0  0  0  0
    0.5049   -3.2262   -1.5142 H   0  0  0  0  0  0  0  0  0  0  0  0
   -0.1675   -4.2457   -0.2308 H   0  0  0  0  0  0  0  0  0  0  0  0
   -1.1375   -3.8461   -1.6621 H   0  0  0  0  0  0  0  0  0  0  0  0
    0.9581    2.3950    1.3629 H   0  0  0  0  0  0  0  0  0  0  0  0
   -5.5016   -1.2229   -0.1832 H   0  0  0  0  0  0  0  0  0  0  0  0
   -3.3047    2.3549    0.8186 H   0  0  0  0  0  0  0  0  0  0  0  0
   -6.8059    0.0518   -1.8340 H   0  0  0  0  0  0  0  0  0  0  0  0
   -4.6270    3.6158   -0.8273 H   0  0  0  0  0  0  0  0  0  0  0  0
   -6.3833    2.4748   -2.1568 H   0  0  0  0  0  0  0  0  0  0  0  0
    3.5726   -0.9783    0.1776 H   0  0  0  0  0  0  0  0  0  0  0  0
    5.8091   -1.9403   -0.1658 H   0  0  0  0  0  0  0  0  0  0  0  0
    8.0298    1.3838   -0.6684 H   0  0  0  0  0  0  0  0  0  0  0  0
  1 21  2  0  0  0  0
  2  7  1  0  0  0  0
  2  9  1  0  0  0  0
  2 11  1  0  0  0  0
  3 21  1  0  0  0  0
  3 25  1  0  0  0  0
  3 43  1  0  0  0  0
  4  6  1  0  0  0  0
  4 25  1  0  0  0  0
  4 44  1  0  0  0  0
  5 25  2  0  0  0  0
  5 26  1  0  0  0  0
  6 26  2  0  0  0  0
  7  8  2  0  0  0  0
  7 13  1  0  0  0  0
  8 10  1  0  0  0  0
  8 12  1  0  0  0  0
  9 10  2  0  0  0  0
  9 14  1  0  0  0  0
 10 15  1  0  0  0  0
 11 16  1  0  0  0  0
 11 27  1  0  0  0  0
 11 28  1  0  0  0  0
 12 17  2  0  0  0  0
 12 29  1  0  0  0  0
 13 18  2  0  0  0  0
 13 30  1  0  0  0  0
 14 31  1  0  0  0  0
 14 32  1  0  0  0  0
 14 33  1  0  0  0  0
 15 34  1  0  0  0  0
 15 35  1  0  0  0  0
 15 36  1  0  0  0  0
 16 19  2  0  0  0  0
 16 20  1  0  0  0  0
 17 18  1  0  0  0  0
 17 21  1  0  0  0  0
 18 37  1  0  0  0  0
 19 22  1  0  0  0  0
 19 38  1  0  0  0  0
 20 23  2  0  0  0  0
 20 39  1  0  0  0  0
 22 24  2  0  0  0  0
 22 40  1  0  0  0  0
 23 24  1  0  0  0  0
 23 41  1  0  0  0  0
 24 42  1  0  0  0  0
 26 45  1  0  0  0  0
M  END
> <PUBCHEM_COMPOUND_CID>
794531

> <PUBCHEM_CONFORMER_RMSD>
0.8

> <PUBCHEM_CONFORMER_DIVERSEORDER>
1
22
29
23
32
17
20
18
25
31
33
5
16
14
28
30
24
26
35
27
34
12
8
21
11
7
10
19
13
15
6
2
4
9
3

> <PUBCHEM_MMFF94_PARTIAL_CHARGES>
36
1 -0.57
10 -0.18
11 0.4
12 -0.15
13 -0.15
14 0.18
15 0.18
16 -0.14
17 0.09
18 -0.15
19 -0.15
2 0.05
20 -0.15
21 0.54
22 -0.15
23 -0.15
24 -0.15
25 0.25
26 0.37
29 0.15
3 -0.49
30 0.15
37 0.15
38 0.15
39 0.15
4 0.3
40 0.15
41 0.15
42 0.15
43 0.37
44 0.27
45 0.15
5 -0.57
6 -0.71
7 -0.15
9 -0.33

> <PUBCHEM_EFFECTIVE_ROTOR_COUNT>
5

> <PUBCHEM_PHARMACOPHORE_FEATURES>
9
1 1 acceptor
1 2 cation
1 3 donor
1 4 donor
3 5 6 26 cation
5 2 7 8 9 10 rings
5 4 5 6 25 26 rings
6 16 19 20 22 23 24 rings
6 7 8 12 13 17 18 rings

> <PUBCHEM_HEAVY_ATOM_COUNT>
26

> <PUBCHEM_ATOM_DEF_STEREO_COUNT>
0

> <PUBCHEM_ATOM_UDEF_STEREO_COUNT>
0

> <PUBCHEM_BOND_DEF_STEREO_COUNT>
0

> <PUBCHEM_BOND_UDEF_STEREO_COUNT>
0

> <PUBCHEM_ISOTOPIC_ATOM_COUNT>
0

> <PUBCHEM_COMPONENT_COUNT>
1

> <PUBCHEM_CACTVS_TAUTO_COUNT>
8

> <PUBCHEM_CONFORMER_ID>
000C1FA300000001

> <PUBCHEM_MMFF94_ENERGY>
60.1654

> <PUBCHEM_FEATURE_SELFOVERLAP>
45.798

> <PUBCHEM_SHAPE_FINGERPRINT>
10066227 112 18333733546273286836
100830 39 18407760339359939789
10165383 225 18412548683362704113
105312 117 18335422348735494679
10577160 183 18262500530037194010
10670039 82 18261386716179086253
10835480 77 18271241733720367528
12166972 35 12319732579692256170
12236239 1 18260553359727094994
12788726 201 17987515918672225288
12838862 33 18342444938703892482
13257819 101 17676758765755182215
13540713 4 17914040156418567641
14251752 14 18333167263345570176
14856354 85 15357707396065503843
15021287 119 17603873342118962004
15183329 4 18335980891910090624
15276724 80 17313382314853904436
15338160 23 13118547516640636551
15439362 3 18122063101129155277
15849732 13 18041000648055800732
167882 2 18267303119270137611
17093844 174 18335419106003342784
17780758 139 8070025589080559341
17899979 129 17832130634055695485
19377110 9 10663821918415575602
19611394 137 17678191571609502713
19958102 18 18340212882200629148
20511986 3 18339920519993467208
21279426 13 18341902861753882014
21344244 246 17989205898104042207
21859007 373 18337092506940979224
2215653 11 17989491814535072958
23198884 109 18407757036693710469
23559900 14 18059289980570864240
23569943 247 12893144318002158484
23576562 1 18189335834605031556
266924 87 18056764226014930601
2838139 119 18187081746001109965
3004659 81 18408326593103021618
335352 9 18342462564168253580
4015057 19 16916783045511646528
4017518 198 17846502517956429294
4058900 60 18040720216677470130
484989 97 18269269239945727771
5085150 59 18130216091371324502
559249 180 18411420635476516498
59755656 215 18340771447182449070
59755656 520 18334006194907380159
6327066 14 18187921721703793533
6328613 192 18113904883596705164
633830 44 17313663888313960856
7226269 152 18202006512235391680

> <PUBCHEM_SHAPE_MULTIPOLES>
504.29
16.67
2.94
1.07
23.73
1.89
-0.02
-7.41
6.13
-3.02
0.64
-1.16
-0.18
1.08

> <PUBCHEM_SHAPE_SELFOVERLAP>
1118.107

> <PUBCHEM_SHAPE_VOLUME>
272.5

> <PUBCHEM_COORDINATE_TYPE>
2
5
10

$$$$
