49830344
  -OEChem-10052115183D

 73 76  0     0  0  0  0  0  0999 V2000
   -3.5517    0.2694    1.3508 S   0  0  0  0  0  0  0  0  0  0  0  0
    4.9879   -0.8440   -0.7855 O   0  0  0  0  0  0  0  0  0  0  0  0
   -3.3363   -3.8587    0.6558 N   0  0  0  0  0  0  0  0  0  0  0  0
   -2.5828    3.5677   -1.5207 N   0  0  0  0  0  0  0  0  0  0  0  0
   -0.2849    3.1386   -1.1702 N   0  0  0  0  0  0  0  0  0  0  0  0
    4.4725    0.6741    0.9231 N   0  0  0  0  0  0  0  0  0  0  0  0
    6.6793    0.1478    0.4888 N   0  0  0  0  0  0  0  0  0  0  0  0
   -8.3963   -2.2768   -0.6955 C   0  0  0  0  0  0  0  0  0  0  0  0
   -7.6862   -3.5295   -0.1715 C   0  0  0  0  0  0  0  0  0  0  0  0
   -7.9537   -0.9887    0.0017 C   0  0  0  0  0  0  0  0  0  0  0  0
   -6.1662   -3.5684   -0.3696 C   0  0  0  0  0  0  0  0  0  0  0  0
   -8.7057    0.2287   -0.5495 C   0  0  0  0  0  0  0  0  0  0  0  0
   -5.5257   -4.8822    0.0898 C   0  0  0  0  0  0  0  0  0  0  0  0
   -8.3133    1.5329    0.1493 C   0  0  0  0  0  0  0  0  0  0  0  0
   -4.0065   -4.9144   -0.0941 C   0  0  0  0  0  0  0  0  0  0  0  0
   -1.9750    1.8092   -0.0007 C   0  0  0  0  0  0  0  0  0  0  0  0
   -1.1469    0.9202    0.7630 C   0  0  0  0  0  0  0  0  0  0  0  0
   -3.3309    1.5595    0.2292 C   0  0  0  0  0  0  0  0  0  0  0  0
   -6.8845    1.8342   -0.0165 C   0  0  0  0  0  0  0  0  0  0  0  0
   -4.3265    2.3075   -0.4101 C   0  0  0  0  0  0  0  0  0  0  0  0
    0.2933    0.8565    0.8043 C   0  0  0  0  0  0  0  0  0  0  0  0
   -1.6336    2.8361   -0.8952 C   0  0  0  0  0  0  0  0  0  0  0  0
   -1.8722    0.0417    1.5323 C   0  0  0  0  0  0  0  0  0  0  0  0
   -5.7165    2.0603   -0.1823 C   0  0  0  0  0  0  0  0  0  0  0  0
   -3.8782    3.2942   -1.2706 C   0  0  0  0  0  0  0  0  0  0  0  0
    0.9812    0.0339   -0.0879 C   0  0  0  0  0  0  0  0  0  0  0  0
    0.9987    1.6180    1.7362 C   0  0  0  0  0  0  0  0  0  0  0  0
    3.0792    0.7341    0.8838 C   0  0  0  0  0  0  0  0  0  0  0  0
    2.3740   -0.0273   -0.0482 C   0  0  0  0  0  0  0  0  0  0  0  0
    2.3915    1.5568    1.7761 C   0  0  0  0  0  0  0  0  0  0  0  0
    5.3477   -0.0891    0.1122 C   0  0  0  0  0  0  0  0  0  0  0  0
    7.8542   -0.4128   -0.0657 C   0  0  0  0  0  0  0  0  0  0  0  0
    9.1039   -0.0596    0.4434 C   0  0  0  0  0  0  0  0  0  0  0  0
   10.2614   -0.6147   -0.1023 C   0  0  0  0  0  0  0  0  0  0  0  0
    7.7619   -1.3212   -1.1201 C   0  0  0  0  0  0  0  0  0  0  0  0
   10.1691   -1.5231   -1.1569 C   0  0  0  0  0  0  0  0  0  0  0  0
    8.9194   -1.8762   -1.6658 C   0  0  0  0  0  0  0  0  0  0  0  0
   11.5980   -0.2345    0.4394 C   0  0  0  0  0  0  0  0  0  0  0  0
   -9.4770   -2.4079   -0.5613 H   0  0  0  0  0  0  0  0  0  0  0  0
   -8.2190   -2.1899   -1.7745 H   0  0  0  0  0  0  0  0  0  0  0  0
   -8.1258   -4.4004   -0.6740 H   0  0  0  0  0  0  0  0  0  0  0  0
   -7.9097   -3.6447    0.8966 H   0  0  0  0  0  0  0  0  0  0  0  0
   -6.8775   -0.8510   -0.1421 H   0  0  0  0  0  0  0  0  0  0  0  0
   -8.1312   -1.0752    1.0803 H   0  0  0  0  0  0  0  0  0  0  0  0
   -5.9382   -3.4081   -1.4304 H   0  0  0  0  0  0  0  0  0  0  0  0
   -5.7161   -2.7368    0.1828 H   0  0  0  0  0  0  0  0  0  0  0  0
   -9.7851    0.0767   -0.4279 H   0  0  0  0  0  0  0  0  0  0  0  0
   -8.5143    0.3164   -1.6267 H   0  0  0  0  0  0  0  0  0  0  0  0
   -5.9647   -5.7143   -0.4740 H   0  0  0  0  0  0  0  0  0  0  0  0
   -5.7689   -5.0547    1.1459 H   0  0  0  0  0  0  0  0  0  0  0  0
   -8.5558    1.4675    1.2162 H   0  0  0  0  0  0  0  0  0  0  0  0
   -8.9106    2.3537   -0.2639 H   0  0  0  0  0  0  0  0  0  0  0  0
   -3.7610   -4.8073   -1.1563 H   0  0  0  0  0  0  0  0  0  0  0  0
   -3.6238   -5.8871    0.2337 H   0  0  0  0  0  0  0  0  0  0  0  0
   -3.5395   -3.9619    1.6491 H   0  0  0  0  0  0  0  0  0  0  0  0
   -2.3272   -3.9609    0.5570 H   0  0  0  0  0  0  0  0  0  0  0  0
   -1.5046   -0.7291    2.1969 H   0  0  0  0  0  0  0  0  0  0  0  0
    0.4453   -0.5647   -0.8210 H   0  0  0  0  0  0  0  0  0  0  0  0
    0.4779    2.2654    2.4378 H   0  0  0  0  0  0  0  0  0  0  0  0
   -4.5790    3.9250   -1.8111 H   0  0  0  0  0  0  0  0  0  0  0  0
    2.8318   -0.6868   -0.7715 H   0  0  0  0  0  0  0  0  0  0  0  0
    2.9283    2.1561    2.5071 H   0  0  0  0  0  0  0  0  0  0  0  0
    0.4880    2.6491   -0.7530 H   0  0  0  0  0  0  0  0  0  0  0  0
   -0.0933    3.8882   -1.8223 H   0  0  0  0  0  0  0  0  0  0  0  0
    4.9152    1.2573    1.6290 H   0  0  0  0  0  0  0  0  0  0  0  0
    6.8279    0.8009    1.2539 H   0  0  0  0  0  0  0  0  0  0  0  0
    9.1771    0.6501    1.2644 H   0  0  0  0  0  0  0  0  0  0  0  0
    6.8342   -1.6452   -1.5694 H   0  0  0  0  0  0  0  0  0  0  0  0
   11.0636   -1.9607   -1.5924 H   0  0  0  0  0  0  0  0  0  0  0  0
    8.8489   -2.5832   -2.4874 H   0  0  0  0  0  0  0  0  0  0  0  0
   12.3242   -1.0438    0.3075 H   0  0  0  0  0  0  0  0  0  0  0  0
   11.5430   -0.0259    1.5133 H   0  0  0  0  0  0  0  0  0  0  0  0
   11.9712    0.6575   -0.0735 H   0  0  0  0  0  0  0  0  0  0  0  0
  1 18  1  0  0  0  0
  1 23  1  0  0  0  0
  2 31  2  0  0  0  0
  3 15  1  0  0  0  0
  3 55  1  0  0  0  0
  3 56  1  0  0  0  0
  4 22  2  0  0  0  0
  4 25  1  0  0  0  0
  5 22  1  0  0  0  0
  5 63  1  0  0  0  0
  5 64  1  0  0  0  0
  6 28  1  0  0  0  0
  6 31  1  0  0  0  0
  6 65  1  0  0  0  0
  7 31  1  0  0  0  0
  7 32  1  0  0  0  0
  7 66  1  0  0  0  0
  8  9  1  0  0  0  0
  8 10  1  0  0  0  0
  8 39  1  0  0  0  0
  8 40  1  0  0  0  0
  9 11  1  0  0  0  0
  9 41  1  0  0  0  0
  9 42  1  0  0  0  0
 10 12  1  0  0  0  0
 10 43  1  0  0  0  0
 10 44  1  0  0  0  0
 11 13  1  0  0  0  0
 11 45  1  0  0  0  0
 11 46  1  0  0  0  0
 12 14  1  0  0  0  0
 12 47  1  0  0  0  0
 12 48  1  0  0  0  0
 13 15  1  0  0  0  0
 13 49  1  0  0  0  0
 13 50  1  0  0  0  0
 14 19  1  0  0  0  0
 14 51  1  0  0  0  0
 14 52  1  0  0  0  0
 15 53  1  0  0  0  0
 15 54  1  0  0  0  0
 16 17  1  0  0  0  0
 16 18  2  0  0  0  0
 16 22  1  0  0  0  0
 17 21  1  0  0  0  0
 17 23  2  0  0  0  0
 18 20  1  0  0  0  0
 19 24  3  0  0  0  0
 20 24  1  0  0  0  0
 20 25  2  0  0  0  0
 21 26  2  0  0  0  0
 21 27  1  0  0  0  0
 23 57  1  0  0  0  0
 25 60  1  0  0  0  0
 26 29  1  0  0  0  0
 26 58  1  0  0  0  0
 27 30  2  0  0  0  0
 27 59  1  0  0  0  0
 28 29  2  0  0  0  0
 28 30  1  0  0  0  0
 29 61  1  0  0  0  0
 30 62  1  0  0  0  0
 32 33  1  0  0  0  0
 32 35  2  0  0  0  0
 33 34  2  0  0  0  0
 33 67  1  0  0  0  0
 34 36  1  0  0  0  0
 34 38  1  0  0  0  0
 35 37  1  0  0  0  0
 35 68  1  0  0  0  0
 36 37  2  0  0  0  0
 36 69  1  0  0  0  0
 37 70  1  0  0  0  0
 38 71  1  0  0  0  0
 38 72  1  0  0  0  0
 38 73  1  0  0  0  0
M  END
> <PUBCHEM_COMPOUND_CID>
49830344

> <PUBCHEM_CONFORMER_RMSD>
1.2

> <PUBCHEM_CONFORMER_DIVERSEORDER>
1
136
62
96
59
115
113
36
31
131
105
130
124
48
120
35
138
84
44
134
137
2
83
42
92
40
38
103
51
125
69
99
135
119
45
98
70
133
116
57
81
100
47
104
53
34
129
30
108
56
132
46
67
88
18
121
54
93
87
128
24
126
118
89
127
94
13
111
110
58
78
39
80
95
107
60
114
61
63
77
68
102
25
64
101
55
37
8
109
97
82
123
66
85
50
10
71
41
90
5
52
106
122
112
17
79
27
14
43
16
76
49
29
72
9
75
117
91
12
26
32
86
11
33
73
74
19
6
28
23
21
15
20
7
22
65
3
4

> <PUBCHEM_MMFF94_PARTIAL_CHARGES>
47
1 -0.08
14 0.2
15 0.27
17 -0.05
18 0.04
19 -0.2
2 -0.57
20 0.07
21 0.05
22 0.41
23 -0.11
24 -0.07
25 0.16
26 -0.15
27 -0.15
28 0.12
29 -0.15
3 -0.99
30 -0.15
31 0.69
32 0.12
33 -0.15
34 -0.14
35 -0.15
36 -0.15
37 -0.15
38 0.14
4 -0.62
5 -0.9
55 0.36
56 0.36
57 0.15
58 0.15
59 0.15
6 -0.55
60 0.15
61 0.15
62 0.15
63 0.4
64 0.4
65 0.37
66 0.37
67 0.15
68 0.15
69 0.15
7 -0.55
70 0.15

> <PUBCHEM_EFFECTIVE_ROTOR_COUNT>
12

> <PUBCHEM_PHARMACOPHORE_FEATURES>
11
1 2 acceptor
1 3 cation
1 3 donor
1 5 donor
1 6 donor
1 7 donor
3 4 5 22 cation
5 1 16 17 18 23 rings
6 21 26 27 28 29 30 rings
6 32 33 34 35 36 37 rings
6 4 16 18 20 22 25 rings

> <PUBCHEM_HEAVY_ATOM_COUNT>
38

> <PUBCHEM_ATOM_DEF_STEREO_COUNT>
0

> <PUBCHEM_ATOM_UDEF_STEREO_COUNT>
0

> <PUBCHEM_BOND_DEF_STEREO_COUNT>
0

> <PUBCHEM_BOND_UDEF_STEREO_COUNT>
0

> <PUBCHEM_ISOTOPIC_ATOM_COUNT>
0

> <PUBCHEM_COMPONENT_COUNT>
1

> <PUBCHEM_CACTVS_TAUTO_COUNT>
6

> <PUBCHEM_CONFORMER_ID>
02F859C800000001

> <PUBCHEM_MMFF94_ENERGY>
87.7386

> <PUBCHEM_FEATURE_SELFOVERLAP>
55.936

> <PUBCHEM_SHAPE_FINGERPRINT>
10076449 9 18411139095537577152
10168742 298 18059588949676859084
10299344 5 14835830752690216244
10677351 14 18338243756282106292
11456790 92 11455880390876648383
11756154 67 18408884066714918125
12013929 2 17988357080308718953
13383665 225 18044378459688863604
13947934 56 18341331180352928714
14415361 349 18334016077163131591
15264996 142 18189066429752434747
15274700 232 18409454695733059983
15461852 350 18335140877705734372
15510794 2 18273214193034041312
16989713 51 18409450314792123390
21792965 68 10159711161956668011
23576562 1 18260831540227143284
4017518 198 18413106135816229543
4339292 15 18410853287413144210
44280117 145 18410014342919323764
4516262 110 14706931727194720736
45377200 153 18411699898001783715
4625314 4 18411701023467720768
5028188 123 18410009902124060765
57676310 188 18334290930033774723
6691757 9 17096101203085699297

> <PUBCHEM_SHAPE_MULTIPOLES>
755.1
36.93
5.08
1.33
81.89
6.09
-0.09
24.05
8.54
-15.68
1.31
0.91
-0.55
2.66

> <PUBCHEM_SHAPE_SELFOVERLAP>
1592.438

> <PUBCHEM_SHAPE_VOLUME>
424.2

> <PUBCHEM_COORDINATE_TYPE>
2
5
10

$$$$
