11544961
  -OEChem-10062121573D

 45 48  0     0  0  0  0  0  0999 V2000
    2.5409   -0.0590    1.2358 O   0  0  0  0  0  0  0  0  0  0  0  0
   -6.6055    1.4819    0.2088 N   0  0  0  0  0  0  0  0  0  0  0  0
   -5.7050    2.4419   -0.0628 N   0  0  0  0  0  0  0  0  0  0  0  0
   -5.8475   -2.1088    0.5480 N   0  0  0  0  0  0  0  0  0  0  0  0
    1.6505   -0.3806   -0.9074 N   0  0  0  0  0  0  0  0  0  0  0  0
   -3.3504    2.3326   -0.4352 N   0  0  0  0  0  0  0  0  0  0  0  0
    3.9337   -0.1542   -0.6405 N   0  0  0  0  0  0  0  0  0  0  0  0
   -4.7157    0.3804    0.0413 C   0  0  0  0  0  0  0  0  0  0  0  0
   -3.8873   -0.7461    0.0510 C   0  0  0  0  0  0  0  0  0  0  0  0
   -2.4718   -0.6525   -0.1940 C   0  0  0  0  0  0  0  0  0  0  0  0
   -6.0750    0.2240    0.2843 C   0  0  0  0  0  0  0  0  0  0  0  0
   -4.5567    1.7678   -0.1639 C   0  0  0  0  0  0  0  0  0  0  0  0
   -1.9735   -0.7589   -1.4964 C   0  0  0  0  0  0  0  0  0  0  0  0
   -1.5842   -0.4542    0.8685 C   0  0  0  0  0  0  0  0  0  0  0  0
   -4.5220   -1.9549    0.3110 C   0  0  0  0  0  0  0  0  0  0  0  0
    0.2786   -0.4711   -0.6699 C   0  0  0  0  0  0  0  0  0  0  0  0
   -6.6452   -1.0141    0.5375 C   0  0  0  0  0  0  0  0  0  0  0  0
   -0.6017   -0.6684   -1.7338 C   0  0  0  0  0  0  0  0  0  0  0  0
   -0.2125   -0.3639    0.6312 C   0  0  0  0  0  0  0  0  0  0  0  0
    5.2210    0.0203   -0.0799 C   0  0  0  0  0  0  0  0  0  0  0  0
    2.6979   -0.1840    0.0255 C   0  0  0  0  0  0  0  0  0  0  0  0
    7.5974    0.1942   -0.3587 C   0  0  0  0  0  0  0  0  0  0  0  0
    6.3285    0.0216   -0.9119 C   0  0  0  0  0  0  0  0  0  0  0  0
    5.3467    0.1870    1.2896 C   0  0  0  0  0  0  0  0  0  0  0  0
    7.7413    0.3627    1.0185 C   0  0  0  0  0  0  0  0  0  0  0  0
    6.6158    0.3593    1.8426 C   0  0  0  0  0  0  0  0  0  0  0  0
    8.8014    0.1971   -1.2394 C   0  0  0  0  0  0  0  0  0  0  0  0
   -2.6452   -0.9124   -2.3380 H   0  0  0  0  0  0  0  0  0  0  0  0
   -1.9510   -0.3678    1.8890 H   0  0  0  0  0  0  0  0  0  0  0  0
   -3.9592   -2.8849    0.3386 H   0  0  0  0  0  0  0  0  0  0  0  0
   -7.5726    1.7549    0.3320 H   0  0  0  0  0  0  0  0  0  0  0  0
   -7.6992   -1.1626    0.7294 H   0  0  0  0  0  0  0  0  0  0  0  0
   -0.2328   -0.7533   -2.7528 H   0  0  0  0  0  0  0  0  0  0  0  0
    0.4020   -0.2103    1.5067 H   0  0  0  0  0  0  0  0  0  0  0  0
    1.9320   -0.4680   -1.8807 H   0  0  0  0  0  0  0  0  0  0  0  0
   -2.4795    1.8216   -0.5120 H   0  0  0  0  0  0  0  0  0  0  0  0
   -3.2610    3.3339   -0.5795 H   0  0  0  0  0  0  0  0  0  0  0  0
    6.2150   -0.1084   -1.9853 H   0  0  0  0  0  0  0  0  0  0  0  0
    3.9096   -0.2713   -1.6504 H   0  0  0  0  0  0  0  0  0  0  0  0
    4.5293    0.1965    1.9946 H   0  0  0  0  0  0  0  0  0  0  0  0
    8.7243    0.4995    1.4613 H   0  0  0  0  0  0  0  0  0  0  0  0
    6.7290    0.4913    2.9148 H   0  0  0  0  0  0  0  0  0  0  0  0
    8.6587   -0.4597   -2.1042 H   0  0  0  0  0  0  0  0  0  0  0  0
    9.0021    1.2116   -1.5977 H   0  0  0  0  0  0  0  0  0  0  0  0
    9.6850   -0.1666   -0.7037 H   0  0  0  0  0  0  0  0  0  0  0  0
  1 21  2  0  0  0  0
  2  3  1  0  0  0  0
  2 11  1  0  0  0  0
  2 31  1  0  0  0  0
  3 12  2  0  0  0  0
  4 15  1  0  0  0  0
  4 17  2  0  0  0  0
  5 16  1  0  0  0  0
  5 21  1  0  0  0  0
  5 35  1  0  0  0  0
  6 12  1  0  0  0  0
  6 36  1  0  0  0  0
  6 37  1  0  0  0  0
  7 20  1  0  0  0  0
  7 21  1  0  0  0  0
  7 39  1  0  0  0  0
  8  9  1  0  0  0  0
  8 11  2  0  0  0  0
  8 12  1  0  0  0  0
  9 10  1  0  0  0  0
  9 15  2  0  0  0  0
 10 13  2  0  0  0  0
 10 14  1  0  0  0  0
 11 17  1  0  0  0  0
 13 18  1  0  0  0  0
 13 28  1  0  0  0  0
 14 19  2  0  0  0  0
 14 29  1  0  0  0  0
 15 30  1  0  0  0  0
 16 18  2  0  0  0  0
 16 19  1  0  0  0  0
 17 32  1  0  0  0  0
 18 33  1  0  0  0  0
 19 34  1  0  0  0  0
 20 23  1  0  0  0  0
 20 24  2  0  0  0  0
 22 23  2  0  0  0  0
 22 25  1  0  0  0  0
 22 27  1  0  0  0  0
 23 38  1  0  0  0  0
 24 26  1  0  0  0  0
 24 40  1  0  0  0  0
 25 26  2  0  0  0  0
 25 41  1  0  0  0  0
 26 42  1  0  0  0  0
 27 43  1  0  0  0  0
 27 44  1  0  0  0  0
 27 45  1  0  0  0  0
M  END
> <PUBCHEM_COMPOUND_CID>
11544961

> <PUBCHEM_CONFORMER_RMSD>
0.8

> <PUBCHEM_CONFORMER_DIVERSEORDER>
1
12
14
11
18
6
13
16
9
10
3
19
17
4
15
7
2
5
8

> <PUBCHEM_MMFF94_PARTIAL_CHARGES>
39
1 -0.57
11 -0.15
12 0.37
13 -0.15
14 -0.15
15 0.16
16 0.12
17 0.16
18 -0.15
19 -0.15
2 0.3
20 0.12
21 0.69
22 -0.14
23 -0.15
24 -0.15
25 -0.15
26 -0.15
27 0.14
28 0.15
29 0.15
3 -0.71
30 0.15
31 0.27
32 0.15
33 0.15
34 0.15
35 0.37
36 0.4
37 0.4
38 0.15
39 0.37
4 -0.62
40 0.15
41 0.15
42 0.15
5 -0.55
6 -0.88
7 -0.55

> <PUBCHEM_EFFECTIVE_ROTOR_COUNT>
5

> <PUBCHEM_PHARMACOPHORE_FEATURES>
11
1 1 acceptor
1 2 donor
1 4 acceptor
1 5 donor
1 6 donor
1 7 donor
3 3 6 12 cation
5 2 3 8 11 12 rings
6 10 13 14 16 18 19 rings
6 20 22 23 24 25 26 rings
6 4 8 9 11 15 17 rings

> <PUBCHEM_HEAVY_ATOM_COUNT>
27

> <PUBCHEM_ATOM_DEF_STEREO_COUNT>
0

> <PUBCHEM_ATOM_UDEF_STEREO_COUNT>
0

> <PUBCHEM_BOND_DEF_STEREO_COUNT>
0

> <PUBCHEM_BOND_UDEF_STEREO_COUNT>
0

> <PUBCHEM_ISOTOPIC_ATOM_COUNT>
0

> <PUBCHEM_COMPONENT_COUNT>
1

> <PUBCHEM_CACTVS_TAUTO_COUNT>
27

> <PUBCHEM_CONFORMER_ID>
00B0298100000001

> <PUBCHEM_MMFF94_ENERGY>
83.6587

> <PUBCHEM_FEATURE_SELFOVERLAP>
55.968

> <PUBCHEM_SHAPE_FINGERPRINT>
10 15 18272930531270422646
10299344 5 17603303761215803906
10319926 262 18410285951859906793
10411042 1 18048883189810504787
106641 1 16443355273384997633
11315181 36 17676489471453408843
12091667 2 18272931639720170759
12236239 1 17530684307945674691
13403585 85 18411699885707198705
13533116 47 16950554468703741632
13668630 136 10737282429593500904
13885169 127 18408888425637212038
13911987 19 16630239222050887701
14028597 1 17458618965803186808
14251764 18 17458063776955239334
14849402 71 17604438513024578724
14856354 85 18260269689553169255
14933364 13 18413108364239078512
15021287 119 16732706055979700007
15183329 4 16950278525254556730
15328684 2 17749940064924952056
15419008 47 17988921167674126472
15716309 27 16443060595309365390
1577012 14 17749106677996563504
15849732 13 18060702805804579116
15927050 60 17989483043833411718
17780758 139 17748828531941501019
19377110 9 17313096428517992336
20281389 69 17775283880969298066
21033648 29 17846202371869846969
21130935 74 18040148505586883602
21150785 3 11095879389549045498
21315759 40 17095524019404526998
21521721 280 16298390184728262968
21792961 116 17703796877942918790
22224240 67 16805323314690384602
23081809 10 17458348558856483494
23522609 53 17168729460927697348
23559900 14 18196670509924561615
23576562 1 17202744013017125485
2838139 119 15195567909432823178
3663271 9 18040711450949340578
397830 11 17844523529653063490
4073 2 18041005033355222754
4339292 15 17917141823598878359
504843 32 16128366133786342502
5758199 1 17530685416258266514
58260988 114 15286220505256979259
6669772 16 16773526494360211415
6691757 9 18186807989787453755
9953998 17 17917999408456250779

> <PUBCHEM_SHAPE_MULTIPOLES>
519.89
25.33
1.58
1.32
33.36
0.63
0
4.14
2.49
-4.44
-0.06
1.89
-0.12
1.07

> <PUBCHEM_SHAPE_SELFOVERLAP>
1156.846

> <PUBCHEM_SHAPE_VOLUME>
277.4

> <PUBCHEM_COORDINATE_TYPE>
2
5
10

$$$$
