19959069
  -OEChem-10062121593D

 45 48  0     0  0  0  0  0  0999 V2000
   -2.3665   -3.6349    0.2051 O   0  0  0  0  0  0  0  0  0  0  0  0
   -0.4285    5.8278   -0.2577 O   0  0  0  0  0  0  0  0  0  0  0  0
   -5.3208   -0.7671   -0.3674 O   0  0  0  0  0  0  0  0  0  0  0  0
   -1.3315    0.3179   -0.1679 N   0  0  0  0  0  0  0  0  0  0  0  0
   -4.8178   -3.0054   -0.1044 N   0  0  0  0  0  0  0  0  0  0  0  0
    6.1579   -0.2158   -0.0783 N   0  0  0  0  0  0  0  0  0  0  0  0
   -0.2936   -0.6690   -0.0459 C   0  0  0  0  0  0  0  0  0  0  0  0
   -0.6261   -2.0354    0.0838 C   0  0  0  0  0  0  0  0  0  0  0  0
   -1.1007    1.7326   -0.1763 C   0  0  0  0  0  0  0  0  0  0  0  0
    1.0736   -0.3379   -0.0918 C   0  0  0  0  0  0  0  0  0  0  0  0
   -2.6471   -0.1363   -0.2356 C   0  0  0  0  0  0  0  0  0  0  0  0
    2.0625   -1.3189    0.0292 C   0  0  0  0  0  0  0  0  0  0  0  0
   -2.0474   -2.4608    0.0655 C   0  0  0  0  0  0  0  0  0  0  0  0
   -3.0638   -1.4040   -0.1379 C   0  0  0  0  0  0  0  0  0  0  0  0
   -1.1019    2.4632    1.0119 C   0  0  0  0  0  0  0  0  0  0  0  0
    0.3663   -3.0177    0.2073 C   0  0  0  0  0  0  0  0  0  0  0  0
    1.7095   -2.6547    0.1852 C   0  0  0  0  0  0  0  0  0  0  0  0
   -0.8736    2.3782   -1.3918 C   0  0  0  0  0  0  0  0  0  0  0  0
    3.4595   -0.9424   -0.0078 C   0  0  0  0  0  0  0  0  0  0  0  0
   -0.8760    3.8393    0.9847 C   0  0  0  0  0  0  0  0  0  0  0  0
   -1.3424    1.7974    2.3277 C   0  0  0  0  0  0  0  0  0  0  0  0
   -0.6478    3.7544   -1.4191 C   0  0  0  0  0  0  0  0  0  0  0  0
   -0.6489    4.4849   -0.2308 C   0  0  0  0  0  0  0  0  0  0  0  0
   -4.5010   -1.6713   -0.2161 C   0  0  0  0  0  0  0  0  0  0  0  0
    4.4086   -1.8296   -0.5033 C   0  0  0  0  0  0  0  0  0  0  0  0
    3.8580    0.3077    0.4524 C   0  0  0  0  0  0  0  0  0  0  0  0
    5.7328   -1.4219   -0.5169 C   0  0  0  0  0  0  0  0  0  0  0  0
    5.2069    0.6198    0.3962 C   0  0  0  0  0  0  0  0  0  0  0  0
    1.3481    0.7021   -0.2475 H   0  0  0  0  0  0  0  0  0  0  0  0
   -3.3533    0.6791   -0.3689 H   0  0  0  0  0  0  0  0  0  0  0  0
    0.1104   -4.0679    0.3194 H   0  0  0  0  0  0  0  0  0  0  0  0
    2.4441   -3.4449    0.3129 H   0  0  0  0  0  0  0  0  0  0  0  0
   -0.8700    1.8198   -2.3244 H   0  0  0  0  0  0  0  0  0  0  0  0
   -0.8763    4.4129    1.9085 H   0  0  0  0  0  0  0  0  0  0  0  0
   -2.3454    1.3604    2.3618 H   0  0  0  0  0  0  0  0  0  0  0  0
   -0.5978    1.0158    2.5092 H   0  0  0  0  0  0  0  0  0  0  0  0
   -1.2706    2.5062    3.1601 H   0  0  0  0  0  0  0  0  0  0  0  0
   -0.4714    4.2516   -2.3689 H   0  0  0  0  0  0  0  0  0  0  0  0
    4.1638   -2.8071   -0.9042 H   0  0  0  0  0  0  0  0  0  0  0  0
    3.1768    1.0354    0.8798 H   0  0  0  0  0  0  0  0  0  0  0  0
    6.5111   -2.0737   -0.9001 H   0  0  0  0  0  0  0  0  0  0  0  0
    5.5707    1.5790    0.7499 H   0  0  0  0  0  0  0  0  0  0  0  0
   -4.1444   -3.7524    0.0156 H   0  0  0  0  0  0  0  0  0  0  0  0
   -5.7885   -3.2996   -0.1448 H   0  0  0  0  0  0  0  0  0  0  0  0
   -0.4640    6.1718    0.6514 H   0  0  0  0  0  0  0  0  0  0  0  0
  1 13  2  0  0  0  0
  2 23  1  0  0  0  0
  2 45  1  0  0  0  0
  3 24  2  0  0  0  0
  4  7  1  0  0  0  0
  4  9  1  0  0  0  0
  4 11  1  0  0  0  0
  5 24  1  0  0  0  0
  5 43  1  0  0  0  0
  5 44  1  0  0  0  0
  6 27  2  0  0  0  0
  6 28  1  0  0  0  0
  7  8  2  0  0  0  0
  7 10  1  0  0  0  0
  8 13  1  0  0  0  0
  8 16  1  0  0  0  0
  9 15  2  0  0  0  0
  9 18  1  0  0  0  0
 10 12  2  0  0  0  0
 10 29  1  0  0  0  0
 11 14  2  0  0  0  0
 11 30  1  0  0  0  0
 12 17  1  0  0  0  0
 12 19  1  0  0  0  0
 13 14  1  0  0  0  0
 14 24  1  0  0  0  0
 15 20  1  0  0  0  0
 15 21  1  0  0  0  0
 16 17  2  0  0  0  0
 16 31  1  0  0  0  0
 17 32  1  0  0  0  0
 18 22  2  0  0  0  0
 18 33  1  0  0  0  0
 19 25  2  0  0  0  0
 19 26  1  0  0  0  0
 20 23  2  0  0  0  0
 20 34  1  0  0  0  0
 21 35  1  0  0  0  0
 21 36  1  0  0  0  0
 21 37  1  0  0  0  0
 22 23  1  0  0  0  0
 22 38  1  0  0  0  0
 25 27  1  0  0  0  0
 25 39  1  0  0  0  0
 26 28  2  0  0  0  0
 26 40  1  0  0  0  0
 27 41  1  0  0  0  0
 28 42  1  0  0  0  0
M  END
> <PUBCHEM_COMPOUND_CID>
19959069

> <PUBCHEM_CONFORMER_RMSD>
0.8

> <PUBCHEM_CONFORMER_DIVERSEORDER>
2
4
3
1

> <PUBCHEM_MMFF94_PARTIAL_CHARGES>
40
1 -0.57
10 -0.15
11 -0.05
13 0.47
14 0.03
15 -0.14
16 -0.15
17 -0.15
18 -0.15
2 -0.53
20 -0.15
21 0.14
22 -0.15
23 0.08
24 0.62
25 -0.15
26 -0.15
27 0.16
28 0.16
29 0.15
3 -0.57
30 0.15
31 0.15
32 0.15
33 0.15
34 0.15
38 0.15
39 0.15
4 -0.3
40 0.15
41 0.15
42 0.15
43 0.37
44 0.37
45 0.45
5 -0.8
6 -0.62
7 0.1
8 0.09
9 0.1

> <PUBCHEM_EFFECTIVE_ROTOR_COUNT>
3

> <PUBCHEM_PHARMACOPHORE_FEATURES>
10
1 1 acceptor
1 2 donor
1 3 acceptor
1 4 cation
1 5 donor
1 6 acceptor
6 4 7 8 11 13 14 rings
6 6 19 25 26 27 28 rings
6 7 8 10 12 16 17 rings
6 9 15 18 20 22 23 rings

> <PUBCHEM_HEAVY_ATOM_COUNT>
28

> <PUBCHEM_ATOM_DEF_STEREO_COUNT>
0

> <PUBCHEM_ATOM_UDEF_STEREO_COUNT>
0

> <PUBCHEM_BOND_DEF_STEREO_COUNT>
0

> <PUBCHEM_BOND_UDEF_STEREO_COUNT>
0

> <PUBCHEM_ISOTOPIC_ATOM_COUNT>
0

> <PUBCHEM_COMPONENT_COUNT>
1

> <PUBCHEM_CACTVS_TAUTO_COUNT>
12

> <PUBCHEM_CONFORMER_ID>
01308D1D00000002

> <PUBCHEM_MMFF94_ENERGY>
108.2037

> <PUBCHEM_FEATURE_SELFOVERLAP>
50.77

> <PUBCHEM_SHAPE_FINGERPRINT>
10006869 2 18193265309338513063
10165383 225 17910126715515945312
10411042 1 18338237175311417399
10670039 82 18337125497132464644
10937287 8 17617657661846161556
1100329 8 18193560188707668627
11045515 52 18335699472678212541
11049842 53 16817713972600444461
12107183 9 17541087672736986866
12403259 226 18342453734295839306
12788726 201 18260541186967242082
13140716 1 18336557113185934042
138480 1 15528268729270915164
14347332 77 18339920407961223606
14955137 171 18264784318688211211
15439362 3 17833542771714607381
15961568 22 18267022941995685500
16087824 20 18266178341214766701
167882 2 17760927742276253503
17980427 23 17774737445381563763
19611394 137 17393047657646291250
20510252 161 18340483378908965834
20600515 1 18270696353913093015
21049683 271 18116156760682267919
21304253 13 18412266168597459281
21641784 216 18339098046235250460
21927370 108 18264790868107065018
22122407 14 15213600974398123854
221357 26 18272934908533323630
23366157 5 17539398139311712211
23557571 272 18341617005683487774
23558518 356 18045509612150506154
23559900 14 18122332739324412131
23845131 108 17616823132658122217
24771750 20 17542230502533926669
25019877 29 16988288697634814942
266924 87 18267297621627492591
283562 15 18336544919605118522
3178227 256 18263939881474772139
350125 39 18050571733413982298
469060 322 18409455769126003896
474 4 16899045367313297832
5252454 2 17831595171528367100
6004065 56 18197206173602773287
6677587 24 15077013927298681549
7399639 24 18202555194951143974
9981440 41 17615966608615148704

> <PUBCHEM_SHAPE_MULTIPOLES>
543.68
9.49
6.19
1.08
12.5
7.67
0.32
-6.73
-0.87
-6.05
-0.43
-0.43
1.02
0.06

> <PUBCHEM_SHAPE_SELFOVERLAP>
1216.764

> <PUBCHEM_SHAPE_VOLUME>
286

> <PUBCHEM_COORDINATE_TYPE>
2
5
10

$$$$
