11396738
  -OEChem-10062122033D

 57 61  0     1  0  0  0  0  0999 V2000
    8.3435    2.9454    0.1815 F   0  0  0  0  0  0  0  0  0  0  0  0
    0.5543   -5.5888   -0.9147 O   0  0  0  0  0  0  0  0  0  0  0  0
   -3.0707   -2.0562   -0.0734 O   0  0  0  0  0  0  0  0  0  0  0  0
   -7.9014    1.8480    0.5854 O   0  0  0  0  0  0  0  0  0  0  0  0
   -0.8606   -1.4074   -0.1185 N   0  0  0  0  0  0  0  0  0  0  0  0
   -2.6133    0.2272   -0.2181 N   0  0  0  0  0  0  0  0  0  0  0  0
    1.4460   -0.7301    0.0093 N   0  0  0  0  0  0  0  0  0  0  0  0
    2.0659    1.5749   -0.2742 N   0  0  0  0  0  0  0  0  0  0  0  0
    3.6909   -0.0612    0.1455 N   0  0  0  0  0  0  0  0  0  0  0  0
   -0.3993   -2.7596    0.0157 C   0  0  1  0  0  0  0  0  0  0  0  0
    0.5406   -3.1782   -1.1105 C   0  0  0  0  0  0  0  0  0  0  0  0
    0.4512   -2.9724    1.2612 C   0  0  0  0  0  0  0  0  0  0  0  0
    1.2553   -4.4047   -0.5488 C   0  0  1  0  0  0  0  0  0  0  0  0
    1.2482   -4.2441    0.9749 C   0  0  0  0  0  0  0  0  0  0  0  0
    0.1428   -0.3991   -0.1688 C   0  0  0  0  0  0  0  0  0  0  0  0
   -2.2451   -1.1375   -0.1330 C   0  0  0  0  0  0  0  0  0  0  0  0
   -0.2484    0.9018   -0.4088 C   0  0  0  0  0  0  0  0  0  0  0  0
   -1.6656    1.2397   -0.6956 C   0  0  0  0  0  0  0  0  0  0  0  0
   -3.9832    0.6468   -0.0105 C   0  0  0  0  0  0  0  0  0  0  0  0
    0.7612    1.8516   -0.4592 C   0  0  0  0  0  0  0  0  0  0  0  0
    2.3348    0.2796   -0.0489 C   0  0  0  0  0  0  0  0  0  0  0  0
   -4.8040   -0.0821    0.8424 C   0  0  0  0  0  0  0  0  0  0  0  0
   -4.4643    1.7745   -0.6658 C   0  0  0  0  0  0  0  0  0  0  0  0
   -6.1239    0.3222    1.0426 C   0  0  0  0  0  0  0  0  0  0  0  0
   -5.7842    2.1788   -0.4654 C   0  0  0  0  0  0  0  0  0  0  0  0
   -6.6140    1.4526    0.3888 C   0  0  0  0  0  0  0  0  0  0  0  0
    4.8733    0.7024    0.1544 C   0  0  0  0  0  0  0  0  0  0  0  0
    5.9559    0.3080    0.9430 C   0  0  0  0  0  0  0  0  0  0  0  0
    4.9670    1.8572   -0.6251 C   0  0  0  0  0  0  0  0  0  0  0  0
    7.1273    1.0654    0.9523 C   0  0  0  0  0  0  0  0  0  0  0  0
    6.1384    2.6144   -0.6159 C   0  0  0  0  0  0  0  0  0  0  0  0
   -8.3372    3.0125   -0.1145 C   0  0  0  0  0  0  0  0  0  0  0  0
    7.2186    2.2185    0.1728 C   0  0  0  0  0  0  0  0  0  0  0  0
   -1.2435   -3.4599    0.0445 H   0  0  0  0  0  0  0  0  0  0  0  0
   -0.0384   -3.4152   -2.0114 H   0  0  0  0  0  0  0  0  0  0  0  0
    1.2880   -2.4468   -1.4185 H   0  0  0  0  0  0  0  0  0  0  0  0
   -0.2025   -3.1286    2.1291 H   0  0  0  0  0  0  0  0  0  0  0  0
    1.1319   -2.1854    1.5816 H   0  0  0  0  0  0  0  0  0  0  0  0
    2.2758   -4.4916   -0.9359 H   0  0  0  0  0  0  0  0  0  0  0  0
    2.2683   -4.1358    1.3598 H   0  0  0  0  0  0  0  0  0  0  0  0
    0.7947   -5.1094    1.4711 H   0  0  0  0  0  0  0  0  0  0  0  0
    0.5684   -5.6482   -1.8853 H   0  0  0  0  0  0  0  0  0  0  0  0
   -1.8905    2.1944   -0.2047 H   0  0  0  0  0  0  0  0  0  0  0  0
   -1.7943    1.3357   -1.7803 H   0  0  0  0  0  0  0  0  0  0  0  0
    0.5413    2.8946   -0.6648 H   0  0  0  0  0  0  0  0  0  0  0  0
   -4.4512   -0.9323    1.4166 H   0  0  0  0  0  0  0  0  0  0  0  0
   -3.8606    2.3554   -1.3561 H   0  0  0  0  0  0  0  0  0  0  0  0
    3.8098   -1.0250    0.4430 H   0  0  0  0  0  0  0  0  0  0  0  0
   -6.7624   -0.2396    1.7191 H   0  0  0  0  0  0  0  0  0  0  0  0
   -6.1018    3.0627   -1.0079 H   0  0  0  0  0  0  0  0  0  0  0  0
    5.8976   -0.5880    1.5559 H   0  0  0  0  0  0  0  0  0  0  0  0
    4.1691    2.1789   -1.2861 H   0  0  0  0  0  0  0  0  0  0  0  0
    7.9685    0.7576    1.5663 H   0  0  0  0  0  0  0  0  0  0  0  0
    6.2137    3.5071   -1.2297 H   0  0  0  0  0  0  0  0  0  0  0  0
   -8.3108    2.8633   -1.1993 H   0  0  0  0  0  0  0  0  0  0  0  0
   -7.7780    3.9016    0.1961 H   0  0  0  0  0  0  0  0  0  0  0  0
   -9.3838    3.1813    0.1594 H   0  0  0  0  0  0  0  0  0  0  0  0
  1 33  1  0  0  0  0
  2 13  1  0  0  0  0
  2 42  1  0  0  0  0
  3 16  2  0  0  0  0
  4 26  1  0  0  0  0
  4 32  1  0  0  0  0
  5 10  1  0  0  0  0
  5 15  1  0  0  0  0
  5 16  1  0  0  0  0
  6 16  1  0  0  0  0
  6 18  1  0  0  0  0
  6 19  1  0  0  0  0
  7 15  2  0  0  0  0
  7 21  1  0  0  0  0
  8 20  1  0  0  0  0
  8 21  2  0  0  0  0
  9 21  1  0  0  0  0
  9 27  1  0  0  0  0
  9 48  1  0  0  0  0
 10 11  1  0  0  0  0
 10 12  1  0  0  0  0
 10 34  1  0  0  0  0
 11 13  1  0  0  0  0
 11 35  1  0  0  0  0
 11 36  1  0  0  0  0
 12 14  1  0  0  0  0
 12 37  1  0  0  0  0
 12 38  1  0  0  0  0
 13 14  1  0  0  0  0
 13 39  1  0  0  0  0
 14 40  1  0  0  0  0
 14 41  1  0  0  0  0
 15 17  1  0  0  0  0
 17 18  1  0  0  0  0
 17 20  2  0  0  0  0
 18 43  1  0  0  0  0
 18 44  1  0  0  0  0
 19 22  2  0  0  0  0
 19 23  1  0  0  0  0
 20 45  1  0  0  0  0
 22 24  1  0  0  0  0
 22 46  1  0  0  0  0
 23 25  2  0  0  0  0
 23 47  1  0  0  0  0
 24 26  2  0  0  0  0
 24 49  1  0  0  0  0
 25 26  1  0  0  0  0
 25 50  1  0  0  0  0
 27 28  2  0  0  0  0
 27 29  1  0  0  0  0
 28 30  1  0  0  0  0
 28 51  1  0  0  0  0
 29 31  2  0  0  0  0
 29 52  1  0  0  0  0
 30 33  2  0  0  0  0
 30 53  1  0  0  0  0
 31 33  1  0  0  0  0
 31 54  1  0  0  0  0
 32 55  1  0  0  0  0
 32 56  1  0  0  0  0
 32 57  1  0  0  0  0
M  END
> <PUBCHEM_COMPOUND_CID>
11396738

> <PUBCHEM_CONFORMER_RMSD>
0.8

> <PUBCHEM_CONFORMER_DIVERSEORDER>
1
30
13
28
22
24
5
21
36
10
38
20
18
4
40
31
19
23
6
39
12
11
15
7
26
17
35
3
37
34
8
9
25
29
2
32
14
16
27
33

> <PUBCHEM_MMFF94_PARTIAL_CHARGES>
41
1 -0.19
10 0.3
13 0.28
15 0.43
16 0.69
17 -0.14
18 0.44
19 0.12
2 -0.68
20 0.16
21 0.72
22 -0.15
23 -0.15
24 -0.15
25 -0.15
26 0.08
27 0.1
28 -0.15
29 -0.15
3 -0.57
30 -0.15
31 -0.15
32 0.28
33 0.19
4 -0.36
42 0.4
45 0.15
46 0.15
47 0.15
48 0.4
49 0.15
5 -0.48
50 0.15
51 0.15
52 0.15
53 0.15
54 0.15
6 -0.48
7 -0.62
8 -0.62
9 -0.6

> <PUBCHEM_EFFECTIVE_ROTOR_COUNT>
6.6

> <PUBCHEM_PHARMACOPHORE_FEATURES>
11
1 2 acceptor
1 2 donor
1 3 acceptor
1 4 acceptor
1 9 donor
4 7 8 9 21 cation
5 10 11 12 13 14 rings
6 19 22 23 24 25 26 rings
6 27 28 29 30 31 33 rings
6 5 6 15 16 17 18 rings
6 7 8 15 17 20 21 rings

> <PUBCHEM_HEAVY_ATOM_COUNT>
33

> <PUBCHEM_ATOM_DEF_STEREO_COUNT>
2

> <PUBCHEM_ATOM_UDEF_STEREO_COUNT>
0

> <PUBCHEM_BOND_DEF_STEREO_COUNT>
0

> <PUBCHEM_BOND_UDEF_STEREO_COUNT>
0

> <PUBCHEM_ISOTOPIC_ATOM_COUNT>
0

> <PUBCHEM_COMPONENT_COUNT>
1

> <PUBCHEM_CACTVS_TAUTO_COUNT>
3

> <PUBCHEM_CONFORMER_ID>
00ADE68200000001

> <PUBCHEM_MMFF94_ENERGY>
136.2154

> <PUBCHEM_FEATURE_SELFOVERLAP>
55.851

> <PUBCHEM_SHAPE_FINGERPRINT>
10 15 18186803590712384961
10190206 1 18198890586998964047
10369192 42 18334574646360447533
10411042 1 17401204968077037086
10939801 23 18259984907683976540
10940486 97 18118968237763962028
11135926 11 18337100190700035141
11297750 10 17268624717648377019
11411753 3 17825396176995935197
11445158 3 17604152652558561949
11719270 70 18410572855580457105
12539765 74 18201446873896986732
12838862 33 18338220610213484813
13140716 1 18337393863378714537
13248334 5 18123472682999281510
13673619 4 12107779727569084252
14040222 383 18340763862032801731
14294032 229 18199751508534910843
14394314 77 18334291015711457008
14790565 3 18336547213349594268
15420108 30 18340476833447976103
15439362 3 18339644434357395879
15890870 6 18411700997608577296
15927050 60 18411699915583092366
16992610 120 18261688056022820844
19315958 150 18413392051841494776
20505436 4 17988920059830338263
20554085 129 18131058325513961178
20691028 202 18267864059300430576
21033648 29 18271513312638592016
21781055 127 18131070382278406552
22224240 67 18409165515410199857
22311459 1 18410572869109671261
23523787 8 15985100816843986972
23559900 14 18118969097321410003
249057 3 18408886253217314036
249999 5 18338516309657513354
25019877 29 18410011052583628582
3178227 256 18336558182886381921
3411729 13 18335701590086825923
38695281 34 18412261735590375350
4073 2 18334301942671968323
4093350 32 17489025938066999591
4403749 210 18338515369111851633
4408954 64 15941223890346392066
4516262 110 18339916027368641837
5104073 3 18118417146884950249
5109719 28 18410867546619995689
5219985 13 18410292532071875766
5219985 9 9007062374333793662
5265222 85 18265901430896761004
5385378 56 18339364054892140689
54039377 194 9007051375693474625
563151 97 18340477942002979207
5758199 1 18341896281774307025
6058803 2 17755297113629975956
6371380 46 18272085054268937144
6669772 16 18343308045961521694
7226269 152 18202004360546700464
9896288 288 18116999003622360170

> <PUBCHEM_SHAPE_MULTIPOLES>
629.34
20.3
5.33
0.96
2.74
8.67
0.08
-29.86
4.41
-2.88
-0.91
-0.09
0.38
0.12

> <PUBCHEM_SHAPE_SELFOVERLAP>
1384.173

> <PUBCHEM_SHAPE_VOLUME>
338.4

> <PUBCHEM_COORDINATE_TYPE>
2
5
10

$$$$
