25205759
  -OEChem-10052120433D

 37 39  0     0  0  0  0  0  0999 V2000
   -4.5584   -1.2049    1.6674 F   0  0  0  0  0  0  0  0  0  0  0  0
   -3.1778    0.3585    2.2621 F   0  0  0  0  0  0  0  0  0  0  0  0
   -4.7764    0.8006    0.8557 F   0  0  0  0  0  0  0  0  0  0  0  0
    0.4063    3.9858   -0.5363 O   0  0  0  0  0  0  0  0  0  0  0  0
    2.3239    3.4158    1.7695 O   0  0  0  0  0  0  0  0  0  0  0  0
    0.8854    1.0945   -1.8585 N   0  0  0  0  0  0  0  0  0  0  0  0
    2.9999    0.4705    0.6826 N   0  0  0  0  0  0  0  0  0  0  0  0
    2.5877   -3.7063    0.2663 N   0  0  0  0  0  0  0  0  0  0  0  0
    1.3655    1.6729   -0.7838 C   0  0  0  0  0  0  0  0  0  0  0  0
    2.2192    1.4198    0.2412 C   0  0  0  0  0  0  0  0  0  0  0  0
   -0.4966    1.2149   -2.2698 C   0  0  0  0  0  0  0  0  0  0  0  0
   -1.3377    0.1628   -1.6298 C   0  0  0  0  0  0  0  0  0  0  0  0
    1.0649    3.0117   -0.2815 C   0  0  0  0  0  0  0  0  0  0  0  0
    1.9929    2.7361    0.8335 C   0  0  0  0  0  0  0  0  0  0  0  0
   -2.1698    0.4902   -0.5593 C   0  0  0  0  0  0  0  0  0  0  0  0
   -1.2927   -1.1487   -2.1026 C   0  0  0  0  0  0  0  0  0  0  0  0
   -2.9572   -0.4940    0.0382 C   0  0  0  0  0  0  0  0  0  0  0  0
    2.8608   -0.9380    0.5421 C   0  0  0  0  0  0  0  0  0  0  0  0
   -2.0800   -2.1329   -1.5050 C   0  0  0  0  0  0  0  0  0  0  0  0
   -2.9124   -1.8055   -0.4347 C   0  0  0  0  0  0  0  0  0  0  0  0
   -3.8471   -0.1442    1.1826 C   0  0  0  0  0  0  0  0  0  0  0  0
    3.9889   -1.7497    0.4970 C   0  0  0  0  0  0  0  0  0  0  0  0
    1.5963   -1.5089    0.4495 C   0  0  0  0  0  0  0  0  0  0  0  0
    3.8001   -3.1155    0.3594 C   0  0  0  0  0  0  0  0  0  0  0  0
    1.5146   -2.8855    0.3139 C   0  0  0  0  0  0  0  0  0  0  0  0
   -0.5482    1.0978   -3.3599 H   0  0  0  0  0  0  0  0  0  0  0  0
   -0.8975    2.2170   -2.0747 H   0  0  0  0  0  0  0  0  0  0  0  0
    1.3366    0.2564   -2.2219 H   0  0  0  0  0  0  0  0  0  0  0  0
    3.7533    0.6936    1.3311 H   0  0  0  0  0  0  0  0  0  0  0  0
   -2.2060    1.5110   -0.1861 H   0  0  0  0  0  0  0  0  0  0  0  0
   -0.6476   -1.4168   -2.9351 H   0  0  0  0  0  0  0  0  0  0  0  0
   -2.0438   -3.1543   -1.8723 H   0  0  0  0  0  0  0  0  0  0  0  0
   -3.5175   -2.5861    0.0180 H   0  0  0  0  0  0  0  0  0  0  0  0
    4.9898   -1.3370    0.5656 H   0  0  0  0  0  0  0  0  0  0  0  0
    0.6867   -0.9228    0.5071 H   0  0  0  0  0  0  0  0  0  0  0  0
    4.6475   -3.7919    0.3187 H   0  0  0  0  0  0  0  0  0  0  0  0
    0.5518   -3.3809    0.2452 H   0  0  0  0  0  0  0  0  0  0  0  0
  1 21  1  0  0  0  0
  2 21  1  0  0  0  0
  3 21  1  0  0  0  0
  4 13  2  0  0  0  0
  5 14  2  0  0  0  0
  6  9  1  0  0  0  0
  6 11  1  0  0  0  0
  6 28  1  0  0  0  0
  7 10  1  0  0  0  0
  7 18  1  0  0  0  0
  7 29  1  0  0  0  0
  8 24  2  0  0  0  0
  8 25  1  0  0  0  0
  9 10  2  0  0  0  0
  9 13  1  0  0  0  0
 10 14  1  0  0  0  0
 11 12  1  0  0  0  0
 11 26  1  0  0  0  0
 11 27  1  0  0  0  0
 12 15  2  0  0  0  0
 12 16  1  0  0  0  0
 13 14  1  0  0  0  0
 15 17  1  0  0  0  0
 15 30  1  0  0  0  0
 16 19  2  0  0  0  0
 16 31  1  0  0  0  0
 17 20  2  0  0  0  0
 17 21  1  0  0  0  0
 18 22  2  0  0  0  0
 18 23  1  0  0  0  0
 19 20  1  0  0  0  0
 19 32  1  0  0  0  0
 20 33  1  0  0  0  0
 22 24  1  0  0  0  0
 22 34  1  0  0  0  0
 23 25  2  0  0  0  0
 23 35  1  0  0  0  0
 24 36  1  0  0  0  0
 25 37  1  0  0  0  0
M  END
> <PUBCHEM_COMPOUND_CID>
25205759

> <PUBCHEM_CONFORMER_RMSD>
1

> <PUBCHEM_CONFORMER_DIVERSEORDER>
3
70
21
121
114
104
116
95
115
111
7
50
102
10
40
89
128
131
42
67
106
17
47
49
124
108
26
122
6
132
32
12
20
76
107
96
100
133
27
129
69
64
80
99
109
119
36
125
113
35
127
15
112
29
48
83
62
105
25
53
90
59
39
28
58
52
130
43
8
123
110
92
38
66
72
75
19
45
77
88
63
126
98
33
14
31
79
71
94
97
103
16
118
2
73
87
18
120
34
30
56
117
37
1
55
68
81
84
78
5
54
46
82
4
61
41
23
13
24
91
85
22
44
74
57
65
51
9
93
86
60
101
11

> <PUBCHEM_MMFF94_PARTIAL_CHARGES>
35
1 -0.34
10 0.03
11 0.51
12 -0.14
13 0.64
14 0.64
15 -0.15
16 -0.15
17 -0.14
18 0.1
19 -0.15
2 -0.34
20 -0.15
21 1.16
22 -0.15
23 -0.15
24 0.16
25 0.16
28 0.4
29 0.4
3 -0.34
30 0.15
31 0.15
32 0.15
33 0.15
34 0.15
35 0.15
36 0.15
37 0.15
4 -0.57
5 -0.57
6 -0.87
7 -0.6
8 -0.62
9 0.03

> <PUBCHEM_EFFECTIVE_ROTOR_COUNT>
6

> <PUBCHEM_PHARMACOPHORE_FEATURES>
10
1 4 acceptor
1 5 acceptor
1 6 cation
1 6 donor
1 7 cation
1 7 donor
1 8 acceptor
4 9 10 13 14 rings
6 12 15 16 17 19 20 rings
6 8 18 22 23 24 25 rings

> <PUBCHEM_HEAVY_ATOM_COUNT>
25

> <PUBCHEM_ATOM_DEF_STEREO_COUNT>
0

> <PUBCHEM_ATOM_UDEF_STEREO_COUNT>
0

> <PUBCHEM_BOND_DEF_STEREO_COUNT>
0

> <PUBCHEM_BOND_UDEF_STEREO_COUNT>
0

> <PUBCHEM_ISOTOPIC_ATOM_COUNT>
0

> <PUBCHEM_COMPONENT_COUNT>
1

> <PUBCHEM_CACTVS_TAUTO_COUNT>
11

> <PUBCHEM_CONFORMER_ID>
01809BFF00000003

> <PUBCHEM_MMFF94_ENERGY>
69.9332

> <PUBCHEM_FEATURE_SELFOVERLAP>
50.747

> <PUBCHEM_SHAPE_FINGERPRINT>
10064457 181 18049167970840492088
11578080 2 17126437789647121888
12156800 1 17189858582446754430
12363563 72 15865454246606134653
12553582 1 18339912707010619198
12633257 1 18342738477252461039
12788726 201 17330809354651384764
13135754 10 17480035090058871574
13533116 47 18337955701152150315
13583140 156 18264778821493497281
13965767 371 17988094377842664337
14790565 3 18192432094436963436
14844126 61 17474069161483879706
14955137 171 18270978855287319198
14957384 54 16271635797536748416
17974551 9 18338527360966789913
20739085 24 18263073474406081664
21041028 32 18265333911092387854
21427221 339 18131359600168716355
35225 105 17113860780973960307
3737641 26 18409451350153249558
392239 28 17047384350913688035
445580 2 18046053866432885901
445580 42 17324625697041654586
539174 4 18342172319026580143
6287921 2 18192716862920133162
7097593 13 18343580771836122429
77296 10 18336817685469490519

> <PUBCHEM_SHAPE_MULTIPOLES>
465.99
7.27
4.53
1.89
4.04
1.51
0.27
-4.25
-4.11
-4.98
-0.43
1.78
0.45
-0.08

> <PUBCHEM_SHAPE_SELFOVERLAP>
1021.064

> <PUBCHEM_SHAPE_VOLUME>
252

> <PUBCHEM_COORDINATE_TYPE>
2
5
10

$$$$
