11526786
  -OEChem-10062122003D

 81 84  0     1  0  0  0  0  0999 V2000
    5.8206    3.4252   -0.7255 O   0  0  0  0  0  0  0  0  0  0  0  0
    3.5327   -1.6949   -0.3663 O   0  0  0  0  0  0  0  0  0  0  0  0
   -0.5009   -3.1559   -0.1264 O   0  0  0  0  0  0  0  0  0  0  0  0
    0.2729    2.4206    2.0667 O   0  0  0  0  0  0  0  0  0  0  0  0
   -2.0045    1.1570    1.5466 O   0  0  0  0  0  0  0  0  0  0  0  0
    1.4217   -3.6704    1.9933 O   0  0  0  0  0  0  0  0  0  0  0  0
   -2.7350   -3.4501   -0.1715 O   0  0  0  0  0  0  0  0  0  0  0  0
    4.5882   -1.9560   -2.4046 O   0  0  0  0  0  0  0  0  0  0  0  0
   -3.4106    0.5475   -0.9261 N   0  0  3  0  0  0  0  0  0  0  0  0
   -7.6065    0.9638    0.2606 N   0  0  0  0  0  0  0  0  0  0  0  0
    3.8631    2.0006   -0.2788 C   0  0  1  0  0  0  0  0  0  0  0  0
    2.8477    2.0252    0.8858 C   0  0  1  0  0  0  0  0  0  0  0  0
    4.9315    2.9602    0.2717 C   0  0  2  0  0  0  0  0  0  0  0  0
    4.3230    0.5539   -0.4226 C   0  0  0  0  0  0  0  0  0  0  0  0
    2.7098    3.5314    1.1531 C   0  0  0  0  0  0  0  0  0  0  0  0
    1.6557    1.1298    0.6327 C   0  0  0  0  0  0  0  0  0  0  0  0
    4.1123    4.1066    0.8850 C   0  0  0  0  0  0  0  0  0  0  0  0
    1.7666   -0.0012   -0.1054 C   0  0  0  0  0  0  0  0  0  0  0  0
    3.1315   -0.3774   -0.7326 C   0  0  2  0  0  0  0  0  0  0  0  0
    0.5465   -0.9013   -0.4380 C   0  0  1  0  0  0  0  0  0  0  0  0
    3.3091    2.5202   -1.6318 C   0  0  0  0  0  0  0  0  0  0  0  0
    0.6655   -2.3311    0.1646 C   0  0  1  0  0  0  0  0  0  0  0  0
   -0.7701   -0.3602    0.1215 C   0  0  0  0  0  0  0  0  0  0  0  0
    0.3602    1.4963    1.2618 C   0  0  0  0  0  0  0  0  0  0  0  0
    0.4357   -0.9805   -1.9886 C   0  0  0  0  0  0  0  0  0  0  0  0
   -0.8524    0.7180    0.9243 C   0  0  0  0  0  0  0  0  0  0  0  0
   -1.9135   -1.2094   -0.2040 C   0  0  0  0  0  0  0  0  0  0  0  0
    0.8953   -2.3964    1.6781 C   0  0  0  0  0  0  0  0  0  0  0  0
   -1.7752   -2.6875   -0.1470 C   0  0  0  0  0  0  0  0  0  0  0  0
    4.2596   -2.3738   -1.3025 C   0  0  0  0  0  0  0  0  0  0  0  0
   -3.0759   -0.7401   -0.6881 C   0  0  0  0  0  0  0  0  0  0  0  0
    4.6096   -3.7352   -0.7826 C   0  0  0  0  0  0  0  0  0  0  0  0
    1.6645   -3.8118    3.3892 C   0  0  0  0  0  0  0  0  0  0  0  0
   -4.6764    1.1169   -0.4594 C   0  0  0  0  0  0  0  0  0  0  0  0
   -2.6586    1.3803   -1.8667 C   0  0  0  0  0  0  0  0  0  0  0  0
   -5.8072    0.7930   -1.4350 C   0  0  0  0  0  0  0  0  0  0  0  0
   -7.1649    1.3953   -1.0601 C   0  0  0  0  0  0  0  0  0  0  0  0
   -8.2455   -0.3514    0.1866 C   0  0  0  0  0  0  0  0  0  0  0  0
   -8.5265    1.9429    0.8422 C   0  0  0  0  0  0  0  0  0  0  0  0
    3.3262    1.6068    1.7875 H   0  0  0  0  0  0  0  0  0  0  0  0
    5.5256    2.4716    1.0542 H   0  0  0  0  0  0  0  0  0  0  0  0
    5.0865    0.4643   -1.2058 H   0  0  0  0  0  0  0  0  0  0  0  0
    4.8190    0.2172    0.4988 H   0  0  0  0  0  0  0  0  0  0  0  0
    1.9734    3.9949    0.4867 H   0  0  0  0  0  0  0  0  0  0  0  0
    2.4055    3.7407    2.1838 H   0  0  0  0  0  0  0  0  0  0  0  0
    4.5795    4.4454    1.8166 H   0  0  0  0  0  0  0  0  0  0  0  0
    4.0562    4.9777    0.2226 H   0  0  0  0  0  0  0  0  0  0  0  0
    2.9778   -0.3237   -1.8179 H   0  0  0  0  0  0  0  0  0  0  0  0
    3.0606    3.5859   -1.5989 H   0  0  0  0  0  0  0  0  0  0  0  0
    4.0524    2.3891   -2.4268 H   0  0  0  0  0  0  0  0  0  0  0  0
    2.4019    1.9982   -1.9493 H   0  0  0  0  0  0  0  0  0  0  0  0
    1.4753   -2.8681   -0.3376 H   0  0  0  0  0  0  0  0  0  0  0  0
    1.2697   -1.5456   -2.4202 H   0  0  0  0  0  0  0  0  0  0  0  0
   -0.4693   -1.4861   -2.3402 H   0  0  0  0  0  0  0  0  0  0  0  0
    0.4412    0.0202   -2.4375 H   0  0  0  0  0  0  0  0  0  0  0  0
    6.4009    4.0875   -0.3131 H   0  0  0  0  0  0  0  0  0  0  0  0
   -0.0432   -2.2521    2.2254 H   0  0  0  0  0  0  0  0  0  0  0  0
    1.6176   -1.6405    2.0012 H   0  0  0  0  0  0  0  0  0  0  0  0
   -1.7804    1.9386    2.0803 H   0  0  0  0  0  0  0  0  0  0  0  0
   -3.9134   -1.4084   -0.8625 H   0  0  0  0  0  0  0  0  0  0  0  0
    3.6969   -4.3063   -0.5950 H   0  0  0  0  0  0  0  0  0  0  0  0
    5.2068   -4.2663   -1.5293 H   0  0  0  0  0  0  0  0  0  0  0  0
    5.1999   -3.6416    0.1324 H   0  0  0  0  0  0  0  0  0  0  0  0
    2.0668   -4.8125    3.5677 H   0  0  0  0  0  0  0  0  0  0  0  0
    0.7329   -3.7033    3.9529 H   0  0  0  0  0  0  0  0  0  0  0  0
    2.3990   -3.0742    3.7266 H   0  0  0  0  0  0  0  0  0  0  0  0
   -4.9045    0.7224    0.5384 H   0  0  0  0  0  0  0  0  0  0  0  0
   -4.5767    2.2037   -0.3469 H   0  0  0  0  0  0  0  0  0  0  0  0
   -3.3221    1.8201   -2.6185 H   0  0  0  0  0  0  0  0  0  0  0  0
   -1.9005    0.8077   -2.4097 H   0  0  0  0  0  0  0  0  0  0  0  0
   -2.1627    2.1985   -1.3347 H   0  0  0  0  0  0  0  0  0  0  0  0
   -5.9044   -0.2935   -1.5468 H   0  0  0  0  0  0  0  0  0  0  0  0
   -5.5444    1.1646   -2.4336 H   0  0  0  0  0  0  0  0  0  0  0  0
   -7.0341    2.4859   -1.0755 H   0  0  0  0  0  0  0  0  0  0  0  0
   -7.9085    1.1693   -1.8353 H   0  0  0  0  0  0  0  0  0  0  0  0
   -7.5513   -1.1101   -0.1890 H   0  0  0  0  0  0  0  0  0  0  0  0
   -9.1342   -0.3467   -0.4552 H   0  0  0  0  0  0  0  0  0  0  0  0
   -8.5494   -0.6833    1.1860 H   0  0  0  0  0  0  0  0  0  0  0  0
   -8.0313    2.9125    0.9661 H   0  0  0  0  0  0  0  0  0  0  0  0
   -8.8437    1.6264    1.8422 H   0  0  0  0  0  0  0  0  0  0  0  0
   -9.4211    2.0860    0.2251 H   0  0  0  0  0  0  0  0  0  0  0  0
  1 13  1  0  0  0  0
  1 56  1  0  0  0  0
  2 19  1  0  0  0  0
  2 30  1  0  0  0  0
  3 22  1  0  0  0  0
  3 29  1  0  0  0  0
  4 24  2  0  0  0  0
  5 26  1  0  0  0  0
  5 59  1  0  0  0  0
  6 28  1  0  0  0  0
  6 33  1  0  0  0  0
  7 29  2  0  0  0  0
  8 30  2  0  0  0  0
  9 31  1  0  0  0  0
  9 34  1  0  0  0  0
  9 35  1  0  0  0  0
 10 37  1  0  0  0  0
 10 38  1  0  0  0  0
 10 39  1  0  0  0  0
 11 12  1  0  0  0  0
 11 13  1  0  0  0  0
 11 14  1  0  0  0  0
 11 21  1  0  0  0  0
 12 15  1  0  0  0  0
 12 16  1  0  0  0  0
 12 40  1  0  0  0  0
 13 17  1  0  0  0  0
 13 41  1  0  0  0  0
 14 19  1  0  0  0  0
 14 42  1  0  0  0  0
 14 43  1  0  0  0  0
 15 17  1  0  0  0  0
 15 44  1  0  0  0  0
 15 45  1  0  0  0  0
 16 18  2  0  0  0  0
 16 24  1  0  0  0  0
 17 46  1  0  0  0  0
 17 47  1  0  0  0  0
 18 19  1  0  0  0  0
 18 20  1  0  0  0  0
 19 48  1  0  0  0  0
 20 22  1  0  0  0  0
 20 23  1  0  0  0  0
 20 25  1  0  0  0  0
 21 49  1  0  0  0  0
 21 50  1  0  0  0  0
 21 51  1  0  0  0  0
 22 28  1  0  0  0  0
 22 52  1  0  0  0  0
 23 26  2  0  0  0  0
 23 27  1  0  0  0  0
 24 26  1  0  0  0  0
 25 53  1  0  0  0  0
 25 54  1  0  0  0  0
 25 55  1  0  0  0  0
 27 29  1  0  0  0  0
 27 31  2  0  0  0  0
 28 57  1  0  0  0  0
 28 58  1  0  0  0  0
 30 32  1  0  0  0  0
 31 60  1  0  0  0  0
 32 61  1  0  0  0  0
 32 62  1  0  0  0  0
 32 63  1  0  0  0  0
 33 64  1  0  0  0  0
 33 65  1  0  0  0  0
 33 66  1  0  0  0  0
 34 36  1  0  0  0  0
 34 67  1  0  0  0  0
 34 68  1  0  0  0  0
 35 69  1  0  0  0  0
 35 70  1  0  0  0  0
 35 71  1  0  0  0  0
 36 37  1  0  0  0  0
 36 72  1  0  0  0  0
 36 73  1  0  0  0  0
 37 74  1  0  0  0  0
 37 75  1  0  0  0  0
 38 76  1  0  0  0  0
 38 77  1  0  0  0  0
 38 78  1  0  0  0  0
 39 79  1  0  0  0  0
 39 80  1  0  0  0  0
 39 81  1  0  0  0  0
M  END
> <PUBCHEM_COMPOUND_CID>
11526786

> <PUBCHEM_CONFORMER_RMSD>
1.2

> <PUBCHEM_CONFORMER_DIVERSEORDER>
1
4
5
3
7
6
8
2

> <PUBCHEM_MMFF94_PARTIAL_CHARGES>
35
1 -0.68
10 -0.81
12 0.14
13 0.28
16 -0.12
18 -0.28
19 0.42
2 -0.43
20 0.28
22 0.28
23 -0.14
24 0.54
26 0.09
27 0.01
28 0.28
29 0.71
3 -0.43
30 0.66
31 -0.05
32 0.06
33 0.28
34 0.37
35 0.37
37 0.27
38 0.27
39 0.27
4 -0.57
5 -0.53
56 0.4
59 0.45
6 -0.56
60 0.15
7 -0.57
8 -0.57
9 -0.84

> <PUBCHEM_EFFECTIVE_ROTOR_COUNT>
10.4

> <PUBCHEM_PHARMACOPHORE_FEATURES>
13
1 1 acceptor
1 1 donor
1 10 cation
1 4 acceptor
1 5 donor
1 6 acceptor
1 7 acceptor
1 8 acceptor
1 9 cation
5 11 12 13 15 17 rings
6 11 12 14 16 18 19 rings
6 16 18 20 23 24 26 rings
6 3 20 22 23 27 29 rings

> <PUBCHEM_HEAVY_ATOM_COUNT>
39

> <PUBCHEM_ATOM_DEF_STEREO_COUNT>
6

> <PUBCHEM_ATOM_UDEF_STEREO_COUNT>
0

> <PUBCHEM_BOND_DEF_STEREO_COUNT>
1

> <PUBCHEM_BOND_UDEF_STEREO_COUNT>
0

> <PUBCHEM_ISOTOPIC_ATOM_COUNT>
0

> <PUBCHEM_COMPONENT_COUNT>
1

> <PUBCHEM_CACTVS_TAUTO_COUNT>
2

> <PUBCHEM_CONFORMER_ID>
00AFE28200000001

> <PUBCHEM_MMFF94_ENERGY>
132.4593

> <PUBCHEM_FEATURE_SELFOVERLAP>
66.077

> <PUBCHEM_SHAPE_FINGERPRINT>
10050765 1 18341612667962210791
10165383 225 18408320016881013317
10675989 125 18343014532091682040
1100329 8 18127709131829064552
11578080 2 18335705000174373092
12522641 24 18335701581908062075
12730499 353 18334011675533316057
12788726 201 17131843057808560425
13383665 225 18044388355044756663
13726171 33 18049437342457860800
13782708 43 18408602531672235303
14068700 675 17843399588324731642
14747281 78 18270699622251616412
15183329 4 16558753430079269813
15840311 113 18412830162724410357
18681886 176 18128528267760213950
19319366 153 18336255795665979131
20465049 17 18336831888114175495
20715895 44 18339919419860081252
21033648 29 18115585001567000768
21521721 280 18411985763231259001
21927370 108 17760635971873642667
23559900 14 18343863321298708918
27425 322 17604993787248708640
376196 1 18196076971118774128
437795 51 18413111680475986129
484989 97 18411710880813401195
5265222 85 17691129653561749308
552612 73 18338800126092506991
57527295 17 17844797273456188575
70251023 43 18199190577099184184
9981440 41 17981882253605050442

> <PUBCHEM_SHAPE_MULTIPOLES>
745.69
15.61
5.22
2
38.93
1.55
0.74
-10.64
-3.14
-8.08
2.05
-1.11
1.13
0.75

> <PUBCHEM_SHAPE_SELFOVERLAP>
1576.984

> <PUBCHEM_SHAPE_VOLUME>
416.8

> <PUBCHEM_COORDINATE_TYPE>
2
5
10

$$$$
