16747696
  -OEChem-10062121573D

 67 72  0     0  0  0  0  0  0999 V2000
   -2.4545   -1.9594   -1.0226 S   0  0  0  0  0  0  0  0  0  0  0  0
    6.9608    1.0735   -0.4939 O   0  0  0  0  0  0  0  0  0  0  0  0
   -8.2428   -1.5505    0.4810 O   0  0  0  0  0  0  0  0  0  0  0  0
    7.5029   -1.6313   -0.5004 N   0  0  0  0  0  0  0  0  0  0  0  0
    9.1046   -3.4031    1.1288 N   0  0  0  0  0  0  0  0  0  0  0  0
    4.6669    0.5773   -0.5567 N   0  0  0  0  0  0  0  0  0  0  0  0
   -0.4291    3.6223    0.3736 N   0  0  0  0  0  0  0  0  0  0  0  0
   -1.4993    2.8065    0.1909 N   0  0  0  0  0  0  0  0  0  0  0  0
    7.5099   -1.5222    0.9636 C   0  0  0  0  0  0  0  0  0  0  0  0
    7.7662   -3.0156   -0.9119 C   0  0  0  0  0  0  0  0  0  0  0  0
    8.8395   -2.0193    1.5414 C   0  0  0  0  0  0  0  0  0  0  0  0
    9.0965   -3.5121   -0.3351 C   0  0  0  0  0  0  0  0  0  0  0  0
    2.6996    1.9332   -0.1513 C   0  0  0  0  0  0  0  0  0  0  0  0
    1.6456    0.8383   -0.4077 C   0  0  0  0  0  0  0  0  0  0  0  0
    6.2337   -1.1588   -1.0500 C   0  0  0  0  0  0  0  0  0  0  0  0
    0.4403    1.6770   -0.1568 C   0  0  0  0  0  0  0  0  0  0  0  0
    2.1321    3.1927    0.1917 C   0  0  0  0  0  0  0  0  0  0  0  0
    0.7307    2.9714    0.1719 C   0  0  0  0  0  0  0  0  0  0  0  0
    4.0649    1.8129   -0.2192 C   0  0  0  0  0  0  0  0  0  0  0  0
   -0.9533    1.6187   -0.1333 C   0  0  0  0  0  0  0  0  0  0  0  0
    6.0273    0.2962   -0.6660 C   0  0  0  0  0  0  0  0  0  0  0  0
   10.3748   -3.8740    1.6774 C   0  0  0  0  0  0  0  0  0  0  0  0
    2.8957    4.3062    0.4609 C   0  0  0  0  0  0  0  0  0  0  0  0
    4.8639    2.9170    0.0467 C   0  0  0  0  0  0  0  0  0  0  0  0
    4.2822    4.1560    0.3848 C   0  0  0  0  0  0  0  0  0  0  0  0
   -1.7348    0.4360   -0.4185 C   0  0  0  0  0  0  0  0  0  0  0  0
   -3.1613    0.4258   -0.3816 C   0  0  0  0  0  0  0  0  0  0  0  0
   -1.2226   -0.8006   -0.7546 C   0  0  0  0  0  0  0  0  0  0  0  0
   -3.6812   -0.8120   -0.6898 C   0  0  0  0  0  0  0  0  0  0  0  0
   -5.0704   -1.1247   -0.7316 C   0  0  0  0  0  0  0  0  0  0  0  0
   -6.2490   -1.3898   -0.7666 C   0  0  0  0  0  0  0  0  0  0  0  0
   -7.6749   -1.7114   -0.8112 C   0  0  0  0  0  0  0  0  0  0  0  0
   -9.5693   -1.2088    0.5358 C   0  0  0  0  0  0  0  0  0  0  0  0
  -10.4284   -1.6232   -0.4752 C   0  0  0  0  0  0  0  0  0  0  0  0
  -10.0404   -0.4512    1.6016 C   0  0  0  0  0  0  0  0  0  0  0  0
  -11.7780   -1.2749   -0.4196 C   0  0  0  0  0  0  0  0  0  0  0  0
  -11.3900   -0.1030    1.6571 C   0  0  0  0  0  0  0  0  0  0  0  0
  -12.2587   -0.5149    0.6465 C   0  0  0  0  0  0  0  0  0  0  0  0
    6.6844   -2.1030    1.3986 H   0  0  0  0  0  0  0  0  0  0  0  0
    7.3870   -0.4907    1.3078 H   0  0  0  0  0  0  0  0  0  0  0  0
    7.8223   -3.0724   -2.0058 H   0  0  0  0  0  0  0  0  0  0  0  0
    6.9536   -3.6818   -0.5914 H   0  0  0  0  0  0  0  0  0  0  0  0
    8.7819   -1.9654    2.6355 H   0  0  0  0  0  0  0  0  0  0  0  0
    9.6526   -1.3524    1.2235 H   0  0  0  0  0  0  0  0  0  0  0  0
    9.9254   -2.9411   -0.7752 H   0  0  0  0  0  0  0  0  0  0  0  0
    9.2299   -4.5603   -0.6293 H   0  0  0  0  0  0  0  0  0  0  0  0
    1.7432    0.0276    0.3186 H   0  0  0  0  0  0  0  0  0  0  0  0
    1.6955    0.4856   -1.4409 H   0  0  0  0  0  0  0  0  0  0  0  0
    5.3988   -1.7780   -0.6991 H   0  0  0  0  0  0  0  0  0  0  0  0
    6.2510   -1.1982   -2.1457 H   0  0  0  0  0  0  0  0  0  0  0  0
   10.5465   -4.9211    1.4045 H   0  0  0  0  0  0  0  0  0  0  0  0
   11.2255   -3.2812    1.3224 H   0  0  0  0  0  0  0  0  0  0  0  0
   10.3592   -3.8332    2.7722 H   0  0  0  0  0  0  0  0  0  0  0  0
    4.0151   -0.1810   -0.7433 H   0  0  0  0  0  0  0  0  0  0  0  0
    2.4516    5.2599    0.7211 H   0  0  0  0  0  0  0  0  0  0  0  0
   -0.5925    4.5886    0.6299 H   0  0  0  0  0  0  0  0  0  0  0  0
    5.9444    2.9130    0.0176 H   0  0  0  0  0  0  0  0  0  0  0  0
    4.9250    5.0087    0.5896 H   0  0  0  0  0  0  0  0  0  0  0  0
   -3.7825    1.2814   -0.1414 H   0  0  0  0  0  0  0  0  0  0  0  0
   -0.1932   -1.1079   -0.8633 H   0  0  0  0  0  0  0  0  0  0  0  0
   -7.8108   -2.7491   -1.1359 H   0  0  0  0  0  0  0  0  0  0  0  0
   -8.1382   -1.0410   -1.5467 H   0  0  0  0  0  0  0  0  0  0  0  0
  -10.1009   -2.2393   -1.3068 H   0  0  0  0  0  0  0  0  0  0  0  0
   -9.3670   -0.1283    2.3904 H   0  0  0  0  0  0  0  0  0  0  0  0
  -12.4563   -1.6009   -1.2028 H   0  0  0  0  0  0  0  0  0  0  0  0
  -11.7645    0.4886    2.4874 H   0  0  0  0  0  0  0  0  0  0  0  0
  -13.3098   -0.2451    0.6906 H   0  0  0  0  0  0  0  0  0  0  0  0
  1 28  1  0  0  0  0
  1 29  1  0  0  0  0
  2 21  2  0  0  0  0
  3 32  1  0  0  0  0
  3 33  1  0  0  0  0
  4  9  1  0  0  0  0
  4 10  1  0  0  0  0
  4 15  1  0  0  0  0
  5 11  1  0  0  0  0
  5 12  1  0  0  0  0
  5 22  1  0  0  0  0
  6 19  1  0  0  0  0
  6 21  1  0  0  0  0
  6 54  1  0  0  0  0
  7  8  1  0  0  0  0
  7 18  1  0  0  0  0
  7 56  1  0  0  0  0
  8 20  2  0  0  0  0
  9 11  1  0  0  0  0
  9 39  1  0  0  0  0
  9 40  1  0  0  0  0
 10 12  1  0  0  0  0
 10 41  1  0  0  0  0
 10 42  1  0  0  0  0
 11 43  1  0  0  0  0
 11 44  1  0  0  0  0
 12 45  1  0  0  0  0
 12 46  1  0  0  0  0
 13 14  1  0  0  0  0
 13 17  2  0  0  0  0
 13 19  1  0  0  0  0
 14 16  1  0  0  0  0
 14 47  1  0  0  0  0
 14 48  1  0  0  0  0
 15 21  1  0  0  0  0
 15 49  1  0  0  0  0
 15 50  1  0  0  0  0
 16 18  2  0  0  0  0
 16 20  1  0  0  0  0
 17 18  1  0  0  0  0
 17 23  1  0  0  0  0
 19 24  2  0  0  0  0
 20 26  1  0  0  0  0
 22 51  1  0  0  0  0
 22 52  1  0  0  0  0
 22 53  1  0  0  0  0
 23 25  2  0  0  0  0
 23 55  1  0  0  0  0
 24 25  1  0  0  0  0
 24 57  1  0  0  0  0
 25 58  1  0  0  0  0
 26 27  1  0  0  0  0
 26 28  2  0  0  0  0
 27 29  2  0  0  0  0
 27 59  1  0  0  0  0
 28 60  1  0  0  0  0
 29 30  1  0  0  0  0
 30 31  3  0  0  0  0
 31 32  1  0  0  0  0
 32 61  1  0  0  0  0
 32 62  1  0  0  0  0
 33 34  2  0  0  0  0
 33 35  1  0  0  0  0
 34 36  1  0  0  0  0
 34 63  1  0  0  0  0
 35 37  2  0  0  0  0
 35 64  1  0  0  0  0
 36 38  2  0  0  0  0
 36 65  1  0  0  0  0
 37 38  1  0  0  0  0
 37 66  1  0  0  0  0
 38 67  1  0  0  0  0
M  END
> <PUBCHEM_COMPOUND_CID>
16747696

> <PUBCHEM_CONFORMER_RMSD>
1

> <PUBCHEM_CONFORMER_DIVERSEORDER>
1
138
26
130
144
54
6
81
134
107
154
121
58
140
128
148
127
92
78
157
38
108
53
113
68
34
135
150
120
63
124
27
55
133
28
155
158
10
98
153
42
66
143
75
110
17
101
123
132
97
5
111
104
152
74
15
70
114
46
51
96
112
7
44
106
90
71
99
40
151
129
73
43
142
115
145
14
149
118
72
141
49
52
88
47
136
30
62
76
126
29
24
102
45
91
94
21
137
61
23
85
125
31
139
37
64
82
119
122
41
86
89
103
69
13
80
87
59
56
147
65
35
116
18
16
146
117
84
57
20
25
11
50
79
100
60
12
156
8
2
32
36
95
33
93
109
48
9
83
3
105
67
39
4
22
19
131
77

> <PUBCHEM_MMFF94_PARTIAL_CHARGES>
49
1 -0.08
10 0.27
11 0.27
12 0.27
13 -0.14
14 0.32
15 0.33
16 -0.18
17 0.05
18 -0.2
19 0.12
2 -0.57
20 0.29
21 0.57
22 0.27
23 -0.15
24 -0.15
25 -0.15
27 -0.15
28 -0.11
29 0.06
3 -0.36
30 -0.02
31 -0.2
32 0.48
33 0.08
34 -0.15
35 -0.15
36 -0.15
37 -0.15
38 -0.15
4 -0.81
5 -0.81
54 0.37
55 0.15
56 0.27
57 0.15
58 0.15
59 0.15
6 -0.55
60 0.15
63 0.15
64 0.15
65 0.15
66 0.15
67 0.15
7 0.3
8 -0.71
9 0.27

> <PUBCHEM_EFFECTIVE_ROTOR_COUNT>
8.4

> <PUBCHEM_PHARMACOPHORE_FEATURES>
13
1 2 acceptor
1 3 acceptor
1 4 cation
1 5 cation
1 6 donor
1 7 donor
1 8 acceptor
5 1 26 27 28 29 rings
5 13 14 16 17 18 rings
5 7 8 16 18 20 rings
6 13 17 19 23 24 25 rings
6 33 34 35 36 37 38 rings
6 4 5 9 10 11 12 rings

> <PUBCHEM_HEAVY_ATOM_COUNT>
38

> <PUBCHEM_ATOM_DEF_STEREO_COUNT>
0

> <PUBCHEM_ATOM_UDEF_STEREO_COUNT>
0

> <PUBCHEM_BOND_DEF_STEREO_COUNT>
0

> <PUBCHEM_BOND_UDEF_STEREO_COUNT>
0

> <PUBCHEM_ISOTOPIC_ATOM_COUNT>
0

> <PUBCHEM_COMPONENT_COUNT>
1

> <PUBCHEM_CACTVS_TAUTO_COUNT>
4

> <PUBCHEM_CONFORMER_ID>
00FF8CB000000001

> <PUBCHEM_MMFF94_ENERGY>
112.6707

> <PUBCHEM_FEATURE_SELFOVERLAP>
66.314

> <PUBCHEM_SHAPE_FINGERPRINT>
10168742 298 16950570973525497403
10209105 3 18408884014858818863
10533779 47 18336553815273354979
11146346 77 18041281079673419018
11409948 35 18409446999008227525
11607047 141 18341046406420063080
12013929 2 18261109682920674327
12559415 193 18412547579672004437
14142895 15 8142091949030641429
14359421 15 17676760969390631130
14400156 96 10375876281426204440
15289351 153 18272087176947696809
15419008 145 18272656719554903921
16758388 162 18131351947175792561
19841028 212 18340769329547391514
20105231 36 18040998471409838107
20982279 24 17967543367685046403
21057603 238 18042679507774636117
21130935 74 18126284388335409191
21792934 111 18059573637480819993
21792938 131 18259979358353732738
23569943 247 18410011026661486419
25242607 90 18201145608096194646
25269216 80 15719386218874438375
2851757 41 18339643335684837094
437795 160 15339117983878236399
439807 62 18335422395906171396
45377200 153 15647344078418680481
474113 269 18411986862315378827
4756326 101 13614529528808448363
6057620 51 11314295162746510927
636783 164 17417533493438220473
636783 89 18410288108234273842
9937071 3 18260828219510086978

> <PUBCHEM_SHAPE_MULTIPOLES>
749.23
45.34
5.24
1.21
89.47
2.98
-0.39
-54.32
-16.14
-16.77
-1.09
-0.04
-0.84
-2.92

> <PUBCHEM_SHAPE_SELFOVERLAP>
1633.437

> <PUBCHEM_SHAPE_VOLUME>
410.9

> <PUBCHEM_COORDINATE_TYPE>
2
5
10

$$$$
