56947170
  -OEChem-10052120443D

 59 61  0     1  0  0  0  0  0999 V2000
   -4.2182    0.5250    1.8331 S   0  0  0  0  0  0  0  0  0  0  0  0
    6.7820   -2.3958   -0.5953 F   0  0  0  0  0  0  0  0  0  0  0  0
    4.9507   -1.2424   -0.8453 F   0  0  0  0  0  0  0  0  0  0  0  0
    5.0723   -2.7714    0.7018 F   0  0  0  0  0  0  0  0  0  0  0  0
    3.4964    1.1552    1.4605 O   0  0  0  0  0  0  0  0  0  0  0  0
    4.2268    3.8706   -0.4444 O   0  0  0  0  0  0  0  0  0  0  0  0
   -8.6775    0.0092    0.4201 N   0  0  0  0  0  0  0  0  0  0  0  0
   -1.6757   -2.5355   -1.1081 N   0  0  0  0  0  0  0  0  0  0  0  0
    0.6368   -2.3649   -1.5808 N   0  0  0  0  0  0  0  0  0  0  0  0
    5.3833    2.0810   -1.2919 N   0  0  0  0  0  0  0  0  0  0  0  0
   -0.5300   -0.4447   -0.7072 C   0  0  0  0  0  0  0  0  0  0  0  0
    0.6788    0.3500   -0.7309 C   0  0  0  0  0  0  0  0  0  0  0  0
   -6.3174    0.6846    0.3610 C   0  0  0  0  0  0  0  0  0  0  0  0
   -2.8801   -0.6315   -0.2311 C   0  0  0  0  0  0  0  0  0  0  0  0
   -7.6954    0.9653   -0.1047 C   0  0  0  0  0  0  0  0  0  0  0  0
   -4.1227   -0.0690    0.2299 C   0  0  0  0  0  0  0  0  0  0  0  0
   -1.7148    0.1267   -0.2566 C   0  0  0  0  0  0  0  0  0  0  0  0
   -5.3136    0.0769   -0.4471 C   0  0  0  0  0  0  0  0  0  0  0  0
    2.6841    1.1428    0.3587 C   0  0  0  0  0  0  0  0  0  0  0  0
    1.5186    0.3770    0.3825 C   0  0  0  0  0  0  0  0  0  0  0  0
   -0.5631   -1.7674   -1.1184 C   0  0  0  0  0  0  0  0  0  0  0  0
    1.0045    1.0891   -1.8682 C   0  0  0  0  0  0  0  0  0  0  0  0
    3.0099    1.8819   -0.7784 C   0  0  0  0  0  0  0  0  0  0  0  0
   -5.8558    0.9798    1.6248 C   0  0  0  0  0  0  0  0  0  0  0  0
   -2.8082   -1.9459   -0.6636 C   0  0  0  0  0  0  0  0  0  0  0  0
    4.0355   -0.0984    1.8716 C   0  0  2  0  0  0  0  0  0  0  0  0
    2.1700    1.8550   -1.8919 C   0  0  0  0  0  0  0  0  0  0  0  0
  -10.0157    0.5940    0.3964 C   0  0  0  0  0  0  0  0  0  0  0  0
   -8.6422   -1.2286   -0.3544 C   0  0  0  0  0  0  0  0  0  0  0  0
    3.5533   -0.4110    3.2820 C   0  0  0  0  0  0  0  0  0  0  0  0
    4.2221    2.6875   -0.8244 C   0  0  0  0  0  0  0  0  0  0  0  0
    5.5318    0.0003    1.8180 C   0  0  0  0  0  0  0  0  0  0  0  0
    6.2980   -0.7564    1.0189 C   0  0  0  0  0  0  0  0  0  0  0  0
    5.7755   -1.7892    0.0834 C   0  0  0  0  0  0  0  0  0  0  0  0
   -7.9434    1.9780    0.2457 H   0  0  0  0  0  0  0  0  0  0  0  0
   -7.7386    1.0220   -1.2010 H   0  0  0  0  0  0  0  0  0  0  0  0
   -1.7271    1.1667    0.0651 H   0  0  0  0  0  0  0  0  0  0  0  0
   -5.4604   -0.2357   -1.4741 H   0  0  0  0  0  0  0  0  0  0  0  0
    1.2554   -0.1914    1.2713 H   0  0  0  0  0  0  0  0  0  0  0  0
    0.3612    1.0788   -2.7449 H   0  0  0  0  0  0  0  0  0  0  0  0
   -6.3973    1.4407    2.4394 H   0  0  0  0  0  0  0  0  0  0  0  0
    3.6736   -0.9066    1.2268 H   0  0  0  0  0  0  0  0  0  0  0  0
   -3.6803   -2.5937   -0.6675 H   0  0  0  0  0  0  0  0  0  0  0  0
    2.4133    2.4267   -2.7839 H   0  0  0  0  0  0  0  0  0  0  0  0
  -10.3282    0.8722   -0.6168 H   0  0  0  0  0  0  0  0  0  0  0  0
  -10.7510   -0.1101    0.8018 H   0  0  0  0  0  0  0  0  0  0  0  0
  -10.0603    1.4869    1.0301 H   0  0  0  0  0  0  0  0  0  0  0  0
   -9.3710   -1.9456    0.0411 H   0  0  0  0  0  0  0  0  0  0  0  0
   -8.8701   -1.0655   -1.4142 H   0  0  0  0  0  0  0  0  0  0  0  0
   -7.6662   -1.7196   -0.2812 H   0  0  0  0  0  0  0  0  0  0  0  0
    3.8464    0.3787    3.9836 H   0  0  0  0  0  0  0  0  0  0  0  0
    3.9578   -1.3628    3.6416 H   0  0  0  0  0  0  0  0  0  0  0  0
    2.4603   -0.4651    3.3179 H   0  0  0  0  0  0  0  0  0  0  0  0
    6.0141    0.7353    2.4578 H   0  0  0  0  0  0  0  0  0  0  0  0
    1.3206   -1.7867   -2.0526 H   0  0  0  0  0  0  0  0  0  0  0  0
    0.5742   -3.3355   -1.8638 H   0  0  0  0  0  0  0  0  0  0  0  0
    7.3743   -0.6102    1.0446 H   0  0  0  0  0  0  0  0  0  0  0  0
    5.4004    1.1131   -1.5973 H   0  0  0  0  0  0  0  0  0  0  0  0
    6.2577    2.5935   -1.3382 H   0  0  0  0  0  0  0  0  0  0  0  0
  1 16  1  0  0  0  0
  1 24  1  0  0  0  0
  2 34  1  0  0  0  0
  3 34  1  0  0  0  0
  4 34  1  0  0  0  0
  5 19  1  0  0  0  0
  5 26  1  0  0  0  0
  6 31  2  0  0  0  0
  7 15  1  0  0  0  0
  7 28  1  0  0  0  0
  7 29  1  0  0  0  0
  8 21  1  0  0  0  0
  8 25  2  0  0  0  0
  9 21  1  0  0  0  0
  9 55  1  0  0  0  0
  9 56  1  0  0  0  0
 10 31  1  0  0  0  0
 10 58  1  0  0  0  0
 10 59  1  0  0  0  0
 11 12  1  0  0  0  0
 11 17  1  0  0  0  0
 11 21  2  0  0  0  0
 12 20  2  0  0  0  0
 12 22  1  0  0  0  0
 13 15  1  0  0  0  0
 13 18  1  0  0  0  0
 13 24  2  0  0  0  0
 14 16  1  0  0  0  0
 14 17  2  0  0  0  0
 14 25  1  0  0  0  0
 15 35  1  0  0  0  0
 15 36  1  0  0  0  0
 16 18  2  0  0  0  0
 17 37  1  0  0  0  0
 18 38  1  0  0  0  0
 19 20  1  0  0  0  0
 19 23  2  0  0  0  0
 20 39  1  0  0  0  0
 22 27  2  0  0  0  0
 22 40  1  0  0  0  0
 23 27  1  0  0  0  0
 23 31  1  0  0  0  0
 24 41  1  0  0  0  0
 25 43  1  0  0  0  0
 26 30  1  0  0  0  0
 26 32  1  0  0  0  0
 26 42  1  0  0  0  0
 27 44  1  0  0  0  0
 28 45  1  0  0  0  0
 28 46  1  0  0  0  0
 28 47  1  0  0  0  0
 29 48  1  0  0  0  0
 29 49  1  0  0  0  0
 29 50  1  0  0  0  0
 30 51  1  0  0  0  0
 30 52  1  0  0  0  0
 30 53  1  0  0  0  0
 32 33  2  0  0  0  0
 32 54  1  0  0  0  0
 33 34  1  0  0  0  0
 33 57  1  0  0  0  0
M  END
> <PUBCHEM_COMPOUND_CID>
56947170

> <PUBCHEM_CONFORMER_RMSD>
1

> <PUBCHEM_CONFORMER_DIVERSEORDER>
1
74
35
176
256
60
287
262
76
181
48
220
255
207
178
68
263
46
268
286
118
63
57
58
280
205
162
79
182
65
180
69
260
230
278
179
214
225
170
283
204
238
197
77
209
29
112
54
183
234
98
22
34
160
64
223
192
27
261
271
40
42
152
8
75
237
210
126
120
258
272
41
104
87
166
38
9
190
163
114
144
99
33
229
100
227
61
24
149
275
3
265
161
10
158
267
116
49
187
106
266
274
242
194
130
199
52
191
228
67
279
165
289
201
31
189
285
226
168
202
117
150
4
73
219
155
224
196
206
239
5
18
43
198
288
203
252
70
173
164
186
111
59
23
247
175
142
102
135
257
157
156
66
97
26
184
105
264
132
51
215
44
6
253
195
216
259
147
20
273
103
84
37
15
200
94
232
128
154
93
236
211
185
217
25
56
137
270
11
276
21
153
71
107
231
212
146
72
83
95
19
89
254
2
82
251
282
151
88
108
101
193
81
241
12
115
284
167
36
208
213
136
92
174
134
62
143
28
113
240
53
269
124
172
125
188
123
17
140
50
145
30
159
244
55
7
218
121
39
138
122
16
281
141
233
169
13
110
47
148
90
177
119
133
221
109
235
171
45
14
85
86
243
78
250
96
32
80
127
246
248
129
131
222
139
277
245
91
249

> <PUBCHEM_MMFF94_PARTIAL_CHARGES>
44
1 -0.08
10 -0.8
13 -0.18
14 0.05
15 0.45
16 -0.01
17 -0.15
18 -0.15
19 0.08
2 -0.34
20 -0.15
21 0.41
22 -0.15
23 0.09
24 -0.11
25 0.16
26 0.42
27 -0.15
28 0.27
29 0.27
3 -0.34
31 0.54
32 -0.29
33 -0.29
34 1.16
37 0.15
38 0.15
39 0.15
4 -0.34
40 0.15
41 0.15
43 0.15
44 0.15
5 -0.36
54 0.15
55 0.4
56 0.4
57 0.15
58 0.37
59 0.37
6 -0.57
7 -0.81
8 -0.62
9 -0.9

> <PUBCHEM_EFFECTIVE_ROTOR_COUNT>
9

> <PUBCHEM_PHARMACOPHORE_FEATURES>
10
1 10 donor
1 5 acceptor
1 6 acceptor
1 7 cation
1 8 acceptor
1 9 cation
1 9 donor
5 1 13 16 18 24 rings
6 12 19 20 22 23 27 rings
6 8 11 14 17 21 25 rings

> <PUBCHEM_HEAVY_ATOM_COUNT>
34

> <PUBCHEM_ATOM_DEF_STEREO_COUNT>
1

> <PUBCHEM_ATOM_UDEF_STEREO_COUNT>
0

> <PUBCHEM_BOND_DEF_STEREO_COUNT>
1

> <PUBCHEM_BOND_UDEF_STEREO_COUNT>
0

> <PUBCHEM_ISOTOPIC_ATOM_COUNT>
0

> <PUBCHEM_COMPONENT_COUNT>
1

> <PUBCHEM_CACTVS_TAUTO_COUNT>
9

> <PUBCHEM_CONFORMER_ID>
0364F1E200000001

> <PUBCHEM_MMFF94_ENERGY>
106.4751

> <PUBCHEM_FEATURE_SELFOVERLAP>
50.746

> <PUBCHEM_SHAPE_FINGERPRINT>
10 15 18261116309865191017
10554248 39 18411972589938887189
10692045 39 18201160966266261767
11374522 58 17774163380021697574
117089 54 17461431417910704522
11719270 70 18201722843000033967
11828532 37 17417806301187063091
12107183 9 18412544293120072342
12120059 20 12758019951631888593
12422481 6 18408602535038378773
12788726 201 17762894768051863431
13617811 41 14418134006673191110
13692114 37 17847057801039760103
14347424 109 18259982691021604152
14675020 138 15410896236509402478
15131766 46 17753900716261676741
15183329 4 18130799961740783357
1577012 14 18339642351846299173
15840311 113 18060415807499854394
1813 80 18040986337947242332
20554085 129 17704352182385152223
21403212 168 18272080561579923979
21421861 104 18333728053294802460
23559900 14 17559976431860777036
23569917 315 18343306972747828807
24893992 56 17918272078886583243
2838139 119 16343692219512730865
3044373 193 15051731997537138960
34797466 226 12324242741744512610
3918712 181 17989205988773336337
4093350 32 18333731343002140696
4197921 191 18410580595191321325
437795 51 17240493515773581554
44317340 157 11023840460995932867
4516262 110 18116434932671775572
5104073 3 18263082274223722554
6086070 43 17418097679788308027

> <PUBCHEM_SHAPE_MULTIPOLES>
650.07
23.79
2.7
1.99
45.86
0.44
-1.14
-0.23
-6.27
-5.22
1.28
-2.29
-0.04
-2.15

> <PUBCHEM_SHAPE_SELFOVERLAP>
1383.897

> <PUBCHEM_SHAPE_VOLUME>
369.1

> <PUBCHEM_COORDINATE_TYPE>
2
5
10

$$$$
