135497772
  -OEChem-10052115183D

 26 28  0     0  0  0  0  0  0999 V2000
   -4.6846   -1.4592    0.6589 Cl  0  0  0  0  0  0  0  0  0  0  0  0
   -0.4303    2.4387   -0.4704 O   0  0  0  0  0  0  0  0  0  0  0  0
    3.6433    1.6643    0.2374 O   0  0  0  0  0  0  0  0  0  0  0  0
    2.8714   -2.8574   -0.0047 O   0  0  0  0  0  0  0  0  0  0  0  0
    3.1839   -0.5993    0.1785 N   0  0  0  0  0  0  0  0  0  0  0  0
    1.5243    3.3976    0.1817 N   0  0  0  0  0  0  0  0  0  0  0  0
   -0.5063   -3.5996   -0.5055 N   0  0  0  0  0  0  0  0  0  0  0  0
    0.4195   -0.2236    0.0314 C   0  0  0  0  0  0  0  0  0  0  0  0
   -1.0348    0.1106    0.0165 C   0  0  0  0  0  0  0  0  0  0  0  0
    1.3677    0.9033    0.0990 C   0  0  0  0  0  0  0  0  0  0  0  0
   -1.3923    1.4224   -0.3026 C   0  0  0  0  0  0  0  0  0  0  0  0
    0.9183   -1.4840   -0.0746 C   0  0  0  0  0  0  0  0  0  0  0  0
    2.6916    0.6752    0.1825 C   0  0  0  0  0  0  0  0  0  0  0  0
    0.8755    2.3039   -0.0314 C   0  0  0  0  0  0  0  0  0  0  0  0
   -2.0872   -0.7576    0.3472 C   0  0  0  0  0  0  0  0  0  0  0  0
    2.4022   -1.7207    0.0338 C   0  0  0  0  0  0  0  0  0  0  0  0
   -2.7235    1.8432   -0.4010 C   0  0  0  0  0  0  0  0  0  0  0  0
   -3.4261   -0.3511    0.2635 C   0  0  0  0  0  0  0  0  0  0  0  0
   -3.7451    0.9442   -0.1278 C   0  0  0  0  0  0  0  0  0  0  0  0
    0.1326   -2.6507   -0.3124 C   0  0  0  0  0  0  0  0  0  0  0  0
   -1.8980   -1.7554    0.7263 H   0  0  0  0  0  0  0  0  0  0  0  0
    4.1894   -0.7216    0.2495 H   0  0  0  0  0  0  0  0  0  0  0  0
   -2.9614    2.8705   -0.6618 H   0  0  0  0  0  0  0  0  0  0  0  0
   -4.7787    1.2719   -0.1951 H   0  0  0  0  0  0  0  0  0  0  0  0
    4.5079    1.2214    0.2725 H   0  0  0  0  0  0  0  0  0  0  0  0
    0.9057    4.1927   -0.0124 H   0  0  0  0  0  0  0  0  0  0  0  0
  1 18  1  0  0  0  0
  2 11  1  0  0  0  0
  2 14  1  0  0  0  0
  3 13  1  0  0  0  0
  3 25  1  0  0  0  0
  4 16  2  0  0  0  0
  5 13  1  0  0  0  0
  5 16  1  0  0  0  0
  5 22  1  0  0  0  0
  6 14  2  0  0  0  0
  6 26  1  0  0  0  0
  7 20  3  0  0  0  0
  8  9  1  0  0  0  0
  8 10  1  0  0  0  0
  8 12  2  0  0  0  0
  9 11  2  0  0  0  0
  9 15  1  0  0  0  0
 10 13  2  0  0  0  0
 10 14  1  0  0  0  0
 11 17  1  0  0  0  0
 12 16  1  0  0  0  0
 12 20  1  0  0  0  0
 15 18  2  0  0  0  0
 15 21  1  0  0  0  0
 17 19  2  0  0  0  0
 17 23  1  0  0  0  0
 18 19  1  0  0  0  0
 19 24  1  0  0  0  0
M  END
> <PUBCHEM_COMPOUND_CID>
135497772

> <PUBCHEM_CONFORMER_RMSD>
0.6

> <PUBCHEM_CONFORMER_DIVERSEORDER>
1

> <PUBCHEM_MMFF94_PARTIAL_CHARGES>
26
1 -0.18
10 0.01
11 0.08
12 0.08
13 0.19
14 0.59
15 -0.15
16 0.62
17 -0.15
18 0.18
19 -0.15
2 -0.23
20 0.49
21 0.15
22 0.37
23 0.15
24 0.15
25 0.45
26 0.4
3 -0.53
4 -0.57
5 -0.54
6 -0.85
7 -0.56
8 -0.03
9 0.03

> <PUBCHEM_EFFECTIVE_ROTOR_COUNT>
0

> <PUBCHEM_PHARMACOPHORE_FEATURES>
8
1 3 donor
1 4 acceptor
1 5 donor
1 6 donor
1 7 acceptor
6 2 8 9 10 11 14 rings
6 5 8 10 12 13 16 rings
6 9 11 15 17 18 19 rings

> <PUBCHEM_HEAVY_ATOM_COUNT>
20

> <PUBCHEM_ATOM_DEF_STEREO_COUNT>
0

> <PUBCHEM_ATOM_UDEF_STEREO_COUNT>
0

> <PUBCHEM_BOND_DEF_STEREO_COUNT>
0

> <PUBCHEM_BOND_UDEF_STEREO_COUNT>
0

> <PUBCHEM_ISOTOPIC_ATOM_COUNT>
0

> <PUBCHEM_COMPONENT_COUNT>
1

> <PUBCHEM_CACTVS_TAUTO_COUNT>
-1

> <PUBCHEM_CONFORMER_ID>
0813882C00000001

> <PUBCHEM_MMFF94_ENERGY>
70.8615

> <PUBCHEM_FEATURE_SELFOVERLAP>
40.701

> <PUBCHEM_SHAPE_FINGERPRINT>
10411042 1 18266460901626278074
10493431 412 18197213874473723720
10608611 8 18336261232899526925
10616163 171 18337955580291237661
10967382 1 18338516442684785782
1100329 8 18051694639908006720
11578080 2 16661744597577514870
12403259 226 18335419028498992559
13140716 1 18266737970123954424
138480 1 18266740177847913986
14178342 30 18269554944816320625
14790565 3 18265628751950262900
15196674 1 18409449163291968825
15219456 202 18408603626334643785
16945 1 18267295611487319548
193761 8 17906731754104972340
19591789 44 18266182918515130934
20028762 73 18130504257838829447
20645477 70 18335131042926672775
20739085 24 18193582002577565865
21197605 99 17833284386672757579
21267235 1 18410301276256044499
221490 88 18336552629060800323
23184049 29 17111847068277602051
2334 1 18410572860033536942
23463225 33 18336827485508472148
23559900 14 18121491350487401850
238 59 17974810031031594293
2748010 2 18338229362944643460
335352 9 17905606605849256805
5104073 3 18409729521957154009
6438718 38 17557425680284301879
7364860 26 18411418393049666833
81228 2 16682890791565557120
8809292 202 18045788883708455547
9709674 26 18335143102878640795

> <PUBCHEM_SHAPE_MULTIPOLES>
380.91
6.31
3.78
0.67
3.87
0.77
0.01
0.73
1.01
-1.59
-0.43
0.19
0.04
0.56

> <PUBCHEM_SHAPE_SELFOVERLAP>
842.474

> <PUBCHEM_SHAPE_VOLUME>
203

> <PUBCHEM_COORDINATE_TYPE>
2
5
10

$$$$
