9808998
  -OEChem-10062122013D

 72 78  0     1  0  0  0  0  0999 V2000
   -3.8444    0.9777   -0.8273 O   0  0  0  0  0  0  0  0  0  0  0  0
   -3.3853   -1.5602    1.6718 O   0  0  0  0  0  0  0  0  0  0  0  0
   -5.5372    1.3028    1.5699 O   0  0  0  0  0  0  0  0  0  0  0  0
   -5.5966   -1.7931   -0.3475 O   0  0  0  0  0  0  0  0  0  0  0  0
   -5.2386    2.2166   -2.7923 O   0  0  0  0  0  0  0  0  0  0  0  0
    3.4633    2.4560    0.6004 O   0  0  0  0  0  0  0  0  0  0  0  0
    4.2270   -2.1159    0.3739 O   0  0  0  0  0  0  0  0  0  0  0  0
   -2.8286    5.4209    0.2845 O   0  0  0  0  0  0  0  0  0  0  0  0
   -0.7637   -6.9188   -0.3239 O   0  0  0  0  0  0  0  0  0  0  0  0
    7.6992    2.2913    1.0163 O   0  0  0  0  0  0  0  0  0  0  0  0
    6.2288    1.4166   -2.8468 O   0  0  0  0  0  0  0  0  0  0  0  0
   -1.7087    0.6730    0.0773 N   0  0  0  0  0  0  0  0  0  0  0  0
   -1.2501   -2.0676   -0.0582 N   0  0  0  0  0  0  0  0  0  0  0  0
    4.2259    0.2328    0.5205 N   0  0  0  0  0  0  0  0  0  0  0  0
    5.5772    0.4439    0.6417 N   0  0  0  0  0  0  0  0  0  0  0  0
   -3.0437    0.0760   -0.0655 C   0  0  1  0  0  0  0  0  0  0  0  0
   -3.6949   -0.2167    1.2990 C   0  0  1  0  0  0  0  0  0  0  0  0
   -0.4520    0.1784    0.1460 C   0  0  0  0  0  0  0  0  0  0  0  0
   -5.2209   -0.0513    1.2533 C   0  0  2  0  0  0  0  0  0  0  0  0
   -5.7831   -0.3920   -0.1300 C   0  0  1  0  0  0  0  0  0  0  0  0
    0.7042    1.0162    0.2901 C   0  0  0  0  0  0  0  0  0  0  0  0
   -5.0799    0.3909   -1.2597 C   0  0  1  0  0  0  0  0  0  0  0  0
   -1.4602    2.0333    0.1821 C   0  0  0  0  0  0  0  0  0  0  0  0
   -0.2213   -1.2007    0.0779 C   0  0  0  0  0  0  0  0  0  0  0  0
   -0.0511    2.2775    0.3090 C   0  0  0  0  0  0  0  0  0  0  0  0
    2.0235    0.5779    0.3673 C   0  0  0  0  0  0  0  0  0  0  0  0
    1.1465   -1.6273    0.1595 C   0  0  0  0  0  0  0  0  0  0  0  0
    2.2529   -0.7939    0.2996 C   0  0  0  0  0  0  0  0  0  0  0  0
    0.8421   -3.0612    0.0452 C   0  0  0  0  0  0  0  0  0  0  0  0
   -5.9458    1.5379   -1.7703 C   0  0  0  0  0  0  0  0  0  0  0  0
   -0.5716   -3.2769   -0.0805 C   0  0  0  0  0  0  0  0  0  0  0  0
    3.3048    1.2546    0.5117 C   0  0  0  0  0  0  0  0  0  0  0  0
   -2.3938    3.0809    0.1733 C   0  0  0  0  0  0  0  0  0  0  0  0
    3.6864   -1.0281    0.3988 C   0  0  0  0  0  0  0  0  0  0  0  0
    0.3621    3.6267    0.4258 C   0  0  0  0  0  0  0  0  0  0  0  0
   -1.9335    4.3928    0.2916 C   0  0  0  0  0  0  0  0  0  0  0  0
   -0.5772    4.6636    0.4159 C   0  0  0  0  0  0  0  0  0  0  0  0
    1.6729   -4.2076    0.0388 C   0  0  0  0  0  0  0  0  0  0  0  0
   -1.1143   -4.5650   -0.2046 C   0  0  0  0  0  0  0  0  0  0  0  0
    6.0540    1.2916   -0.4430 C   0  0  0  0  0  0  0  0  0  0  0  0
    1.1215   -5.4874   -0.0856 C   0  0  0  0  0  0  0  0  0  0  0  0
   -0.2510   -5.6613   -0.2053 C   0  0  0  0  0  0  0  0  0  0  0  0
    7.5349    1.6186   -0.2269 C   0  0  0  0  0  0  0  0  0  0  0  0
    5.8203    0.5768   -1.7740 C   0  0  0  0  0  0  0  0  0  0  0  0
   -2.9697   -0.7570   -0.7559 H   0  0  0  0  0  0  0  0  0  0  0  0
   -3.2767    0.4378    2.0737 H   0  0  0  0  0  0  0  0  0  0  0  0
   -5.6861   -0.6878    2.0154 H   0  0  0  0  0  0  0  0  0  0  0  0
   -6.8638   -0.2127   -0.1673 H   0  0  0  0  0  0  0  0  0  0  0  0
   -4.8442   -0.2702   -2.1038 H   0  0  0  0  0  0  0  0  0  0  0  0
   -6.8913    1.1681   -2.1788 H   0  0  0  0  0  0  0  0  0  0  0  0
   -6.1527    2.2604   -0.9743 H   0  0  0  0  0  0  0  0  0  0  0  0
   -2.2403   -2.0063    0.0554 H   0  0  0  0  0  0  0  0  0  0  0  0
   -3.4649    2.9256    0.1322 H   0  0  0  0  0  0  0  0  0  0  0  0
    1.4132    3.8780    0.5246 H   0  0  0  0  0  0  0  0  0  0  0  0
   -3.7475   -1.7090    2.5617 H   0  0  0  0  0  0  0  0  0  0  0  0
   -6.5054    1.3902    1.5471 H   0  0  0  0  0  0  0  0  0  0  0  0
   -6.0742   -2.2656    0.3555 H   0  0  0  0  0  0  0  0  0  0  0  0
   -0.2249    5.6884    0.5075 H   0  0  0  0  0  0  0  0  0  0  0  0
    2.7501   -4.1123    0.1301 H   0  0  0  0  0  0  0  0  0  0  0  0
   -2.1877   -4.7053   -0.2980 H   0  0  0  0  0  0  0  0  0  0  0  0
    5.7383    0.9032    1.5378 H   0  0  0  0  0  0  0  0  0  0  0  0
    5.5457    2.2620   -0.4585 H   0  0  0  0  0  0  0  0  0  0  0  0
   -5.8067    2.9430   -3.1006 H   0  0  0  0  0  0  0  0  0  0  0  0
    1.7889   -6.3459   -0.0866 H   0  0  0  0  0  0  0  0  0  0  0  0
   -2.3465    6.2608    0.3749 H   0  0  0  0  0  0  0  0  0  0  0  0
    7.9112    2.2752   -1.0182 H   0  0  0  0  0  0  0  0  0  0  0  0
    8.1454    0.7086   -0.2116 H   0  0  0  0  0  0  0  0  0  0  0  0
    6.3948   -0.3550   -1.8308 H   0  0  0  0  0  0  0  0  0  0  0  0
    4.7653    0.3441   -1.9475 H   0  0  0  0  0  0  0  0  0  0  0  0
   -0.0336   -7.5611   -0.3064 H   0  0  0  0  0  0  0  0  0  0  0  0
    8.6479    2.4810    1.1144 H   0  0  0  0  0  0  0  0  0  0  0  0
    6.0769    0.9226   -3.6706 H   0  0  0  0  0  0  0  0  0  0  0  0
  1 16  1  0  0  0  0
  1 22  1  0  0  0  0
  2 17  1  0  0  0  0
  2 55  1  0  0  0  0
  3 19  1  0  0  0  0
  3 56  1  0  0  0  0
  4 20  1  0  0  0  0
  4 57  1  0  0  0  0
  5 30  1  0  0  0  0
  5 63  1  0  0  0  0
  6 32  2  0  0  0  0
  7 34  2  0  0  0  0
  8 36  1  0  0  0  0
  8 65  1  0  0  0  0
  9 42  1  0  0  0  0
  9 70  1  0  0  0  0
 10 43  1  0  0  0  0
 10 71  1  0  0  0  0
 11 44  1  0  0  0  0
 11 72  1  0  0  0  0
 12 16  1  0  0  0  0
 12 18  1  0  0  0  0
 12 23  1  0  0  0  0
 13 24  1  0  0  0  0
 13 31  1  0  0  0  0
 13 52  1  0  0  0  0
 14 15  1  0  0  0  0
 14 32  1  0  0  0  0
 14 34  1  0  0  0  0
 15 40  1  0  0  0  0
 15 61  1  0  0  0  0
 16 17  1  0  0  0  0
 16 45  1  0  0  0  0
 17 19  1  0  0  0  0
 17 46  1  0  0  0  0
 18 21  1  0  0  0  0
 18 24  2  0  0  0  0
 19 20  1  0  0  0  0
 19 47  1  0  0  0  0
 20 22  1  0  0  0  0
 20 48  1  0  0  0  0
 21 25  1  0  0  0  0
 21 26  2  0  0  0  0
 22 30  1  0  0  0  0
 22 49  1  0  0  0  0
 23 25  2  0  0  0  0
 23 33  1  0  0  0  0
 24 27  1  0  0  0  0
 25 35  1  0  0  0  0
 26 28  1  0  0  0  0
 26 32  1  0  0  0  0
 27 28  2  0  0  0  0
 27 29  1  0  0  0  0
 28 34  1  0  0  0  0
 29 31  2  0  0  0  0
 29 38  1  0  0  0  0
 30 50  1  0  0  0  0
 30 51  1  0  0  0  0
 31 39  1  0  0  0  0
 33 36  2  0  0  0  0
 33 53  1  0  0  0  0
 35 37  2  0  0  0  0
 35 54  1  0  0  0  0
 36 37  1  0  0  0  0
 37 58  1  0  0  0  0
 38 41  2  0  0  0  0
 38 59  1  0  0  0  0
 39 42  2  0  0  0  0
 39 60  1  0  0  0  0
 40 43  1  0  0  0  0
 40 44  1  0  0  0  0
 40 62  1  0  0  0  0
 41 42  1  0  0  0  0
 41 64  1  0  0  0  0
 43 66  1  0  0  0  0
 43 67  1  0  0  0  0
 44 68  1  0  0  0  0
 44 69  1  0  0  0  0
M  END
> <PUBCHEM_COMPOUND_CID>
9808998

> <PUBCHEM_CONFORMER_RMSD>
1

> <PUBCHEM_CONFORMER_DIVERSEORDER>
1
2
3
8
5
6
7
4

> <PUBCHEM_MMFF94_PARTIAL_CHARGES>
58
1 -0.56
10 -0.68
11 -0.68
12 -0.04
13 -0.05
14 -0.11
15 -0.64
16 0.54
17 0.28
18 -0.05
19 0.28
2 -0.68
20 0.28
21 -0.01
22 0.28
23 -0.15
24 -0.05
26 0.09
27 -0.01
28 0.09
3 -0.68
30 0.28
31 -0.15
32 0.54
33 -0.15
34 0.54
35 -0.15
36 0.08
37 -0.15
38 -0.15
39 -0.15
4 -0.68
40 0.27
41 -0.15
42 0.08
43 0.28
44 0.28
5 -0.68
52 0.27
53 0.15
54 0.15
55 0.4
56 0.4
57 0.4
58 0.15
59 0.15
6 -0.57
60 0.15
61 0.36
63 0.4
64 0.15
65 0.45
7 -0.57
70 0.45
71 0.4
72 0.4
8 -0.53
9 -0.53

> <PUBCHEM_EFFECTIVE_ROTOR_COUNT>
7.4

> <PUBCHEM_PHARMACOPHORE_FEATURES>
28
1 1 acceptor
1 10 acceptor
1 10 donor
1 11 acceptor
1 11 donor
1 12 cation
1 13 cation
1 13 donor
1 15 donor
1 2 acceptor
1 2 donor
1 3 acceptor
1 3 donor
1 4 acceptor
1 4 donor
1 5 acceptor
1 5 donor
1 6 acceptor
1 7 acceptor
1 8 donor
1 9 donor
5 12 18 21 23 25 rings
5 13 24 27 29 31 rings
5 14 26 28 32 34 rings
6 1 16 17 19 20 22 rings
6 18 21 24 26 27 28 rings
6 23 25 33 35 36 37 rings
6 29 31 38 39 41 42 rings

> <PUBCHEM_HEAVY_ATOM_COUNT>
44

> <PUBCHEM_ATOM_DEF_STEREO_COUNT>
5

> <PUBCHEM_ATOM_UDEF_STEREO_COUNT>
0

> <PUBCHEM_BOND_DEF_STEREO_COUNT>
0

> <PUBCHEM_BOND_UDEF_STEREO_COUNT>
0

> <PUBCHEM_ISOTOPIC_ATOM_COUNT>
0

> <PUBCHEM_COMPONENT_COUNT>
1

> <PUBCHEM_CACTVS_TAUTO_COUNT>
128

> <PUBCHEM_CONFORMER_ID>
0095AC6600000001

> <PUBCHEM_MMFF94_ENERGY>
168.978

> <PUBCHEM_FEATURE_SELFOVERLAP>
142.607

> <PUBCHEM_SHAPE_FINGERPRINT>
10190108 129 18196400059896661185
102385 1 17834961871289160049
10290309 65 18408888399477466539
1100329 8 18195246839206885096
11135926 11 18338234860761388061
11136131 41 18261665966415660978
11227688 84 18341879776615987279
11991303 11 18188497998540106358
12058002 1 17388853840196429913
12440605 4 18054234224406677585
12758862 11 18129945702427547648
13911987 19 18408597067956578093
140371 6 18189065222217718689
14068700 686 18338801095916202960
14705955 166 12974150948393387678
14790565 3 18339368470266337456
15082195 135 18049429349406755700
15320467 1 18339640143573875163
15890870 6 18408598175657090205
19311894 1 18196093463514012138
20775438 99 16903796886081363479
21133410 127 17681845003883927516
21796203 349 17685534152687302571
22311459 1 18411699929000218032
23516275 137 16557655004534811030
23559900 14 17691117137309052282
283562 15 18343304730051687457
3103668 31 18120933068852857958
3383291 50 18339645641527620560
3882209 13 17109843792884387275
3886686 26 17550069968943099745
4394409 98 18333730225894354540
563151 97 18340484444098103197
6058803 2 17624686861226247137
6669772 16 18342744001023821142
9961470 85 17983567800066758648

> <PUBCHEM_SHAPE_MULTIPOLES>
821.01
14.3
7.88
1.34
12.44
9.71
0.86
-10.94
3.75
-1.53
0
-0.59
-0.78
0.37

> <PUBCHEM_SHAPE_SELFOVERLAP>
1854.036

> <PUBCHEM_SHAPE_VOLUME>
428.1

> <PUBCHEM_COORDINATE_TYPE>
2
5
10

$$$$
