24905341
  -OEChem-10052115153D

 34 36  0     0  0  0  0  0  0999 V2000
   -2.2636    1.0211   -0.0078 N   0  0  0  0  0  0  0  0  0  0  0  0
   -0.9751    1.4093    0.0183 N   0  0  0  0  0  0  0  0  0  0  0  0
   -3.5855   -1.0072   -0.0413 N   0  0  0  0  0  0  0  0  0  0  0  0
   -2.1795   -3.0005   -0.0229 N   0  0  0  0  0  0  0  0  0  0  0  0
    0.2047   -2.8969    0.0238 N   0  0  0  0  0  0  0  0  0  0  0  0
    3.2277    0.2819   -1.1641 N   0  0  0  0  0  0  0  0  0  0  0  0
    6.4491    0.2990   -0.1310 N   0  0  0  0  0  0  0  0  0  0  0  0
   -3.3074    2.0184   -0.0233 C   0  0  0  0  0  0  0  0  0  0  0  0
   -2.4251   -0.3326   -0.0165 C   0  0  0  0  0  0  0  0  0  0  0  0
   -1.1498   -0.8695    0.0054 C   0  0  0  0  0  0  0  0  0  0  0  0
   -0.3019    0.2535    0.0262 C   0  0  0  0  0  0  0  0  0  0  0  0
   -3.2339    2.8907   -1.2791 C   0  0  0  0  0  0  0  0  0  0  0  0
   -3.2814    2.8803    1.2414 C   0  0  0  0  0  0  0  0  0  0  0  0
    1.1390    0.2642    0.0533 C   0  0  0  0  0  0  0  0  0  0  0  0
   -1.0476   -2.2566    0.0016 C   0  0  0  0  0  0  0  0  0  0  0  0
    1.8330    0.2643    1.2583 C   0  0  0  0  0  0  0  0  0  0  0  0
   -3.3613   -2.3390   -0.0427 C   0  0  0  0  0  0  0  0  0  0  0  0
    1.8765    0.2731   -1.1197 C   0  0  0  0  0  0  0  0  0  0  0  0
    3.2234    0.2732    1.2535 C   0  0  0  0  0  0  0  0  0  0  0  0
    3.8676    0.2818    0.0268 C   0  0  0  0  0  0  0  0  0  0  0  0
    5.2908    0.2913   -0.0602 C   0  0  0  0  0  0  0  0  0  0  0  0
   -4.2667    1.4874   -0.0436 H   0  0  0  0  0  0  0  0  0  0  0  0
   -2.3126    3.4831   -1.3078 H   0  0  0  0  0  0  0  0  0  0  0  0
   -4.0807    3.5842   -1.3181 H   0  0  0  0  0  0  0  0  0  0  0  0
   -3.2610    2.2738   -2.1841 H   0  0  0  0  0  0  0  0  0  0  0  0
   -2.3620    3.4724    1.3096 H   0  0  0  0  0  0  0  0  0  0  0  0
   -3.3423    2.2560    2.1398 H   0  0  0  0  0  0  0  0  0  0  0  0
   -4.1292    3.5734    1.2542 H   0  0  0  0  0  0  0  0  0  0  0  0
    1.3045    0.2566    2.2083 H   0  0  0  0  0  0  0  0  0  0  0  0
   -4.2471   -2.9647   -0.0620 H   0  0  0  0  0  0  0  0  0  0  0  0
    1.3952    0.2725   -2.0935 H   0  0  0  0  0  0  0  0  0  0  0  0
    1.0650   -2.3693    0.0436 H   0  0  0  0  0  0  0  0  0  0  0  0
    0.2338   -3.9077    0.0209 H   0  0  0  0  0  0  0  0  0  0  0  0
    3.7730    0.2732    2.1892 H   0  0  0  0  0  0  0  0  0  0  0  0
  1  2  1  0  0  0  0
  1  8  1  0  0  0  0
  1  9  1  0  0  0  0
  2 11  2  0  0  0  0
  3  9  2  0  0  0  0
  3 17  1  0  0  0  0
  4 15  1  0  0  0  0
  4 17  2  0  0  0  0
  5 15  1  0  0  0  0
  5 32  1  0  0  0  0
  5 33  1  0  0  0  0
  6 18  1  0  0  0  0
  6 20  2  0  0  0  0
  7 21  3  0  0  0  0
  8 12  1  0  0  0  0
  8 13  1  0  0  0  0
  8 22  1  0  0  0  0
  9 10  1  0  0  0  0
 10 11  1  0  0  0  0
 10 15  2  0  0  0  0
 11 14  1  0  0  0  0
 12 23  1  0  0  0  0
 12 24  1  0  0  0  0
 12 25  1  0  0  0  0
 13 26  1  0  0  0  0
 13 27  1  0  0  0  0
 13 28  1  0  0  0  0
 14 16  1  0  0  0  0
 14 18  2  0  0  0  0
 16 19  2  0  0  0  0
 16 29  1  0  0  0  0
 17 30  1  0  0  0  0
 18 31  1  0  0  0  0
 19 20  1  0  0  0  0
 19 34  1  0  0  0  0
 20 21  1  0  0  0  0
M  END
> <PUBCHEM_COMPOUND_CID>
24905341

> <PUBCHEM_CONFORMER_RMSD>
0.6

> <PUBCHEM_CONFORMER_DIVERSEORDER>
2
5
4
3
6
1

> <PUBCHEM_MMFF94_PARTIAL_CHARGES>
24
1 0.31
11 0.23
14 0.05
15 0.41
16 -0.15
17 0.47
18 0.16
19 -0.15
2 -0.71
20 0.38
21 0.48
29 0.15
3 -0.57
30 0.15
31 0.15
32 0.4
33 0.4
34 0.15
4 -0.62
5 -0.9
6 -0.62
7 -0.56
8 0.26
9 0.11

> <PUBCHEM_EFFECTIVE_ROTOR_COUNT>
2

> <PUBCHEM_PHARMACOPHORE_FEATURES>
11
1 2 acceptor
1 5 cation
1 5 donor
1 6 acceptor
1 7 acceptor
3 1 3 9 cation
3 3 4 17 cation
3 8 12 13 hydrophobe
5 1 2 9 10 11 rings
6 3 4 9 10 15 17 rings
6 6 14 16 18 19 20 rings

> <PUBCHEM_HEAVY_ATOM_COUNT>
21

> <PUBCHEM_ATOM_DEF_STEREO_COUNT>
0

> <PUBCHEM_ATOM_UDEF_STEREO_COUNT>
0

> <PUBCHEM_BOND_DEF_STEREO_COUNT>
0

> <PUBCHEM_BOND_UDEF_STEREO_COUNT>
0

> <PUBCHEM_ISOTOPIC_ATOM_COUNT>
0

> <PUBCHEM_COMPONENT_COUNT>
1

> <PUBCHEM_CACTVS_TAUTO_COUNT>
5

> <PUBCHEM_CONFORMER_ID>
017C067D00000002

> <PUBCHEM_MMFF94_ENERGY>
45.8254

> <PUBCHEM_FEATURE_SELFOVERLAP>
56.1

> <PUBCHEM_SHAPE_FINGERPRINT>
10165383 225 18268999695940117185
10319926 262 18270098194503549544
10411042 1 17906172102908967787
10493431 412 18269285569126687313
105312 117 18189046504291352957
10616163 171 18410012169470926794
11315181 36 18187644752210702612
11582403 64 16766701778383870840
11796584 16 18342459185037014990
12107183 9 18046619007035626874
12236239 1 17676483977852575158
12390115 104 18200044940742349697
12500047 106 18412258415959878908
12788726 201 18192731143812408295
13140716 1 18122631814886756387
14508225 48 18195233637094472669
15042514 8 18193562387810435227
16752209 62 18336813273751970011
167882 2 17902784163927539607
16945 1 18410854404162520295
17844677 252 18340774840402155352
19049666 15 17988651756911707566
200 152 16443335516297851166
20510252 161 18343301513326404329
20645477 56 18411704261735892257
20871999 31 18411699906992228576
21033648 29 17346305017172482536
21065201 7 18411976979843693490
21279426 13 18199757951613291014
21426921 1 18409448115425541133
2297311 6 18341340001709586206
23175994 123 17060065882184900960
2334 1 18338515214999547727
23402539 116 18340482369491340311
23419403 2 17129279121557380969
23493267 7 18272367551447221032
23557571 272 18272938241079714148
23559900 14 18269831077127891336
23598291 2 17749397013480328236
2748010 2 18193849137270079863
283562 15 18411416241798721835
350125 39 18410576193097106769
4214541 1 18410856573105180524
5104073 3 18409726236686876722
559249 180 18336260146879553538
573450 72 18333722525386640186
57527295 17 16987990575274614905
59755656 215 18342176652807246823
59755656 520 18129104433475457873
6049 1 17988073525554493888
6327066 14 18042959879145971413
633830 44 17699008388307581181
77492 1 17676202498448937496
81228 2 18338239387793827921
84936 182 17623842432032744721
9709674 26 18272097097509995014
9862522 239 17823691976041782509

> <PUBCHEM_SHAPE_MULTIPOLES>
397.3
9.44
3.12
1.03
14.09
0.88
-0.05
-3.37
0.37
-5.55
0.03
0.17
-0.55
-0.02

> <PUBCHEM_SHAPE_SELFOVERLAP>
871.901

> <PUBCHEM_SHAPE_VOLUME>
209.5

> <PUBCHEM_COORDINATE_TYPE>
2
5
10

$$$$
