24905315
  -OEChem-10052115163D

 42 45  0     1  0  0  0  0  0999 V2000
    5.4004    2.1019   -0.4927 F   0  0  0  0  0  0  0  0  0  0  0  0
    4.3932    1.4849    1.9934 O   0  0  0  0  0  0  0  0  0  0  0  0
   -1.7396   -0.3273    0.1294 N   0  0  0  0  0  0  0  0  0  0  0  0
   -0.7257    0.5547    0.0545 N   0  0  0  0  0  0  0  0  0  0  0  0
   -2.1176   -2.7188    0.1112 N   0  0  0  0  0  0  0  0  0  0  0  0
   -0.0297   -3.9604   -0.1117 N   0  0  0  0  0  0  0  0  0  0  0  0
    2.0960   -2.8887   -0.2852 N   0  0  0  0  0  0  0  0  0  0  0  0
   -3.1579    0.1773    0.2734 C   0  0  2  0  0  0  0  0  0  0  0  0
   -4.5178    2.1037   -0.2936 C   0  0  1  0  0  0  0  0  0  0  0  0
   -3.5929    1.0578   -0.9130 C   0  0  0  0  0  0  0  0  0  0  0  0
   -3.4101    1.0254    1.5377 C   0  0  0  0  0  0  0  0  0  0  0  0
   -3.8352    2.4019    1.0368 C   0  0  0  0  0  0  0  0  0  0  0  0
   -4.6952    3.3360   -1.1634 C   0  0  0  0  0  0  0  0  0  0  0  0
   -1.3366   -1.6280    0.0626 C   0  0  0  0  0  0  0  0  0  0  0  0
    0.0409   -1.5950   -0.0654 C   0  0  0  0  0  0  0  0  0  0  0  0
    0.3559   -0.2233   -0.0641 C   0  0  0  0  0  0  0  0  0  0  0  0
    0.6973   -2.8180   -0.1540 C   0  0  0  0  0  0  0  0  0  0  0  0
    1.6616    0.3770   -0.1728 C   0  0  0  0  0  0  0  0  0  0  0  0
   -1.3728   -3.8415    0.0164 C   0  0  0  0  0  0  0  0  0  0  0  0
    2.4059    0.6424    0.9767 C   0  0  0  0  0  0  0  0  0  0  0  0
    2.1803    0.6942   -1.4283 C   0  0  0  0  0  0  0  0  0  0  0  0
    3.6689    1.2248    0.8708 C   0  0  0  0  0  0  0  0  0  0  0  0
    3.4432    1.2769   -1.5340 C   0  0  0  0  0  0  0  0  0  0  0  0
    4.1876    1.5422   -0.3845 C   0  0  0  0  0  0  0  0  0  0  0  0
   -3.7813   -0.7240    0.3165 H   0  0  0  0  0  0  0  0  0  0  0  0
   -5.5008    1.6522   -0.1054 H   0  0  0  0  0  0  0  0  0  0  0  0
   -4.1070    0.4673   -1.6792 H   0  0  0  0  0  0  0  0  0  0  0  0
   -2.7344    1.5386   -1.3974 H   0  0  0  0  0  0  0  0  0  0  0  0
   -2.5438    1.0878    2.2037 H   0  0  0  0  0  0  0  0  0  0  0  0
   -4.2320    0.5782    2.1105 H   0  0  0  0  0  0  0  0  0  0  0  0
   -4.5002    2.9074    1.7436 H   0  0  0  0  0  0  0  0  0  0  0  0
   -2.9507    3.0340    0.8907 H   0  0  0  0  0  0  0  0  0  0  0  0
   -3.7362    3.8214   -1.3737 H   0  0  0  0  0  0  0  0  0  0  0  0
   -5.3414    4.0678   -0.6679 H   0  0  0  0  0  0  0  0  0  0  0  0
   -5.1550    3.0693   -2.1206 H   0  0  0  0  0  0  0  0  0  0  0  0
   -1.9241   -4.7752    0.0470 H   0  0  0  0  0  0  0  0  0  0  0  0
    2.0037    0.3962    1.9573 H   0  0  0  0  0  0  0  0  0  0  0  0
    1.6130    0.4936   -2.3341 H   0  0  0  0  0  0  0  0  0  0  0  0
    2.6638   -2.0549   -0.3198 H   0  0  0  0  0  0  0  0  0  0  0  0
    2.5331   -3.7986   -0.3466 H   0  0  0  0  0  0  0  0  0  0  0  0
    3.8475    1.5240   -2.5112 H   0  0  0  0  0  0  0  0  0  0  0  0
    3.8826    1.2022    2.7714 H   0  0  0  0  0  0  0  0  0  0  0  0
  1 24  1  0  0  0  0
  2 22  1  0  0  0  0
  2 42  1  0  0  0  0
  3  4  1  0  0  0  0
  3  8  1  0  0  0  0
  3 14  1  0  0  0  0
  4 16  2  0  0  0  0
  5 14  2  0  0  0  0
  5 19  1  0  0  0  0
  6 17  1  0  0  0  0
  6 19  2  0  0  0  0
  7 17  1  0  0  0  0
  7 39  1  0  0  0  0
  7 40  1  0  0  0  0
  8 10  1  0  0  0  0
  8 11  1  0  0  0  0
  8 25  1  0  0  0  0
  9 10  1  0  0  0  0
  9 12  1  0  0  0  0
  9 13  1  0  0  0  0
  9 26  1  0  0  0  0
 10 27  1  0  0  0  0
 10 28  1  0  0  0  0
 11 12  1  0  0  0  0
 11 29  1  0  0  0  0
 11 30  1  0  0  0  0
 12 31  1  0  0  0  0
 12 32  1  0  0  0  0
 13 33  1  0  0  0  0
 13 34  1  0  0  0  0
 13 35  1  0  0  0  0
 14 15  1  0  0  0  0
 15 16  1  0  0  0  0
 15 17  2  0  0  0  0
 16 18  1  0  0  0  0
 18 20  2  0  0  0  0
 18 21  1  0  0  0  0
 19 36  1  0  0  0  0
 20 22  1  0  0  0  0
 20 37  1  0  0  0  0
 21 23  2  0  0  0  0
 21 38  1  0  0  0  0
 22 24  2  0  0  0  0
 23 24  1  0  0  0  0
 23 41  1  0  0  0  0
M  END
> <PUBCHEM_COMPOUND_CID>
24905315

> <PUBCHEM_CONFORMER_RMSD>
0.6

> <PUBCHEM_CONFORMER_DIVERSEORDER>
2
41
27
34
11
30
39
33
25
38
28
35
19
18
22
10
29
42
21
36
31
4
8
15
40
37
14
32
17
5
26
3
6
24
1
23
7
9
12
16
13
20

> <PUBCHEM_MMFF94_PARTIAL_CHARGES>
25
1 -0.19
14 0.11
16 0.23
17 0.41
18 0.05
19 0.47
2 -0.53
20 -0.15
21 -0.15
22 0.08
23 -0.15
24 0.19
3 0.31
36 0.15
37 0.15
38 0.15
39 0.4
4 -0.71
40 0.4
41 0.15
42 0.45
5 -0.57
6 -0.62
7 -0.9
8 0.26

> <PUBCHEM_EFFECTIVE_ROTOR_COUNT>
3

> <PUBCHEM_PHARMACOPHORE_FEATURES>
10
1 2 donor
1 4 acceptor
1 7 cation
1 7 donor
3 3 5 14 cation
3 5 6 19 cation
5 3 4 14 15 16 rings
5 8 9 10 11 12 rings
6 18 20 21 22 23 24 rings
6 5 6 14 15 17 19 rings

> <PUBCHEM_HEAVY_ATOM_COUNT>
24

> <PUBCHEM_ATOM_DEF_STEREO_COUNT>
0

> <PUBCHEM_ATOM_UDEF_STEREO_COUNT>
2

> <PUBCHEM_BOND_DEF_STEREO_COUNT>
0

> <PUBCHEM_BOND_UDEF_STEREO_COUNT>
0

> <PUBCHEM_ISOTOPIC_ATOM_COUNT>
0

> <PUBCHEM_COMPONENT_COUNT>
1

> <PUBCHEM_CACTVS_TAUTO_COUNT>
15

> <PUBCHEM_CONFORMER_ID>
017C066300000002

> <PUBCHEM_MMFF94_ENERGY>
58.1107

> <PUBCHEM_FEATURE_SELFOVERLAP>
51.026

> <PUBCHEM_SHAPE_FINGERPRINT>
10165383 225 18269296654215491961
10411042 1 17402335265740084543
105312 117 18409169926104333956
11370993 144 14274001217705551661
11582403 64 17201325608393110584
11725454 13 17201895181170349872
11796584 16 18341905112959881742
11833330 49 17833829752443720011
12107183 9 18334564725808608144
12160290 23 18125736813895571467
12173636 292 18338516477039295311
12236239 1 17461712089812211094
12422481 6 17968926488740481440
12500047 106 18341053020806205252
12788726 201 17901384816174813370
13134695 92 17471572123464266343
13140716 1 18337397032732685691
13878862 14 17759518868819541941
13965767 371 18115293502104686856
14178000 22 18411130359689290363
14178342 30 18265048205720804594
14294032 229 18410581721321370813
14347424 109 8790013325389426285
14508225 48 17622438768069390151
14848178 96 18340488846476420393
15042514 8 17905056094179854843
15230672 131 18335709330688902134
15842332 3 17678455492606558980
16752209 62 18194679504345289314
16988056 13 17398377633986642997
1741750 31 18412265059862822787
17980427 23 17195716767651584857
1813 80 7925624531538100337
19784866 34 18341619170436857417
20510252 161 17983584279501948667
21033648 29 18412542123940659240
21279426 13 18272104764464221574
212916 134 18341038688221069208
21304303 282 17983542403861229655
22149856 69 18191609471441217537
2255824 54 18053102813972111447
22907989 373 17975973481742527687
23557571 272 18057336187025925660
23559900 14 17974852761887834291
266924 87 18340199812610808079
283562 15 18195245757128801675
3091708 16 9049699223425058307
469060 322 18193010411919727835
474 4 18267580209227007907
495365 180 18266173920901628009
57124632 79 18265610987927531561
59755656 520 18058750064310350771
6327066 14 18333728026860685565
633830 44 17844826788693297481
6443956 14 17691406304435111191
7471813 234 17410474504181189241
7808743 9 18264778829662094852
81228 2 17907588269474050963
84936 182 18128817434928068809
9862522 239 18040989648760769133
9981440 41 18409442575387221899

> <PUBCHEM_SHAPE_MULTIPOLES>
455.86
9.36
4.48
1.28
0.08
4.85
0.19
-12.21
0
1.36
-0.5
-0.43
-0.95
0.59

> <PUBCHEM_SHAPE_SELFOVERLAP>
1006.002

> <PUBCHEM_SHAPE_VOLUME>
247.8

> <PUBCHEM_COORDINATE_TYPE>
2
5
10

$$$$
