255603
  -OEChem-10052115183D

 43 44  0     0  0  0  0  0  0999 V2000
    4.4265   -3.0630    0.0140 O   0  0  0  0  0  0  0  0  0  0  0  0
   -5.2641   -0.5670   -1.0159 O   0  0  0  0  0  0  0  0  0  0  0  0
    2.5509    4.2734   -0.2996 O   0  0  0  0  0  0  0  0  0  0  0  0
    2.5500   -3.7073   -1.0959 O   0  0  0  0  0  0  0  0  0  0  0  0
   -4.4249    1.2860    0.9278 N   0  0  0  0  0  0  0  0  0  0  0  0
    1.5231    2.7530   -2.4322 N   0  0  0  0  0  0  0  0  0  0  0  0
    0.0839   -0.6858    0.7837 C   0  0  0  0  0  0  0  0  0  0  0  0
    0.9272   -1.8191    0.0926 C   0  0  0  0  0  0  0  0  0  0  0  0
   -1.3913   -0.6484    0.2916 C   0  0  0  0  0  0  0  0  0  0  0  0
    0.7594    0.6729    0.4805 C   0  0  0  0  0  0  0  0  0  0  0  0
    0.0137   -1.0295    2.2987 C   0  0  0  0  0  0  0  0  0  0  0  0
    2.4030   -1.9001    0.5016 C   0  0  0  0  0  0  0  0  0  0  0  0
   -2.2162    0.2929    0.8334 C   0  0  0  0  0  0  0  0  0  0  0  0
    0.8275    1.0791   -0.8237 C   0  0  0  0  0  0  0  0  0  0  0  0
   -1.7672   -1.5595   -0.6512 C   0  0  0  0  0  0  0  0  0  0  0  0
    1.2510    1.3935    1.5340 C   0  0  0  0  0  0  0  0  0  0  0  0
   -3.5389    0.3262    0.3916 C   0  0  0  0  0  0  0  0  0  0  0  0
    1.4362    2.3041   -1.0963 C   0  0  0  0  0  0  0  0  0  0  0  0
   -3.0899   -1.5260   -1.0931 C   0  0  0  0  0  0  0  0  0  0  0  0
    1.8595    2.6186    1.2615 C   0  0  0  0  0  0  0  0  0  0  0  0
    3.1040   -2.9851   -0.2774 C   0  0  0  0  0  0  0  0  0  0  0  0
   -3.9757   -0.5831   -0.5718 C   0  0  0  0  0  0  0  0  0  0  0  0
    1.9521    3.0741   -0.0537 C   0  0  0  0  0  0  0  0  0  0  0  0
    0.4725   -2.7966    0.3099 H   0  0  0  0  0  0  0  0  0  0  0  0
    0.9038   -1.7011   -0.9996 H   0  0  0  0  0  0  0  0  0  0  0  0
    1.0030   -1.1088    2.7614 H   0  0  0  0  0  0  0  0  0  0  0  0
   -0.4813   -1.9979    2.4500 H   0  0  0  0  0  0  0  0  0  0  0  0
   -0.5533   -0.2985    2.8868 H   0  0  0  0  0  0  0  0  0  0  0  0
    2.5025   -2.1433    1.5630 H   0  0  0  0  0  0  0  0  0  0  0  0
    2.9214   -0.9595    0.2931 H   0  0  0  0  0  0  0  0  0  0  0  0
   -1.8806    1.0090    1.5766 H   0  0  0  0  0  0  0  0  0  0  0  0
    0.4249    0.4853   -1.6382 H   0  0  0  0  0  0  0  0  0  0  0  0
   -1.1323   -2.3155   -1.0915 H   0  0  0  0  0  0  0  0  0  0  0  0
    1.2065    1.0871    2.5707 H   0  0  0  0  0  0  0  0  0  0  0  0
   -3.4176   -2.2408   -1.8435 H   0  0  0  0  0  0  0  0  0  0  0  0
    2.2600    3.2138    2.0778 H   0  0  0  0  0  0  0  0  0  0  0  0
   -4.1012    1.9417    1.6263 H   0  0  0  0  0  0  0  0  0  0  0  0
   -5.3853    1.3152    0.6123 H   0  0  0  0  0  0  0  0  0  0  0  0
    1.1438    2.1724   -3.1696 H   0  0  0  0  0  0  0  0  0  0  0  0
    2.0412    3.5791   -2.6900 H   0  0  0  0  0  0  0  0  0  0  0  0
    4.8746   -3.7654   -0.5038 H   0  0  0  0  0  0  0  0  0  0  0  0
   -5.3802   -1.2680   -1.6800 H   0  0  0  0  0  0  0  0  0  0  0  0
    2.4234    4.5266   -1.2263 H   0  0  0  0  0  0  0  0  0  0  0  0
  1 21  1  0  0  0  0
  1 41  1  0  0  0  0
  2 22  1  0  0  0  0
  2 42  1  0  0  0  0
  3 23  1  0  0  0  0
  3 43  1  0  0  0  0
  4 21  2  0  0  0  0
  5 17  1  0  0  0  0
  5 37  1  0  0  0  0
  5 38  1  0  0  0  0
  6 18  1  0  0  0  0
  6 39  1  0  0  0  0
  6 40  1  0  0  0  0
  7  8  1  0  0  0  0
  7  9  1  0  0  0  0
  7 10  1  0  0  0  0
  7 11  1  0  0  0  0
  8 12  1  0  0  0  0
  8 24  1  0  0  0  0
  8 25  1  0  0  0  0
  9 13  2  0  0  0  0
  9 15  1  0  0  0  0
 10 14  2  0  0  0  0
 10 16  1  0  0  0  0
 11 26  1  0  0  0  0
 11 27  1  0  0  0  0
 11 28  1  0  0  0  0
 12 21  1  0  0  0  0
 12 29  1  0  0  0  0
 12 30  1  0  0  0  0
 13 17  1  0  0  0  0
 13 31  1  0  0  0  0
 14 18  1  0  0  0  0
 14 32  1  0  0  0  0
 15 19  2  0  0  0  0
 15 33  1  0  0  0  0
 16 20  2  0  0  0  0
 16 34  1  0  0  0  0
 17 22  2  0  0  0  0
 18 23  2  0  0  0  0
 19 22  1  0  0  0  0
 19 35  1  0  0  0  0
 20 23  1  0  0  0  0
 20 36  1  0  0  0  0
M  END
> <PUBCHEM_COMPOUND_CID>
255603

> <PUBCHEM_CONFORMER_RMSD>
0.8

> <PUBCHEM_CONFORMER_DIVERSEORDER>
1
27
34
33
26
21
10
9
14
18
30
19
11
17
20
23
6
5
24
16
29
22
15
4
35
28
25
12
32
31
8
13
7
3
2

> <PUBCHEM_MMFF94_PARTIAL_CHARGES>
34
1 -0.65
10 -0.14
12 0.06
13 -0.15
14 -0.15
15 -0.15
16 -0.15
17 0.1
18 0.1
19 -0.15
2 -0.53
20 -0.15
21 0.66
22 0.08
23 0.08
3 -0.53
31 0.15
32 0.15
33 0.15
34 0.15
35 0.15
36 0.15
37 0.4
38 0.4
39 0.4
4 -0.57
40 0.4
41 0.5
42 0.45
43 0.45
5 -0.9
6 -0.9
7 0.29
9 -0.14

> <PUBCHEM_EFFECTIVE_ROTOR_COUNT>
5

> <PUBCHEM_PHARMACOPHORE_FEATURES>
12
1 1 acceptor
1 11 hydrophobe
1 2 donor
1 3 donor
1 4 acceptor
1 5 cation
1 5 donor
1 6 cation
1 6 donor
3 1 4 21 anion
6 10 14 16 18 20 23 rings
6 9 13 15 17 19 22 rings

> <PUBCHEM_HEAVY_ATOM_COUNT>
23

> <PUBCHEM_ATOM_DEF_STEREO_COUNT>
0

> <PUBCHEM_ATOM_UDEF_STEREO_COUNT>
0

> <PUBCHEM_BOND_DEF_STEREO_COUNT>
0

> <PUBCHEM_BOND_UDEF_STEREO_COUNT>
0

> <PUBCHEM_ISOTOPIC_ATOM_COUNT>
0

> <PUBCHEM_COMPONENT_COUNT>
1

> <PUBCHEM_CACTVS_TAUTO_COUNT>
13

> <PUBCHEM_CONFORMER_ID>
0003E67300000001

> <PUBCHEM_MMFF94_ENERGY>
99.7344

> <PUBCHEM_FEATURE_SELFOVERLAP>
60.959

> <PUBCHEM_SHAPE_FINGERPRINT>
11045515 52 18192153689944598774
11101153 10 18192446173867189790
11582403 64 15550758707151678376
11640471 11 17175161826940533413
11833330 49 17977667507217724282
121448 382 17480584179788597856
12633257 1 13986039234440319381
12788726 201 17757274778033868170
13004483 165 17979633438166479074
13009979 54 17988931011801809467
13134695 92 18337677416544395164
13149001 5 17968393293756608514
133893 2 18336275620807665195
13590594 115 18193281788938215145
13681431 1 18409738335230148578
14181834 199 18343586235029384486
14251757 17 16299538031300875110
14910302 57 17269203757193088510
14955137 171 18052561888610835075
15906896 17 16961531176087285946
17980427 23 17631724968283017247
1813 80 18263919947618583754
20600515 1 17985556541432451254
20671657 1 18411422829988052655
21304303 64 17968679128567514980
21524375 3 17609765762334158985
21756936 100 15434830655101179612
22907989 373 17472711230268749222
23366157 5 18336259123822710403
23419403 2 17841682181174305864
23559900 14 18200295698408501163
23566358 27 18339083791218013907
25222932 49 14538253672001468479
283562 15 17830176810008259618
312423 11 18343305877556625723
4017518 198 17985267616006306540
4409770 3 17328571830982197311
474 4 18042391607854007745
497634 4 17128743388954944098
532947 4 18340496681213660476
6443956 14 18411979135722019040
6992083 37 17913501138081019611
70251023 43 18336542725646872763
7364860 26 18342730853590246843
81228 2 17759260500407434210
84936 182 18200031896652365185
9981440 41 17979066420593789841

> <PUBCHEM_SHAPE_MULTIPOLES>
439.89
6.96
4.56
1.62
8.11
0.15
-0.04
-1.65
1.4
-7.78
1.35
-0.26
0.57
-0.64

> <PUBCHEM_SHAPE_SELFOVERLAP>
946.457

> <PUBCHEM_SHAPE_VOLUME>
242.2

> <PUBCHEM_COORDINATE_TYPE>
2
5
10

$$$$
