884767
  -OEChem-10052115183D

 31 33  0     0  0  0  0  0  0999 V2000
    1.5706    1.6648   -0.0005 S   0  0  0  0  0  0  0  0  0  0  0  0
   -2.1650    2.1024    0.0005 N   0  0  0  0  0  0  0  0  0  0  0  0
   -0.8368    0.3672   -0.0005 N   0  0  0  0  0  0  0  0  0  0  0  0
   -0.9412    2.6522    0.0003 N   0  0  0  0  0  0  0  0  0  0  0  0
   -5.5221   -1.7471    0.0002 N   0  0  0  0  0  0  0  0  0  0  0  0
    3.4565   -0.3487    0.0000 C   0  0  0  0  0  0  0  0  0  0  0  0
    1.9848   -0.1060   -0.0002 C   0  0  0  0  0  0  0  0  0  0  0  0
   -2.0944    0.7442   -0.0001 C   0  0  0  0  0  0  0  0  0  0  0  0
   -3.2591   -0.1024    0.0000 C   0  0  0  0  0  0  0  0  0  0  0  0
   -0.1921    1.5595   -0.0007 C   0  0  0  0  0  0  0  0  0  0  0  0
    4.1446   -0.4619    1.2080 C   0  0  0  0  0  0  0  0  0  0  0  0
    4.1448   -0.4619   -1.2079 C   0  0  0  0  0  0  0  0  0  0  0  0
   -3.1185   -1.4869   -0.0004 C   0  0  0  0  0  0  0  0  0  0  0  0
   -4.5325    0.4588    0.0003 C   0  0  0  0  0  0  0  0  0  0  0  0
    5.5210   -0.6883    1.2082 C   0  0  0  0  0  0  0  0  0  0  0  0
    5.5211   -0.6883   -1.2078 C   0  0  0  0  0  0  0  0  0  0  0  0
    6.2092   -0.8015    0.0003 C   0  0  0  0  0  0  0  0  0  0  0  0
   -4.2701   -2.2574   -0.0002 C   0  0  0  0  0  0  0  0  0  0  0  0
   -5.6209   -0.3988    0.0004 C   0  0  0  0  0  0  0  0  0  0  0  0
    1.5344   -0.5836   -0.8789 H   0  0  0  0  0  0  0  0  0  0  0  0
    1.5342   -0.5833    0.8786 H   0  0  0  0  0  0  0  0  0  0  0  0
    3.6208   -0.3746    2.1563 H   0  0  0  0  0  0  0  0  0  0  0  0
    3.6212   -0.3745   -2.1563 H   0  0  0  0  0  0  0  0  0  0  0  0
   -2.9689    2.7188    0.0011 H   0  0  0  0  0  0  0  0  0  0  0  0
   -2.1469   -1.9705   -0.0007 H   0  0  0  0  0  0  0  0  0  0  0  0
   -4.7164    1.5271    0.0005 H   0  0  0  0  0  0  0  0  0  0  0  0
    6.0569   -0.7760    2.1488 H   0  0  0  0  0  0  0  0  0  0  0  0
    6.0573   -0.7762   -2.1483 H   0  0  0  0  0  0  0  0  0  0  0  0
    7.2809   -0.9775    0.0004 H   0  0  0  0  0  0  0  0  0  0  0  0
   -4.2135   -3.3410   -0.0005 H   0  0  0  0  0  0  0  0  0  0  0  0
   -6.6342   -0.0108    0.0007 H   0  0  0  0  0  0  0  0  0  0  0  0
  1  7  1  0  0  0  0
  1 10  1  0  0  0  0
  2  4  1  0  0  0  0
  2  8  1  0  0  0  0
  2 24  1  0  0  0  0
  3  8  2  0  0  0  0
  3 10  1  0  0  0  0
  4 10  2  0  0  0  0
  5 18  2  0  0  0  0
  5 19  1  0  0  0  0
  6  7  1  0  0  0  0
  6 11  2  0  0  0  0
  6 12  1  0  0  0  0
  7 20  1  0  0  0  0
  7 21  1  0  0  0  0
  8  9  1  0  0  0  0
  9 13  2  0  0  0  0
  9 14  1  0  0  0  0
 11 15  1  0  0  0  0
 11 22  1  0  0  0  0
 12 16  2  0  0  0  0
 12 23  1  0  0  0  0
 13 18  1  0  0  0  0
 13 25  1  0  0  0  0
 14 19  2  0  0  0  0
 14 26  1  0  0  0  0
 15 17  2  0  0  0  0
 15 27  1  0  0  0  0
 16 17  1  0  0  0  0
 16 28  1  0  0  0  0
 17 29  1  0  0  0  0
 18 30  1  0  0  0  0
 19 31  1  0  0  0  0
M  END
> <PUBCHEM_COMPOUND_CID>
884767

> <PUBCHEM_CONFORMER_RMSD>
0.6

> <PUBCHEM_CONFORMER_DIVERSEORDER>
1
7
21
48
22
6
35
23
36
45
10
19
47
5
46
43
38
30
41
4
54
33
52
42
29
20
18
40
15
3
51
44
53
14
2
9
28
34
32
39
27
11
25
8
26
24
31
50
49
37
13
12
16
17

> <PUBCHEM_MMFF94_PARTIAL_CHARGES>
29
1 -0.28
10 0.57
11 -0.15
12 -0.15
13 -0.15
14 -0.15
15 -0.15
16 -0.15
17 -0.15
18 0.16
19 0.16
2 0.3
22 0.15
23 0.15
24 0.27
25 0.15
26 0.15
27 0.15
28 0.15
29 0.15
3 -0.57
30 0.15
31 0.15
4 -0.71
5 -0.62
6 -0.14
7 0.37
8 0.13
9 0.05

> <PUBCHEM_EFFECTIVE_ROTOR_COUNT>
4

> <PUBCHEM_PHARMACOPHORE_FEATURES>
7
1 2 donor
1 5 acceptor
3 2 3 8 cation
3 3 4 10 cation
5 2 3 4 8 10 rings
6 5 9 13 14 18 19 rings
6 6 11 12 15 16 17 rings

> <PUBCHEM_HEAVY_ATOM_COUNT>
19

> <PUBCHEM_ATOM_DEF_STEREO_COUNT>
0

> <PUBCHEM_ATOM_UDEF_STEREO_COUNT>
0

> <PUBCHEM_BOND_DEF_STEREO_COUNT>
0

> <PUBCHEM_BOND_UDEF_STEREO_COUNT>
0

> <PUBCHEM_ISOTOPIC_ATOM_COUNT>
0

> <PUBCHEM_COMPONENT_COUNT>
1

> <PUBCHEM_CACTVS_TAUTO_COUNT>
4

> <PUBCHEM_CONFORMER_ID>
000D801F00000001

> <PUBCHEM_MMFF94_ENERGY>
37.6655

> <PUBCHEM_FEATURE_SELFOVERLAP>
38.309

> <PUBCHEM_SHAPE_FINGERPRINT>
100836 57 10015582822189199744
10354089 29 14045738227819093354
10803635 8 17894621540069236983
11046707 91 18409448076691863569
11056379 131 18266183837833824380
11128504 68 16950566601205656492
11524674 6 16917347030584204975
11552529 35 14332253421354989380
12236239 1 17749390339101104150
12516196 113 18202001044726108312
12555020 224 18337943593797559935
12760667 363 18341891901033745973
12788726 201 18261388884846985601
13288520 33 18410857659605169533
13402501 40 18202286896348782086
13685833 64 18409451427304346859
13740256 8 18410856589873482649
13862211 1 18410290337370058383
14123256 34 18339933691709137323
1420 363 18131351903903865494
14251751 18 18410570699686248504
14251752 14 17530956952432714869
14341114 176 16343704335578302504
14386348 63 18060422395779265238
14576447 43 18113900451363866018
15183329 4 14129332966869941536
15352361 1 18411419522483400519
15537594 2 18259989245152066027
15880784 105 16773790437348892863
17138139 8 17677325147060938898
17492 89 17979071923264994927
17857418 61 18333448742290135594
1813 80 17749379425362962685
18222031 100 18260550013662923244
19141452 34 17704068529712453327
193927 3 18340777012832245467
200 152 16877662336143956020
20028762 73 18201154455149037422
20374829 77 18408884044686037641
20403669 9 18412546526207641183
21033648 29 16773218596928915080
21054139 6 18113056018023634978
21267235 1 18408891767554395539
21623969 137 16988847151305615678
22061861 79 14418130686948242978
2297311 6 18272097067328854268
23016692 55 18410016537262197740
23198884 109 15140959539616721693
23402539 116 18334290955064274734
23522609 53 18118435936122710333
23557571 272 18130233644585859948
23559900 14 18338791333915085873
239999 70 18272371988691775814
25147074 1 18263382367852798693
2767999 5 9943808863354380579
2838139 119 8070031030070945410
3004659 81 18187366553692613348
312425 54 17703238312259894923
314173 85 18273217490925619097
335352 9 18409728461817662573
351380 3 18333167275719055066
4325135 7 18408605894710638948
465052 167 18342183309679189718
5104073 3 18271251641998403633
559249 180 18408882928537924555
5718773 13 18128249190008511055
59682541 35 18271515508015415096
59682541 52 13768190680588129082
8863177 126 17825400827976337251

> <PUBCHEM_SHAPE_MULTIPOLES>
374.94
15.72
2.1
0.92
5.41
0.69
0
-9.24
0
-2.39
0
1.55
-0.18
0

> <PUBCHEM_SHAPE_SELFOVERLAP>
803.447

> <PUBCHEM_SHAPE_VOLUME>
209.1

> <PUBCHEM_COORDINATE_TYPE>
2
5
10

$$$$
