49830281
  -OEChem-10052120443D

 43 46  0     1  0  0  0  0  0999 V2000
   -2.4789   -0.8645    0.5875 N   0  0  0  0  0  0  0  0  0  0  0  0
   -2.1997    2.4948   -0.9786 N   0  0  0  0  0  0  0  0  0  0  0  0
   -0.1985   -0.9003    0.1672 N   0  0  0  0  0  0  0  0  0  0  0  0
   -1.4461   -2.9383    0.4793 N   0  0  0  0  0  0  0  0  0  0  0  0
    4.1524   -0.5096   -1.0697 N   0  0  0  0  0  0  0  0  0  0  0  0
    4.5454    1.6995   -0.1928 N   0  0  0  0  0  0  0  0  0  0  0  0
   -2.5185    0.5862    0.5369 C   0  0  1  0  0  0  0  0  0  0  0  0
   -2.5105    1.0615   -0.9289 C   0  0  1  0  0  0  0  0  0  0  0  0
   -3.7369    1.0923    1.3202 C   0  0  0  0  0  0  0  0  0  0  0  0
   -3.8594    0.8100   -1.6229 C   0  0  0  0  0  0  0  0  0  0  0  0
   -5.0583    0.8217    0.6006 C   0  0  0  0  0  0  0  0  0  0  0  0
   -5.0474    1.3524   -0.8292 C   0  0  0  0  0  0  0  0  0  0  0  0
   -1.3251   -1.5992    0.4034 C   0  0  0  0  0  0  0  0  0  0  0  0
    0.9100   -1.6493   -0.0078 C   0  0  0  0  0  0  0  0  0  0  0  0
    2.1210   -0.9233   -0.2612 C   0  0  0  0  0  0  0  0  0  0  0  0
    2.5167    0.3705    0.1703 C   0  0  0  0  0  0  0  0  0  0  0  0
    0.9198   -3.0283    0.0459 C   0  0  0  0  0  0  0  0  0  0  0  0
   -0.2994   -3.6249    0.2951 C   0  0  0  0  0  0  0  0  0  0  0  0
    3.7872    0.5979   -0.3506 C   0  0  0  0  0  0  0  0  0  0  0  0
    3.1470   -1.4402   -1.0225 C   0  0  0  0  0  0  0  0  0  0  0  0
    1.9454    1.3902    0.9487 C   0  0  0  0  0  0  0  0  0  0  0  0
    2.6878    2.5534    1.1442 C   0  0  0  0  0  0  0  0  0  0  0  0
    3.9461    2.6475    0.5649 C   0  0  0  0  0  0  0  0  0  0  0  0
   -1.6345    0.9761    1.0600 H   0  0  0  0  0  0  0  0  0  0  0  0
   -1.7323    0.5429   -1.5007 H   0  0  0  0  0  0  0  0  0  0  0  0
   -3.6398    2.1737    1.4803 H   0  0  0  0  0  0  0  0  0  0  0  0
   -3.7677    0.6314    2.3153 H   0  0  0  0  0  0  0  0  0  0  0  0
   -3.9916   -0.2707   -1.7634 H   0  0  0  0  0  0  0  0  0  0  0  0
   -3.8608    1.2492   -2.6284 H   0  0  0  0  0  0  0  0  0  0  0  0
   -5.8780    1.2903    1.1574 H   0  0  0  0  0  0  0  0  0  0  0  0
   -5.2656   -0.2548    0.5888 H   0  0  0  0  0  0  0  0  0  0  0  0
   -5.0169    2.4485   -0.8134 H   0  0  0  0  0  0  0  0  0  0  0  0
   -5.9807    1.0714   -1.3306 H   0  0  0  0  0  0  0  0  0  0  0  0
   -3.3366   -1.3858    0.7252 H   0  0  0  0  0  0  0  0  0  0  0  0
   -1.2754    2.6579   -0.5810 H   0  0  0  0  0  0  0  0  0  0  0  0
   -2.1529    2.8019   -1.9493 H   0  0  0  0  0  0  0  0  0  0  0  0
    1.8075   -3.6353   -0.0798 H   0  0  0  0  0  0  0  0  0  0  0  0
   -0.3902   -4.7040    0.3587 H   0  0  0  0  0  0  0  0  0  0  0  0
    3.2653   -2.3787   -1.5475 H   0  0  0  0  0  0  0  0  0  0  0  0
    5.0281   -0.6213   -1.5614 H   0  0  0  0  0  0  0  0  0  0  0  0
    0.9612    1.2905    1.3940 H   0  0  0  0  0  0  0  0  0  0  0  0
    2.2894    3.3686    1.7385 H   0  0  0  0  0  0  0  0  0  0  0  0
    4.5389    3.5473    0.7073 H   0  0  0  0  0  0  0  0  0  0  0  0
  1  7  1  0  0  0  0
  1 13  1  0  0  0  0
  1 34  1  0  0  0  0
  2  8  1  0  0  0  0
  2 35  1  0  0  0  0
  2 36  1  0  0  0  0
  3 13  1  0  0  0  0
  3 14  2  0  0  0  0
  4 13  2  0  0  0  0
  4 18  1  0  0  0  0
  5 19  1  0  0  0  0
  5 20  1  0  0  0  0
  5 40  1  0  0  0  0
  6 19  1  0  0  0  0
  6 23  2  0  0  0  0
  7  8  1  0  0  0  0
  7  9  1  0  0  0  0
  7 24  1  0  0  0  0
  8 10  1  0  0  0  0
  8 25  1  0  0  0  0
  9 11  1  0  0  0  0
  9 26  1  0  0  0  0
  9 27  1  0  0  0  0
 10 12  1  0  0  0  0
 10 28  1  0  0  0  0
 10 29  1  0  0  0  0
 11 12  1  0  0  0  0
 11 30  1  0  0  0  0
 11 31  1  0  0  0  0
 12 32  1  0  0  0  0
 12 33  1  0  0  0  0
 14 15  1  0  0  0  0
 14 17  1  0  0  0  0
 15 16  1  0  0  0  0
 15 20  2  0  0  0  0
 16 19  2  0  0  0  0
 16 21  1  0  0  0  0
 17 18  2  0  0  0  0
 17 37  1  0  0  0  0
 18 38  1  0  0  0  0
 20 39  1  0  0  0  0
 21 22  2  0  0  0  0
 21 41  1  0  0  0  0
 22 23  1  0  0  0  0
 22 42  1  0  0  0  0
 23 43  1  0  0  0  0
M  END
> <PUBCHEM_COMPOUND_CID>
49830281

> <PUBCHEM_CONFORMER_RMSD>
0.8

> <PUBCHEM_CONFORMER_DIVERSEORDER>
1
21
99
63
70
111
14
145
131
105
49
102
140
110
19
100
147
28
116
146
11
29
55
118
62
108
58
40
91
107
97
150
149
78
9
51
104
142
25
47
89
90
24
74
127
13
94
18
84
132
125
106
136
23
26
96
144
69
50
128
52
122
123
143
3
117
103
109
41
83
44
101
120
17
124
72
2
8
67
80
121
112
148
42
126
95
20
35
153
87
129
141
130
12
43
79
135
115
54
93
53
15
138
134
151
85
133
48
139
152
73
46
92
81
114
36
82
76
86
65
60
22
98
45
4
75
68
61
32
59
77
113
57
64
66
5
6
119
7
88
30
27
71
16
137
39
37
56
10
33
34
38
31

> <PUBCHEM_MMFF94_PARTIAL_CHARGES>
28
1 -0.87
13 0.72
14 0.36
15 -0.05
17 -0.15
18 0.16
19 0.11
2 -0.99
20 -0.3
21 -0.15
22 -0.15
23 0.16
3 -0.62
34 0.4
35 0.36
36 0.36
37 0.15
38 0.15
39 0.15
4 -0.62
40 0.27
41 0.15
42 0.15
43 0.15
5 0.03
6 -0.57
7 0.37
8 0.27

> <PUBCHEM_EFFECTIVE_ROTOR_COUNT>
4.2

> <PUBCHEM_PHARMACOPHORE_FEATURES>
12
1 1 donor
1 2 cation
1 2 donor
1 3 acceptor
1 5 cation
1 5 donor
1 6 acceptor
4 1 3 4 13 cation
5 5 15 16 19 20 rings
6 3 4 13 14 17 18 rings
6 6 16 19 21 22 23 rings
6 7 8 9 10 11 12 rings

> <PUBCHEM_HEAVY_ATOM_COUNT>
23

> <PUBCHEM_ATOM_DEF_STEREO_COUNT>
0

> <PUBCHEM_ATOM_UDEF_STEREO_COUNT>
2

> <PUBCHEM_BOND_DEF_STEREO_COUNT>
0

> <PUBCHEM_BOND_UDEF_STEREO_COUNT>
0

> <PUBCHEM_ISOTOPIC_ATOM_COUNT>
0

> <PUBCHEM_COMPONENT_COUNT>
1

> <PUBCHEM_CACTVS_TAUTO_COUNT>
16

> <PUBCHEM_CONFORMER_ID>
02F8598900000001

> <PUBCHEM_MMFF94_ENERGY>
45.002

> <PUBCHEM_FEATURE_SELFOVERLAP>
61.009

> <PUBCHEM_SHAPE_FINGERPRINT>
10165383 225 18262535714065806980
10366900 7 18261963925280784121
10498660 4 18334008402309365653
10608611 8 18126573551140042898
10670039 82 17687195600941801308
11370993 70 18409442600576919164
11725454 13 17894629227986928443
12403259 415 18335710442098442027
12633257 1 18410565193796716080
12730499 353 18336551525855332195
12769317 202 18339354150444465297
12788726 201 17908120420085448459
13034934 17 18260558839899636755
13140716 1 18410012147790141498
13402501 40 18409450284373846404
13583140 156 16081632483038286245
14468879 13 17968093080443869641
14528608 73 18340199709873704669
14848178 96 18412543219093509193
18186145 218 18342176639579063522
18219364 16 18338249209904109651
19930381 70 18338232666144097105
21033648 29 18187640284822801037
21279426 13 18199484298024896060
21524375 3 18408606928938277819
21591340 35 15079262407060636981
22122407 14 17840328639923090105
221357 26 18199189498941450676
22182937 141 18269280221306399627
23227448 37 18339642355750895631
23536364 44 17619929261675314566
23558518 356 18118967138030846130
23559900 14 16879639168057084459
238 59 18121756375601900975
23845131 108 18335146375918384715
25 1 18340774740926882394
3187 122 17755865573256584123
341906 21 16443344222402522821
3524813 1 18335704892789874620
4371632 12 16268812367556432320
469060 322 17241317105754622687
474 4 18342734100833273513
574716 61 17774708814797447861
633830 44 18201723912214392013
6442390 28 18335707164928158059
7808743 9 18116160054985870692
81228 2 17975136757567846955
84936 182 18193831544503604707

> <PUBCHEM_SHAPE_MULTIPOLES>
443.44
9.71
3.71
1.18
4.13
2.24
-0.15
-7.41
-1.41
-1.68
0.66
0.66
-0.42
1.44

> <PUBCHEM_SHAPE_SELFOVERLAP>
973.924

> <PUBCHEM_SHAPE_VOLUME>
235.1

> <PUBCHEM_COORDINATE_TYPE>
2
5
10

$$$$
