49830667
  -OEChem-10062121553D

 72 75  0     0  0  0  0  0  0999 V2000
    0.0388    3.1515    0.2771 O   0  0  0  0  0  0  0  0  0  0  0  0
    0.4762   -4.7971   -1.5477 O   0  0  0  0  0  0  0  0  0  0  0  0
   -4.4645   -0.7838    2.9759 O   0  0  0  0  0  0  0  0  0  0  0  0
   -2.2180   -0.5781    3.2534 O   0  0  0  0  0  0  0  0  0  0  0  0
    3.2648    0.3221   -0.4051 N   0  0  0  0  0  0  0  0  0  0  0  0
    4.4874    0.6291    0.0610 N   0  0  0  0  0  0  0  0  0  0  0  0
    1.0083    1.1675   -0.5230 N   0  0  0  0  0  0  0  0  0  0  0  0
    0.7781   -3.9937    0.6075 N   0  0  0  0  0  0  0  0  0  0  0  0
   -1.2610    1.5847   -0.8737 N   0  0  0  0  0  0  0  0  0  0  0  0
    5.4345    2.5039    1.2836 C   0  0  0  0  0  0  0  0  0  0  0  0
    4.3008    1.8172    0.6420 C   0  0  0  0  0  0  0  0  0  0  0  0
    5.1777    2.7557    2.8089 C   0  0  0  0  0  0  0  0  0  0  0  0
    5.7157    3.9017    0.6332 C   0  0  0  0  0  0  0  0  0  0  0  0
    6.8160    1.7535    1.2298 C   0  0  0  0  0  0  0  0  0  0  0  0
    2.9695    2.2652    0.5478 C   0  0  0  0  0  0  0  0  0  0  0  0
    2.3199    1.2694   -0.1399 C   0  0  0  0  0  0  0  0  0  0  0  0
    3.0714   -0.8674   -1.0835 C   0  0  0  0  0  0  0  0  0  0  0  0
    2.1635   -1.8080   -0.5972 C   0  0  0  0  0  0  0  0  0  0  0  0
    3.7837   -1.1262   -2.2547 C   0  0  0  0  0  0  0  0  0  0  0  0
    1.9677   -3.0074   -1.2820 C   0  0  0  0  0  0  0  0  0  0  0  0
   -1.5430   -4.4004    1.3454 C   0  0  0  0  0  0  0  0  0  0  0  0
   -0.1092   -4.9165    1.2606 C   0  0  0  0  0  0  0  0  0  0  0  0
   -1.6492   -3.0667    2.0949 C   0  0  0  0  0  0  0  0  0  0  0  0
   -0.0735    2.0822   -0.3136 C   0  0  0  0  0  0  0  0  0  0  0  0
    3.5877   -2.3254   -2.9397 C   0  0  0  0  0  0  0  0  0  0  0  0
    2.6799   -3.2662   -2.4532 C   0  0  0  0  0  0  0  0  0  0  0  0
    1.0014   -4.0101   -0.7646 C   0  0  0  0  0  0  0  0  0  0  0  0
   -3.0865   -2.5605    2.1803 C   0  0  0  0  0  0  0  0  0  0  0  0
   -2.5410    2.1874   -0.8782 C   0  0  0  0  0  0  0  0  0  0  0  0
   -3.7190    1.4227   -0.8858 C   0  0  0  0  0  0  0  0  0  0  0  0
   -4.9717    2.0813   -0.8903 C   0  0  0  0  0  0  0  0  0  0  0  0
   -2.5974    3.5814   -0.8751 C   0  0  0  0  0  0  0  0  0  0  0  0
   -3.6812    0.0189   -0.8891 C   0  0  0  0  0  0  0  0  0  0  0  0
   -5.0095    3.4852   -0.8870 C   0  0  0  0  0  0  0  0  0  0  0  0
   -3.8293    4.2291   -0.8795 C   0  0  0  0  0  0  0  0  0  0  0  0
   -6.1496    1.3166   -0.8978 C   0  0  0  0  0  0  0  0  0  0  0  0
   -3.1845   -1.2162    2.8569 C   0  0  0  0  0  0  0  0  0  0  0  0
   -4.8614   -0.7251   -0.8966 C   0  0  0  0  0  0  0  0  0  0  0  0
   -6.0933   -0.0775   -0.9010 C   0  0  0  0  0  0  0  0  0  0  0  0
    6.0236    3.2678    3.2812 H   0  0  0  0  0  0  0  0  0  0  0  0
    4.2869    3.3758    2.9619 H   0  0  0  0  0  0  0  0  0  0  0  0
    5.0154    1.8082    3.3358 H   0  0  0  0  0  0  0  0  0  0  0  0
    6.5592    4.4085    1.1152 H   0  0  0  0  0  0  0  0  0  0  0  0
    5.9471    3.7932   -0.4329 H   0  0  0  0  0  0  0  0  0  0  0  0
    4.8422    4.5585    0.7166 H   0  0  0  0  0  0  0  0  0  0  0  0
    7.6073    2.3260    1.7270 H   0  0  0  0  0  0  0  0  0  0  0  0
    6.7480    0.7766    1.7228 H   0  0  0  0  0  0  0  0  0  0  0  0
    7.1263    1.5825    0.1924 H   0  0  0  0  0  0  0  0  0  0  0  0
    2.5515    3.1855    0.9290 H   0  0  0  0  0  0  0  0  0  0  0  0
    0.7645    0.3347   -1.0505 H   0  0  0  0  0  0  0  0  0  0  0  0
    1.6044   -1.5785    0.3062 H   0  0  0  0  0  0  0  0  0  0  0  0
    4.4924   -0.4028   -2.6511 H   0  0  0  0  0  0  0  0  0  0  0  0
   -2.1630   -5.1527    1.8472 H   0  0  0  0  0  0  0  0  0  0  0  0
   -1.9457   -4.2750    0.3326 H   0  0  0  0  0  0  0  0  0  0  0  0
    0.2886   -5.0921    2.2660 H   0  0  0  0  0  0  0  0  0  0  0  0
   -0.0938   -5.8720    0.7250 H   0  0  0  0  0  0  0  0  0  0  0  0
   -1.0350   -2.3093    1.5920 H   0  0  0  0  0  0  0  0  0  0  0  0
   -1.2390   -3.1806    3.1063 H   0  0  0  0  0  0  0  0  0  0  0  0
    4.1421   -2.5267   -3.8516 H   0  0  0  0  0  0  0  0  0  0  0  0
    2.5448   -4.1963   -2.9989 H   0  0  0  0  0  0  0  0  0  0  0  0
    1.2928   -3.3582    1.2072 H   0  0  0  0  0  0  0  0  0  0  0  0
   -3.6929   -3.2733    2.7501 H   0  0  0  0  0  0  0  0  0  0  0  0
   -3.5053   -2.4672    1.1743 H   0  0  0  0  0  0  0  0  0  0  0  0
   -1.2186    0.6095   -1.1489 H   0  0  0  0  0  0  0  0  0  0  0  0
   -1.7081    4.2021   -0.9119 H   0  0  0  0  0  0  0  0  0  0  0  0
   -2.7534   -0.5449   -0.8746 H   0  0  0  0  0  0  0  0  0  0  0  0
   -5.9612    4.0126   -0.8924 H   0  0  0  0  0  0  0  0  0  0  0  0
   -3.8732    5.3144   -0.8869 H   0  0  0  0  0  0  0  0  0  0  0  0
   -7.1235    1.8016   -0.9012 H   0  0  0  0  0  0  0  0  0  0  0  0
   -4.8200   -1.8104   -0.8997 H   0  0  0  0  0  0  0  0  0  0  0  0
   -7.0117   -0.6573   -0.9067 H   0  0  0  0  0  0  0  0  0  0  0  0
   -4.5157    0.0933    3.4120 H   0  0  0  0  0  0  0  0  0  0  0  0
  1 24  2  0  0  0  0
  2 27  2  0  0  0  0
  3 37  1  0  0  0  0
  3 72  1  0  0  0  0
  4 37  2  0  0  0  0
  5  6  1  0  0  0  0
  5 16  1  0  0  0  0
  5 17  1  0  0  0  0
  6 11  2  0  0  0  0
  7 16  1  0  0  0  0
  7 24  1  0  0  0  0
  7 50  1  0  0  0  0
  8 22  1  0  0  0  0
  8 27  1  0  0  0  0
  8 61  1  0  0  0  0
  9 24  1  0  0  0  0
  9 29  1  0  0  0  0
  9 64  1  0  0  0  0
 10 11  1  0  0  0  0
 10 12  1  0  0  0  0
 10 13  1  0  0  0  0
 10 14  1  0  0  0  0
 11 15  1  0  0  0  0
 12 40  1  0  0  0  0
 12 41  1  0  0  0  0
 12 42  1  0  0  0  0
 13 43  1  0  0  0  0
 13 44  1  0  0  0  0
 13 45  1  0  0  0  0
 14 46  1  0  0  0  0
 14 47  1  0  0  0  0
 14 48  1  0  0  0  0
 15 16  2  0  0  0  0
 15 49  1  0  0  0  0
 17 18  1  0  0  0  0
 17 19  2  0  0  0  0
 18 20  2  0  0  0  0
 18 51  1  0  0  0  0
 19 25  1  0  0  0  0
 19 52  1  0  0  0  0
 20 26  1  0  0  0  0
 20 27  1  0  0  0  0
 21 22  1  0  0  0  0
 21 23  1  0  0  0  0
 21 53  1  0  0  0  0
 21 54  1  0  0  0  0
 22 55  1  0  0  0  0
 22 56  1  0  0  0  0
 23 28  1  0  0  0  0
 23 57  1  0  0  0  0
 23 58  1  0  0  0  0
 25 26  2  0  0  0  0
 25 59  1  0  0  0  0
 26 60  1  0  0  0  0
 28 37  1  0  0  0  0
 28 62  1  0  0  0  0
 28 63  1  0  0  0  0
 29 30  1  0  0  0  0
 29 32  2  0  0  0  0
 30 31  1  0  0  0  0
 30 33  2  0  0  0  0
 31 34  1  0  0  0  0
 31 36  2  0  0  0  0
 32 35  1  0  0  0  0
 32 65  1  0  0  0  0
 33 38  1  0  0  0  0
 33 66  1  0  0  0  0
 34 35  2  0  0  0  0
 34 67  1  0  0  0  0
 35 68  1  0  0  0  0
 36 39  1  0  0  0  0
 36 69  1  0  0  0  0
 38 39  2  0  0  0  0
 38 70  1  0  0  0  0
 39 71  1  0  0  0  0
M  END
> <PUBCHEM_COMPOUND_CID>
49830667

> <PUBCHEM_CONFORMER_RMSD>
1.2

> <PUBCHEM_CONFORMER_DIVERSEORDER>
1
45
96
106
93
16
107
35
62
65
22
77
15
5
9
101
41
12
56
63
71
36
46
44
29
76
74
70
104
84
24
105
32
4
89
33
59
82
50
102
81
78
66
92
79
83
61
30
31
73
39
67
88
91
28
52
13
40
26
103
7
14
72
2
42
85
94
43
60
38
75
37
95
19
57
20
99
54
17
51
3
48
18
80
27
64
23
34
97
6
8
47
86
55
90
68
87
69
21
25
53
49
98
58
10
11
100

> <PUBCHEM_MMFF94_PARTIAL_CHARGES>
48
1 -0.57
10 0.18
11 0.11
15 -0.15
16 -0.09
17 -0.02
18 -0.15
19 -0.15
2 -0.57
20 0.09
22 0.3
24 0.69
25 -0.15
26 -0.15
27 0.54
28 0.06
29 0.12
3 -0.65
32 -0.15
33 -0.15
34 -0.15
35 -0.15
36 -0.15
37 0.66
38 -0.15
39 -0.15
4 -0.57
49 0.15
5 0.59
50 0.37
51 0.15
52 0.15
59 0.15
6 -0.71
60 0.15
61 0.37
64 0.37
65 0.15
66 0.15
67 0.15
68 0.15
69 0.15
7 -0.49
70 0.15
71 0.15
72 0.5
8 -0.73
9 -0.55

> <PUBCHEM_EFFECTIVE_ROTOR_COUNT>
13

> <PUBCHEM_PHARMACOPHORE_FEATURES>
14
1 1 acceptor
1 2 acceptor
1 3 acceptor
1 4 acceptor
1 6 acceptor
1 7 donor
1 8 donor
1 9 donor
3 3 4 37 anion
4 10 12 13 14 hydrophobe
5 5 6 11 15 16 rings
6 17 18 19 20 25 26 rings
6 29 30 31 32 34 35 rings
6 30 31 33 36 38 39 rings

> <PUBCHEM_HEAVY_ATOM_COUNT>
39

> <PUBCHEM_ATOM_DEF_STEREO_COUNT>
0

> <PUBCHEM_ATOM_UDEF_STEREO_COUNT>
0

> <PUBCHEM_BOND_DEF_STEREO_COUNT>
0

> <PUBCHEM_BOND_UDEF_STEREO_COUNT>
0

> <PUBCHEM_ISOTOPIC_ATOM_COUNT>
0

> <PUBCHEM_COMPONENT_COUNT>
1

> <PUBCHEM_CACTVS_TAUTO_COUNT>
14

> <PUBCHEM_CONFORMER_ID>
02F85B0B00000001

> <PUBCHEM_MMFF94_ENERGY>
118.59

> <PUBCHEM_FEATURE_SELFOVERLAP>
71.175

> <PUBCHEM_SHAPE_FINGERPRINT>
10032420 55 17683813103082849294
10074138 170 17906418337973680488
10169797 241 18339371768622242934
10439779 11 17972309616709718082
10794284 68 17754182200281878796
10974685 15 18115877291323799124
11227688 84 17409961053895082430
12202916 173 18190167083292897387
12422481 6 17982746452644046218
14068700 675 16965481171816649998
14068700 686 18412257329054462205
14294032 229 17691128554203530640
14904385 31 18263370342065318765
15968369 26 17896313619575972613
16067689 391 17118355116315962431
161222 619 18341619281905384604
16993438 75 18193548085231027802
20764821 26 17683825215049243051
21133410 32 17176928476339986294
21795232 40 18056203715692572289
23559900 14 17984131557130672364
238918 7 18339082699911192386
25223398 141 17970374605794763166
3383291 50 18115303510042930531
354706 132 17244731986801336687
4073 2 18341327799855951733
463206 1 17399802596634431759
508180 173 17905901283361003243
5776283 40 18342749485976191694
6376802 137 17256802296665696394
86090 222 18411144623207219279

> <PUBCHEM_SHAPE_MULTIPOLES>
754.22
14.07
7.41
2.81
0.94
5.43
-1.57
-14.84
-1.11
1.12
-0.33
0.3
2.39
7.59

> <PUBCHEM_SHAPE_SELFOVERLAP>
1619.215

> <PUBCHEM_SHAPE_VOLUME>
415.5

> <PUBCHEM_COORDINATE_TYPE>
2
5
10

$$$$
