23647251
  -OEChem-10062121573D

 38 40  0     0  0  0  0  0  0999 V2000
    1.9427   -3.2602    0.4623 O   0  0  0  0  0  0  0  0  0  0  0  0
   -5.1847   -0.5600   -1.4127 O   0  0  0  0  0  0  0  0  0  0  0  0
   -3.4729    0.8000   -2.0344 O   0  0  0  0  0  0  0  0  0  0  0  0
   -1.8295    1.2590    0.1595 N   0  0  0  0  0  0  0  0  0  0  0  0
    2.8845    1.4426    0.0460 N   0  0  0  0  0  0  0  0  0  0  0  0
    0.5416    1.3274    0.0981 N   0  0  0  0  0  0  0  0  0  0  0  0
    1.6850    3.4229    0.4272 N   0  0  0  0  0  0  0  0  0  0  0  0
   -2.1632   -0.0792    0.4663 C   0  0  0  0  0  0  0  0  0  0  0  0
   -3.1711   -0.7442   -0.2321 C   0  0  0  0  0  0  0  0  0  0  0  0
   -0.6273    1.9842    0.2484 C   0  0  0  0  0  0  0  0  0  0  0  0
    3.2306    0.1005   -0.1980 C   0  0  0  0  0  0  0  0  0  0  0  0
   -1.4693   -0.7356    1.4829 C   0  0  0  0  0  0  0  0  0  0  0  0
    1.6424    2.0966    0.1979 C   0  0  0  0  0  0  0  0  0  0  0  0
   -3.4849   -2.0656    0.0860 C   0  0  0  0  0  0  0  0  0  0  0  0
   -1.7830   -2.0571    1.8007 C   0  0  0  0  0  0  0  0  0  0  0  0
   -0.7197    3.3402    0.4872 C   0  0  0  0  0  0  0  0  0  0  0  0
   -2.7907   -2.7220    1.1025 C   0  0  0  0  0  0  0  0  0  0  0  0
    2.4058   -0.9269    0.2604 C   0  0  0  0  0  0  0  0  0  0  0  0
    4.3968   -0.2022   -0.9008 C   0  0  0  0  0  0  0  0  0  0  0  0
    2.7477   -2.2571    0.0162 C   0  0  0  0  0  0  0  0  0  0  0  0
    4.7386   -1.5322   -1.1449 C   0  0  0  0  0  0  0  0  0  0  0  0
    0.4810    4.0154    0.5673 C   0  0  0  0  0  0  0  0  0  0  0  0
   -3.9147   -0.0867   -1.2994 C   0  0  0  0  0  0  0  0  0  0  0  0
    3.9140   -2.5597   -0.6865 C   0  0  0  0  0  0  0  0  0  0  0  0
   -2.5642    1.7695   -0.3218 H   0  0  0  0  0  0  0  0  0  0  0  0
   -0.6918   -0.2355    2.0538 H   0  0  0  0  0  0  0  0  0  0  0  0
    3.6625    2.0935   -0.0031 H   0  0  0  0  0  0  0  0  0  0  0  0
   -4.2550   -2.6165   -0.4477 H   0  0  0  0  0  0  0  0  0  0  0  0
   -1.2440   -2.5675    2.5935 H   0  0  0  0  0  0  0  0  0  0  0  0
   -1.6647    3.8552    0.6069 H   0  0  0  0  0  0  0  0  0  0  0  0
   -3.0328   -3.7518    1.3488 H   0  0  0  0  0  0  0  0  0  0  0  0
    1.5195   -0.7251    0.8508 H   0  0  0  0  0  0  0  0  0  0  0  0
    5.0472    0.5891   -1.2648 H   0  0  0  0  0  0  0  0  0  0  0  0
    5.6464   -1.7681   -1.6925 H   0  0  0  0  0  0  0  0  0  0  0  0
    0.5091    5.0839    0.7526 H   0  0  0  0  0  0  0  0  0  0  0  0
    4.1854   -3.5939   -0.8802 H   0  0  0  0  0  0  0  0  0  0  0  0
    1.1787   -2.8724    0.9225 H   0  0  0  0  0  0  0  0  0  0  0  0
   -5.6780   -0.1131   -2.1333 H   0  0  0  0  0  0  0  0  0  0  0  0
  1 20  1  0  0  0  0
  1 37  1  0  0  0  0
  2 23  1  0  0  0  0
  2 38  1  0  0  0  0
  3 23  2  0  0  0  0
  4  8  1  0  0  0  0
  4 10  1  0  0  0  0
  4 25  1  0  0  0  0
  5 11  1  0  0  0  0
  5 13  1  0  0  0  0
  5 27  1  0  0  0  0
  6 10  2  0  0  0  0
  6 13  1  0  0  0  0
  7 13  2  0  0  0  0
  7 22  1  0  0  0  0
  8  9  1  0  0  0  0
  8 12  2  0  0  0  0
  9 14  2  0  0  0  0
  9 23  1  0  0  0  0
 10 16  1  0  0  0  0
 11 18  2  0  0  0  0
 11 19  1  0  0  0  0
 12 15  1  0  0  0  0
 12 26  1  0  0  0  0
 14 17  1  0  0  0  0
 14 28  1  0  0  0  0
 15 17  2  0  0  0  0
 15 29  1  0  0  0  0
 16 22  2  0  0  0  0
 16 30  1  0  0  0  0
 17 31  1  0  0  0  0
 18 20  1  0  0  0  0
 18 32  1  0  0  0  0
 19 21  2  0  0  0  0
 19 33  1  0  0  0  0
 20 24  2  0  0  0  0
 21 24  1  0  0  0  0
 21 34  1  0  0  0  0
 22 35  1  0  0  0  0
 24 36  1  0  0  0  0
M  END
> <PUBCHEM_COMPOUND_CID>
23647251

> <PUBCHEM_CONFORMER_RMSD>
1

> <PUBCHEM_CONFORMER_DIVERSEORDER>
1
45
56
72
29
24
25
98
14
21
66
43
84
81
96
16
54
57
11
31
26
103
102
38
101
23
18
95
64
15
89
100
58
2
92
91
85
20
104
62
19
88
44
13
40
10
7
79
55
53
34
51
90
28
49
99
82
87
36
3
59
42
78
105
48
70
94
80
47
41
37
4
46
93
61
52
50
71
86
68
67
97
6
73
30
35
76
83
74
39
65
5
27
22
60
32
69
17
33
77
63
75
8
9
12

> <PUBCHEM_MMFF94_PARTIAL_CHARGES>
38
1 -0.53
10 0.41
11 0.1
12 -0.15
13 0.72
14 -0.15
15 -0.15
16 -0.15
17 -0.15
18 -0.15
19 -0.15
2 -0.65
20 0.08
21 -0.15
22 0.16
23 0.63
24 -0.15
25 0.4
26 0.15
27 0.4
28 0.15
29 0.15
3 -0.57
30 0.15
31 0.15
32 0.15
33 0.15
34 0.15
35 0.15
36 0.15
37 0.45
38 0.5
4 -0.6
5 -0.6
6 -0.62
7 -0.62
8 0.1
9 0.09

> <PUBCHEM_EFFECTIVE_ROTOR_COUNT>
5

> <PUBCHEM_PHARMACOPHORE_FEATURES>
10
1 1 donor
1 2 acceptor
1 3 acceptor
1 4 donor
1 5 donor
3 2 3 23 anion
4 5 6 7 13 cation
6 11 18 19 20 21 24 rings
6 6 7 10 13 16 22 rings
6 8 9 12 14 15 17 rings

> <PUBCHEM_HEAVY_ATOM_COUNT>
24

> <PUBCHEM_ATOM_DEF_STEREO_COUNT>
0

> <PUBCHEM_ATOM_UDEF_STEREO_COUNT>
0

> <PUBCHEM_BOND_DEF_STEREO_COUNT>
0

> <PUBCHEM_BOND_UDEF_STEREO_COUNT>
0

> <PUBCHEM_ISOTOPIC_ATOM_COUNT>
0

> <PUBCHEM_COMPONENT_COUNT>
1

> <PUBCHEM_CACTVS_TAUTO_COUNT>
77

> <PUBCHEM_CONFORMER_ID>
0168D41300000001

> <PUBCHEM_MMFF94_ENERGY>
94.0297

> <PUBCHEM_FEATURE_SELFOVERLAP>
50.803

> <PUBCHEM_SHAPE_FINGERPRINT>
10616163 171 18052268301905438134
12363563 72 18343589525116673972
12553582 1 18338242569979576538
12788726 201 18122340181658061483
13402501 40 18189619530100776722
13533116 47 18127695036062780067
138480 1 14806296374854149952
13911987 19 17905060496774716492
14251757 17 18260535715510767589
14659021 117 18049996689497495258
14790565 3 17690571788042822665
14866123 147 18053108324351725625
14931854 50 18189613856422800287
14932701 244 13915173549196563978
15635459 17 18264210398881497930
17357779 13 18411984646075408502
19930381 70 18123192561020924819
20645477 70 18194958767329186705
20775438 99 17838300293898341607
21315764 21 16663166179997092271
221357 26 18336817633449523149
23559900 14 18264483052016864608
238 59 17833808831468019903
3493558 16 12649653735240508399
3729539 64 18188765034137149039
4280585 95 18334007264675769064
46194498 28 17677899130858683061
463206 1 18340483469124631663
5309563 4 18341061803519038006
6443956 14 18337961197908254192
6669772 16 17551529060224605020
7399639 24 17471851880400875889
9709674 26 18192145112942017595

> <PUBCHEM_SHAPE_MULTIPOLES>
456.38
8.79
4.59
1.34
1.1
3.16
-0.22
-6.35
-4.46
1.64
1.41
-1.38
-0.43
1.28

> <PUBCHEM_SHAPE_SELFOVERLAP>
997.09

> <PUBCHEM_SHAPE_VOLUME>
243.2

> <PUBCHEM_COORDINATE_TYPE>
2
5
10

$$$$
