11328863
  -OEChem-10062121593D

 58 63  0     0  0  0  0  0  0999 V2000
    5.0847    1.1390    0.7138 O   0  0  0  0  0  0  0  0  0  0  0  0
   -2.6454   -3.2775    2.0019 O   0  0  0  0  0  0  0  0  0  0  0  0
    5.2342    0.2174   -1.3736 O   0  0  0  0  0  0  0  0  0  0  0  0
   -5.6448   -0.3832    0.0992 O   0  0  0  0  0  0  0  0  0  0  0  0
    1.1917   -0.9042    1.0739 N   0  0  0  0  0  0  0  0  0  0  0  0
    4.1469   -0.9314    0.3353 N   0  0  0  0  0  0  0  0  0  0  0  0
   -4.4439   -2.0376    1.2094 N   0  0  0  0  0  0  0  0  0  0  0  0
   -2.7530    1.8811   -0.2476 N   0  0  0  0  0  0  0  0  0  0  0  0
   -2.5443    2.0915   -2.4647 N   0  0  0  0  0  0  0  0  0  0  0  0
    1.2510   -1.6975   -0.0607 C   0  0  0  0  0  0  0  0  0  0  0  0
    2.2833   -0.2518    1.7789 C   0  0  0  0  0  0  0  0  0  0  0  0
   -0.0842   -1.9671   -0.4124 C   0  0  0  0  0  0  0  0  0  0  0  0
    2.3337   -2.2098   -0.8175 C   0  0  0  0  0  0  0  0  0  0  0  0
   -0.9249   -1.3394    0.5442 C   0  0  0  0  0  0  0  0  0  0  0  0
    3.6347   -0.9420    1.7041 C   0  0  0  0  0  0  0  0  0  0  0  0
    3.8044   -2.0792   -0.4925 C   0  0  0  0  0  0  0  0  0  0  0  0
   -0.1161   -0.6970    1.4444 C   0  0  0  0  0  0  0  0  0  0  0  0
   -2.3533   -1.3400    0.5998 C   0  0  0  0  0  0  0  0  0  0  0  0
   -0.3653   -2.7497   -1.5492 C   0  0  0  0  0  0  0  0  0  0  0  0
    1.9989   -3.0013   -1.9401 C   0  0  0  0  0  0  0  0  0  0  0  0
   -3.2440   -0.4961    0.0519 C   0  0  0  0  0  0  0  0  0  0  0  0
    0.6839   -3.2596   -2.3063 C   0  0  0  0  0  0  0  0  0  0  0  0
    4.8564    0.1486   -0.2056 C   0  0  0  0  0  0  0  0  0  0  0  0
   -3.1253   -2.3564    1.3627 C   0  0  0  0  0  0  0  0  0  0  0  0
   -2.9617    0.6255   -0.7713 C   0  0  0  0  0  0  0  0  0  0  0  0
   -4.6066   -0.9270    0.4341 C   0  0  0  0  0  0  0  0  0  0  0  0
   -2.8260    0.7895   -2.1366 C   0  0  0  0  0  0  0  0  0  0  0  0
   -2.5033    2.7371   -1.3172 C   0  0  0  0  0  0  0  0  0  0  0  0
    5.1633    2.4725    0.1979 C   0  0  0  0  0  0  0  0  0  0  0  0
   -2.7717    2.2941    1.0816 C   0  0  0  0  0  0  0  0  0  0  0  0
   -2.2565    4.1067   -1.0065 C   0  0  0  0  0  0  0  0  0  0  0  0
    5.4511    3.4352    1.3398 C   0  0  0  0  0  0  0  0  0  0  0  0
    3.8628    2.8111   -0.5147 C   0  0  0  0  0  0  0  0  0  0  0  0
   -2.5380    3.5857    1.3661 C   0  0  0  0  0  0  0  0  0  0  0  0
   -2.2731    4.5129    0.2777 C   0  0  0  0  0  0  0  0  0  0  0  0
    2.3340    0.7670    1.3808 H   0  0  0  0  0  0  0  0  0  0  0  0
    1.9869   -0.1850    2.8328 H   0  0  0  0  0  0  0  0  0  0  0  0
    3.5774   -1.9772    2.0605 H   0  0  0  0  0  0  0  0  0  0  0  0
    4.3425   -0.4170    2.3546 H   0  0  0  0  0  0  0  0  0  0  0  0
    4.1363   -2.9835    0.0319 H   0  0  0  0  0  0  0  0  0  0  0  0
    4.3733   -2.0225   -1.4277 H   0  0  0  0  0  0  0  0  0  0  0  0
   -0.3566   -0.0942    2.3113 H   0  0  0  0  0  0  0  0  0  0  0  0
   -1.3908   -2.9648   -1.8373 H   0  0  0  0  0  0  0  0  0  0  0  0
    2.7946   -3.4356   -2.5442 H   0  0  0  0  0  0  0  0  0  0  0  0
    0.4739   -3.8705   -3.1796 H   0  0  0  0  0  0  0  0  0  0  0  0
   -5.2077   -2.5604    1.6227 H   0  0  0  0  0  0  0  0  0  0  0  0
   -2.9167    0.0300   -2.9003 H   0  0  0  0  0  0  0  0  0  0  0  0
    6.0000    2.5272   -0.5096 H   0  0  0  0  0  0  0  0  0  0  0  0
   -2.9750    1.5646    1.8557 H   0  0  0  0  0  0  0  0  0  0  0  0
   -2.0576    4.8074   -1.8097 H   0  0  0  0  0  0  0  0  0  0  0  0
    5.5373    4.4656    0.9819 H   0  0  0  0  0  0  0  0  0  0  0  0
    6.3838    3.1601    1.8439 H   0  0  0  0  0  0  0  0  0  0  0  0
    4.6602    3.3902    2.0967 H   0  0  0  0  0  0  0  0  0  0  0  0
    3.6822    2.1799   -1.3893 H   0  0  0  0  0  0  0  0  0  0  0  0
    3.0044    2.6818    0.1529 H   0  0  0  0  0  0  0  0  0  0  0  0
    3.8708    3.8504   -0.8601 H   0  0  0  0  0  0  0  0  0  0  0  0
   -2.5414    3.9573    2.3834 H   0  0  0  0  0  0  0  0  0  0  0  0
   -2.0875    5.5504    0.5336 H   0  0  0  0  0  0  0  0  0  0  0  0
  1 23  1  0  0  0  0
  1 29  1  0  0  0  0
  2 24  2  0  0  0  0
  3 23  2  0  0  0  0
  4 26  2  0  0  0  0
  5 10  1  0  0  0  0
  5 11  1  0  0  0  0
  5 17  1  0  0  0  0
  6 15  1  0  0  0  0
  6 16  1  0  0  0  0
  6 23  1  0  0  0  0
  7 24  1  0  0  0  0
  7 26  1  0  0  0  0
  7 46  1  0  0  0  0
  8 25  1  0  0  0  0
  8 28  1  0  0  0  0
  8 30  1  0  0  0  0
  9 27  1  0  0  0  0
  9 28  2  0  0  0  0
 10 12  1  0  0  0  0
 10 13  2  0  0  0  0
 11 15  1  0  0  0  0
 11 36  1  0  0  0  0
 11 37  1  0  0  0  0
 12 14  1  0  0  0  0
 12 19  2  0  0  0  0
 13 16  1  0  0  0  0
 13 20  1  0  0  0  0
 14 17  2  0  0  0  0
 14 18  1  0  0  0  0
 15 38  1  0  0  0  0
 15 39  1  0  0  0  0
 16 40  1  0  0  0  0
 16 41  1  0  0  0  0
 17 42  1  0  0  0  0
 18 21  2  0  0  0  0
 18 24  1  0  0  0  0
 19 22  1  0  0  0  0
 19 43  1  0  0  0  0
 20 22  2  0  0  0  0
 20 44  1  0  0  0  0
 21 25  1  0  0  0  0
 21 26  1  0  0  0  0
 22 45  1  0  0  0  0
 25 27  2  0  0  0  0
 27 47  1  0  0  0  0
 28 31  1  0  0  0  0
 29 32  1  0  0  0  0
 29 33  1  0  0  0  0
 29 48  1  0  0  0  0
 30 34  2  0  0  0  0
 30 49  1  0  0  0  0
 31 35  2  0  0  0  0
 31 50  1  0  0  0  0
 32 51  1  0  0  0  0
 32 52  1  0  0  0  0
 32 53  1  0  0  0  0
 33 54  1  0  0  0  0
 33 55  1  0  0  0  0
 33 56  1  0  0  0  0
 34 35  1  0  0  0  0
 34 57  1  0  0  0  0
 35 58  1  0  0  0  0
M  END
> <PUBCHEM_COMPOUND_CID>
11328863

> <PUBCHEM_CONFORMER_RMSD>
1

> <PUBCHEM_CONFORMER_DIVERSEORDER>
1
20
37
27
19
9
28
39
22
24
30
26
36
33
16
8
25
35
18
13
2
38
23
31
15
17
11
34
5
10
32
29
14
21
6
3
4
12
7

> <PUBCHEM_MMFF94_PARTIAL_CHARGES>
42
1 -0.43
10 -0.15
11 0.26
13 -0.14
14 -0.05
15 0.3
16 0.44
17 -0.3
18 0.06
19 -0.15
2 -0.57
20 -0.15
21 0.06
22 -0.15
23 0.78
24 0.62
25 -0.2
26 0.62
27 0.08
28 0.14
29 0.28
3 -0.57
30 -0.18
31 -0.11
34 -0.15
35 -0.15
4 -0.57
42 0.15
43 0.15
44 0.15
45 0.15
46 0.37
47 0.15
49 0.15
5 0.05
50 0.15
57 0.15
58 0.15
6 -0.66
7 -0.49
8 0.33
9 -0.57

> <PUBCHEM_EFFECTIVE_ROTOR_COUNT>
6

> <PUBCHEM_PHARMACOPHORE_FEATURES>
13
1 2 acceptor
1 3 acceptor
1 4 acceptor
1 5 cation
1 7 donor
3 29 32 33 hydrophobe
3 8 9 28 cation
5 5 10 12 14 17 rings
5 7 18 21 24 26 rings
5 8 9 25 27 28 rings
6 10 12 13 19 20 22 rings
6 8 28 30 31 34 35 rings
7 5 6 10 11 13 15 16 rings

> <PUBCHEM_HEAVY_ATOM_COUNT>
35

> <PUBCHEM_ATOM_DEF_STEREO_COUNT>
0

> <PUBCHEM_ATOM_UDEF_STEREO_COUNT>
0

> <PUBCHEM_BOND_DEF_STEREO_COUNT>
0

> <PUBCHEM_BOND_UDEF_STEREO_COUNT>
0

> <PUBCHEM_ISOTOPIC_ATOM_COUNT>
0

> <PUBCHEM_COMPONENT_COUNT>
1

> <PUBCHEM_CACTVS_TAUTO_COUNT>
3

> <PUBCHEM_CONFORMER_ID>
00ACDD5F00000001

> <PUBCHEM_MMFF94_ENERGY>
82.7454

> <PUBCHEM_FEATURE_SELFOVERLAP>
66.217

> <PUBCHEM_SHAPE_FINGERPRINT>
11578080 2 17982759396773382935
12107698 1 18261107491827931618
13583140 156 18189045422176365126
13911987 19 17774726466812366850
14251764 38 18340201874104574940
15082195 135 18056458587689382613
15320291 9 18267857294917096684
15961568 22 18335143149764571892
17809404 112 11603112741988626092
19315092 285 15649012144156796954
20600515 1 17968108564001593999
22907989 373 18270384070972398577
22956985 138 16526676543410609643
23398203 216 18126300652649345505
23559900 14 18122904223035264762
25019877 29 17056980759399223215
3493558 16 17823428273618389996
4144715 1 18260834744415248906
469060 322 17605577452815569569
550186 7 18335145314528718482
57527585 21 18200015275508880917
6086070 43 18049155571428761574
7399639 24 18341622511747587231

> <PUBCHEM_SHAPE_MULTIPOLES>
671.9
11.02
5.61
2.06
9.17
4.61
-0.49
5.52
1.62
-0.99
-0.78
-0.51
-0.65
2.71

> <PUBCHEM_SHAPE_SELFOVERLAP>
1509.16

> <PUBCHEM_SHAPE_VOLUME>
355.7

> <PUBCHEM_COORDINATE_TYPE>
2
5
10

$$$$
