25164884
  -OEChem-10052115183D

 38 41  0     0  0  0  0  0  0999 V2000
   -5.5823   -2.0069    0.3900 O   0  0  0  0  0  0  0  0  0  0  0  0
   -1.6125    1.2192   -0.4926 N   0  0  0  0  0  0  0  0  0  0  0  0
   -1.3811    2.1361    0.4610 N   0  0  0  0  0  0  0  0  0  0  0  0
   -0.0935    2.0585    0.7785 N   0  0  0  0  0  0  0  0  0  0  0  0
    5.7089   -0.6674    0.1231 N   0  0  0  0  0  0  0  0  0  0  0  0
    5.6262   -1.9650   -0.2152 N   0  0  0  0  0  0  0  0  0  0  0  0
   -3.9113    0.2866   -0.1277 C   0  0  0  0  0  0  0  0  0  0  0  0
   -3.3383   -1.0942    0.2111 C   0  0  0  0  0  0  0  0  0  0  0  0
   -5.3148    0.1347   -0.7254 C   0  0  0  0  0  0  0  0  0  0  0  0
   -2.9888    1.0483   -1.0753 C   0  0  0  0  0  0  0  0  0  0  0  0
   -4.3241   -1.8940    1.0540 C   0  0  0  0  0  0  0  0  0  0  0  0
   -6.1900   -0.7344    0.1696 C   0  0  0  0  0  0  0  0  0  0  0  0
   -0.4827    0.5307   -0.8114 C   0  0  0  0  0  0  0  0  0  0  0  0
    0.4711    1.0802    0.0082 C   0  0  0  0  0  0  0  0  0  0  0  0
    1.8456    0.6971    0.0582 C   0  0  0  0  0  0  0  0  0  0  0  0
    2.2027   -0.6241   -0.2391 C   0  0  0  0  0  0  0  0  0  0  0  0
    3.5605   -0.9806   -0.1851 C   0  0  0  0  0  0  0  0  0  0  0  0
    2.8136    1.6428    0.4012 C   0  0  0  0  0  0  0  0  0  0  0  0
    4.5039   -0.0190    0.1594 C   0  0  0  0  0  0  0  0  0  0  0  0
    4.1692    1.3032    0.4593 C   0  0  0  0  0  0  0  0  0  0  0  0
    4.3177   -2.1518   -0.4018 C   0  0  0  0  0  0  0  0  0  0  0  0
   -3.9988    0.8539    0.8095 H   0  0  0  0  0  0  0  0  0  0  0  0
   -2.3949   -1.0141    0.7606 H   0  0  0  0  0  0  0  0  0  0  0  0
   -3.1391   -1.6424   -0.7187 H   0  0  0  0  0  0  0  0  0  0  0  0
   -5.2359   -0.3386   -1.7125 H   0  0  0  0  0  0  0  0  0  0  0  0
   -5.7805    1.1163   -0.8663 H   0  0  0  0  0  0  0  0  0  0  0  0
   -3.3505    2.0628   -1.2761 H   0  0  0  0  0  0  0  0  0  0  0  0
   -2.8486    0.5272   -2.0291 H   0  0  0  0  0  0  0  0  0  0  0  0
   -3.9403   -2.9065    1.2147 H   0  0  0  0  0  0  0  0  0  0  0  0
   -4.4708   -1.4357    2.0392 H   0  0  0  0  0  0  0  0  0  0  0  0
   -6.3808   -0.2488    1.1339 H   0  0  0  0  0  0  0  0  0  0  0  0
   -7.1583   -0.9062   -0.3111 H   0  0  0  0  0  0  0  0  0  0  0  0
   -0.4680   -0.2471   -1.5625 H   0  0  0  0  0  0  0  0  0  0  0  0
    1.4662   -1.3794   -0.4976 H   0  0  0  0  0  0  0  0  0  0  0  0
    2.5338    2.6700    0.6278 H   0  0  0  0  0  0  0  0  0  0  0  0
    4.9227    2.0364    0.7245 H   0  0  0  0  0  0  0  0  0  0  0  0
    3.9684   -3.1337   -0.6882 H   0  0  0  0  0  0  0  0  0  0  0  0
    6.6244   -0.2818    0.3182 H   0  0  0  0  0  0  0  0  0  0  0  0
  1 11  1  0  0  0  0
  1 12  1  0  0  0  0
  2  3  1  0  0  0  0
  2 10  1  0  0  0  0
  2 13  1  0  0  0  0
  3  4  2  0  0  0  0
  4 14  1  0  0  0  0
  5  6  1  0  0  0  0
  5 19  1  0  0  0  0
  5 38  1  0  0  0  0
  6 21  2  0  0  0  0
  7  8  1  0  0  0  0
  7  9  1  0  0  0  0
  7 10  1  0  0  0  0
  7 22  1  0  0  0  0
  8 11  1  0  0  0  0
  8 23  1  0  0  0  0
  8 24  1  0  0  0  0
  9 12  1  0  0  0  0
  9 25  1  0  0  0  0
  9 26  1  0  0  0  0
 10 27  1  0  0  0  0
 10 28  1  0  0  0  0
 11 29  1  0  0  0  0
 11 30  1  0  0  0  0
 12 31  1  0  0  0  0
 12 32  1  0  0  0  0
 13 14  2  0  0  0  0
 13 33  1  0  0  0  0
 14 15  1  0  0  0  0
 15 16  2  0  0  0  0
 15 18  1  0  0  0  0
 16 17  1  0  0  0  0
 16 34  1  0  0  0  0
 17 19  2  0  0  0  0
 17 21  1  0  0  0  0
 18 20  2  0  0  0  0
 18 35  1  0  0  0  0
 19 20  1  0  0  0  0
 20 36  1  0  0  0  0
 21 37  1  0  0  0  0
M  END
> <PUBCHEM_COMPOUND_CID>
25164884

> <PUBCHEM_CONFORMER_RMSD>
0.6

> <PUBCHEM_CONFORMER_DIVERSEORDER>
1
93
33
36
115
65
108
6
114
48
118
26
82
122
104
69
105
13
59
121
25
94
8
60
75
35
21
123
88
101
57
50
116
61
119
10
95
90
78
89
80
117
68
67
11
14
109
77
28
111
24
45
71
96
74
18
103
100
83
64
20
22
112
46
12
17
62
9
102
30
92
4
19
44
47
40
98
81
106
99
86
79
52
41
42
107
56
84
66
53
27
87
3
63
15
70
29
54
31
2
23
76
73
43
39
85
110
7
49
91
72
97
38
58
51
32
16
120
5
113
34
55
37

> <PUBCHEM_MMFF94_PARTIAL_CHARGES>
23
1 -0.56
10 0.26
11 0.28
12 0.28
13 -0.3
14 0.17
15 0.05
16 -0.15
18 -0.15
19 -0.15
2 0.31
20 -0.15
21 0.14
3 -0.42
33 0.15
34 0.15
35 0.15
36 0.15
37 0.15
38 0.27
4 -0.23
5 0.3
6 -0.71

> <PUBCHEM_EFFECTIVE_ROTOR_COUNT>
4.2

> <PUBCHEM_PHARMACOPHORE_FEATURES>
7
1 1 acceptor
1 5 donor
1 6 acceptor
5 2 3 4 13 14 rings
5 5 6 17 19 21 rings
6 1 7 8 9 11 12 rings
6 15 16 17 18 19 20 rings

> <PUBCHEM_HEAVY_ATOM_COUNT>
21

> <PUBCHEM_ATOM_DEF_STEREO_COUNT>
0

> <PUBCHEM_ATOM_UDEF_STEREO_COUNT>
0

> <PUBCHEM_BOND_DEF_STEREO_COUNT>
0

> <PUBCHEM_BOND_UDEF_STEREO_COUNT>
0

> <PUBCHEM_ISOTOPIC_ATOM_COUNT>
0

> <PUBCHEM_COMPONENT_COUNT>
1

> <PUBCHEM_CACTVS_TAUTO_COUNT>
2

> <PUBCHEM_CONFORMER_ID>
017FFC5400000001

> <PUBCHEM_MMFF94_ENERGY>
35.9385

> <PUBCHEM_FEATURE_SELFOVERLAP>
35.614

> <PUBCHEM_SHAPE_FINGERPRINT>
10835480 77 18337380617468127949
11128504 68 15647058174254624438
11796584 16 18113609097682864923
12516196 113 18273213123160020553
12596602 18 15984814986791743639
12633257 1 15913323623972197137
12760667 363 18342457024214245215
13103583 49 17774737436696683827
13402501 40 18408887347553467691
13533116 47 18201719582602566792
13544653 18 18411983580818199557
13551218 46 18341896311902368751
13685833 64 18335986445703724523
13955234 65 18129091385565552520
14216079 64 18335421301243963739
14251751 18 18260269654860803463
14341114 176 18412827996952623116
14350574 20 18408885118607294308
14386348 63 18408885157161721031
14617045 38 17967533450537137083
146900 427 17417245567452532416
14848160 23 18408601470160834423
15196674 1 18410292523086029127
15238133 3 13470687074902210458
15352361 1 18410294718046529939
15537594 2 18060136591570342692
15880784 105 18271809068444631163
17492 89 18127692626401997982
17844677 252 18410016528572692437
17870717 6 17676203577045034439
17959699 21 9079111159536189830
1813 80 17386001806034563525
18222031 100 17385723591048910508
193927 3 18272940379878086108
19784866 240 18335708234554044653
200 152 18273209777021969552
20028762 73 18273211980704910766
20261772 1 17917988391010230878
20374829 77 18186799188713219643
20403669 9 18412550898727195095
20621476 21 17895486920419457387
20645477 70 18410571778049951014
21033650 10 16805881771512552045
21150785 3 17458070365651336774
21267235 1 18201722813309393398
21279426 13 18336262354202197143
21623969 137 18202283602177203998
21682296 61 18200880577900472743
221490 88 18411418402066914816
2215653 11 18336817655072013551
22393880 68 17968086474166606414
22950370 63 18412547634667977529
23402539 116 14996280288589716853
23559900 14 18334850636875040525
239999 70 18333729139620386674
25122255 55 18408611348475170203
26918003 58 18411978044426039341
2838139 119 9367349202067660819
2871803 45 18187362121054339722
3004659 81 18113335318865516248
3089732 80 18408608062719914651
314194 84 18130781291470228053
329604 57 18410296908558991708
33382 64 18411703179335211354
3421961 26 18342455997184857472
4073 2 18261112980289642809
4214541 1 18409165476877053981
4325135 7 18113903801359424436
465052 167 18273498970487298318
5104073 3 18130219351282683680
5283173 99 18260822653702398301
5718773 13 18190737541028890194
59682541 35 18201143418142532562
59755656 215 18041274392439888539
59755656 520 18119525428404057629
636775 8 18269848541040508558
7495541 125 18410012139643058388
7970288 3 17614837419296672266
8863177 126 18410856606921859811

> <PUBCHEM_SHAPE_MULTIPOLES>
401.4
14.98
2.27
0.86
5.29
0.34
-0.02
9.04
0.43
-0.58
0.33
0.49
-0.04
1.46

> <PUBCHEM_SHAPE_SELFOVERLAP>
879.129

> <PUBCHEM_SHAPE_VOLUME>
218.7

> <PUBCHEM_COORDINATE_TYPE>
2
5
10

$$$$
