5329453
  -OEChem-10062121583D

 53 57  0     0  0  0  0  0  0999 V2000
   -9.9350    1.1764   -0.0714 O   0  0  0  0  0  0  0  0  0  0  0  0
   -4.1479   -1.5250   -0.4665 O   0  0  0  0  0  0  0  0  0  0  0  0
   -7.3766    0.0232    0.4039 N   0  0  0  0  0  0  0  0  0  0  0  0
    3.0847    1.3957    0.2150 N   0  0  0  0  0  0  0  0  0  0  0  0
    3.6664   -0.9084   -0.1389 N   0  0  0  0  0  0  0  0  0  0  0  0
    3.6735    2.6040    0.4165 N   0  0  0  0  0  0  0  0  0  0  0  0
    8.9652   -1.0469   -0.0611 N   0  0  0  0  0  0  0  0  0  0  0  0
   -8.5873   -0.4990    1.0528 C   0  0  0  0  0  0  0  0  0  0  0  0
   -7.7196    0.6252   -0.8919 C   0  0  0  0  0  0  0  0  0  0  0  0
   -6.3803   -1.0330    0.2379 C   0  0  0  0  0  0  0  0  0  0  0  0
   -9.6167    0.6175    1.2037 C   0  0  0  0  0  0  0  0  0  0  0  0
   -8.7687    1.7156   -0.6945 C   0  0  0  0  0  0  0  0  0  0  0  0
   -5.0913   -0.4693   -0.3384 C   0  0  0  0  0  0  0  0  0  0  0  0
   -2.8238   -1.1858   -0.3676 C   0  0  0  0  0  0  0  0  0  0  0  0
   -0.1373   -0.4985   -0.1679 C   0  0  0  0  0  0  0  0  0  0  0  0
    1.2836   -0.1352   -0.0632 C   0  0  0  0  0  0  0  0  0  0  0  0
    4.0337    0.3855    0.0724 C   0  0  0  0  0  0  0  0  0  0  0  0
    5.2646    0.9890    0.1913 C   0  0  0  0  0  0  0  0  0  0  0  0
    1.7219    1.1176    0.1430 C   0  0  0  0  0  0  0  0  0  0  0  0
   -2.4051    0.0768   -0.7710 C   0  0  0  0  0  0  0  0  0  0  0  0
   -1.9130   -2.1084    0.1345 C   0  0  0  0  0  0  0  0  0  0  0  0
   -1.0572    0.4216   -0.6709 C   0  0  0  0  0  0  0  0  0  0  0  0
   -0.5652   -1.7635    0.2348 C   0  0  0  0  0  0  0  0  0  0  0  0
    2.3890   -1.1358   -0.1999 C   0  0  0  0  0  0  0  0  0  0  0  0
    6.5166    0.2999    0.1057 C   0  0  0  0  0  0  0  0  0  0  0  0
    4.9804    2.3450    0.4008 C   0  0  0  0  0  0  0  0  0  0  0  0
    7.6465    0.9544   -0.3784 C   0  0  0  0  0  0  0  0  0  0  0  0
    6.6151   -1.0302    0.5062 C   0  0  0  0  0  0  0  0  0  0  0  0
    8.8344    0.2439   -0.4411 C   0  0  0  0  0  0  0  0  0  0  0  0
    7.8492   -1.6520    0.4040 C   0  0  0  0  0  0  0  0  0  0  0  0
   -8.3463   -0.8962    2.0453 H   0  0  0  0  0  0  0  0  0  0  0  0
   -9.0177   -1.3133    0.4554 H   0  0  0  0  0  0  0  0  0  0  0  0
   -8.1069   -0.1374   -1.5798 H   0  0  0  0  0  0  0  0  0  0  0  0
   -6.8631    1.1142   -1.3629 H   0  0  0  0  0  0  0  0  0  0  0  0
   -6.7497   -1.8469   -0.4004 H   0  0  0  0  0  0  0  0  0  0  0  0
   -6.1510   -1.4913    1.2090 H   0  0  0  0  0  0  0  0  0  0  0  0
  -10.5413    0.2165    1.6312 H   0  0  0  0  0  0  0  0  0  0  0  0
   -9.2589    1.4102    1.8720 H   0  0  0  0  0  0  0  0  0  0  0  0
   -8.3820    2.5460   -0.0910 H   0  0  0  0  0  0  0  0  0  0  0  0
   -9.0698    2.1239   -1.6647 H   0  0  0  0  0  0  0  0  0  0  0  0
   -4.7304    0.3191    0.3357 H   0  0  0  0  0  0  0  0  0  0  0  0
   -5.2331   -0.0612   -1.3427 H   0  0  0  0  0  0  0  0  0  0  0  0
    1.0664    1.9710    0.2736 H   0  0  0  0  0  0  0  0  0  0  0  0
   -3.0821    0.8103   -1.1978 H   0  0  0  0  0  0  0  0  0  0  0  0
   -2.2435   -3.0929    0.4533 H   0  0  0  0  0  0  0  0  0  0  0  0
   -0.7559    1.4069   -1.0165 H   0  0  0  0  0  0  0  0  0  0  0  0
    0.1211   -2.4963    0.6500 H   0  0  0  0  0  0  0  0  0  0  0  0
    2.0780   -2.1746   -0.3947 H   0  0  0  0  0  0  0  0  0  0  0  0
    5.6666    3.1675    0.5470 H   0  0  0  0  0  0  0  0  0  0  0  0
    7.6221    1.9880   -0.7085 H   0  0  0  0  0  0  0  0  0  0  0  0
    5.7919   -1.5923    0.9310 H   0  0  0  0  0  0  0  0  0  0  0  0
    9.7414    0.7096   -0.8123 H   0  0  0  0  0  0  0  0  0  0  0  0
    7.9789   -2.6841    0.7129 H   0  0  0  0  0  0  0  0  0  0  0  0
  1 11  1  0  0  0  0
  1 12  1  0  0  0  0
  2 13  1  0  0  0  0
  2 14  1  0  0  0  0
  3  8  1  0  0  0  0
  3  9  1  0  0  0  0
  3 10  1  0  0  0  0
  4  6  1  0  0  0  0
  4 17  1  0  0  0  0
  4 19  1  0  0  0  0
  5 17  1  0  0  0  0
  5 24  2  0  0  0  0
  6 26  2  0  0  0  0
  7 29  2  0  0  0  0
  7 30  1  0  0  0  0
  8 11  1  0  0  0  0
  8 31  1  0  0  0  0
  8 32  1  0  0  0  0
  9 12  1  0  0  0  0
  9 33  1  0  0  0  0
  9 34  1  0  0  0  0
 10 13  1  0  0  0  0
 10 35  1  0  0  0  0
 10 36  1  0  0  0  0
 11 37  1  0  0  0  0
 11 38  1  0  0  0  0
 12 39  1  0  0  0  0
 12 40  1  0  0  0  0
 13 41  1  0  0  0  0
 13 42  1  0  0  0  0
 14 20  2  0  0  0  0
 14 21  1  0  0  0  0
 15 16  1  0  0  0  0
 15 22  2  0  0  0  0
 15 23  1  0  0  0  0
 16 19  2  0  0  0  0
 16 24  1  0  0  0  0
 17 18  2  0  0  0  0
 18 25  1  0  0  0  0
 18 26  1  0  0  0  0
 19 43  1  0  0  0  0
 20 22  1  0  0  0  0
 20 44  1  0  0  0  0
 21 23  2  0  0  0  0
 21 45  1  0  0  0  0
 22 46  1  0  0  0  0
 23 47  1  0  0  0  0
 24 48  1  0  0  0  0
 25 27  2  0  0  0  0
 25 28  1  0  0  0  0
 26 49  1  0  0  0  0
 27 29  1  0  0  0  0
 27 50  1  0  0  0  0
 28 30  2  0  0  0  0
 28 51  1  0  0  0  0
 29 52  1  0  0  0  0
 30 53  1  0  0  0  0
M  END
> <PUBCHEM_COMPOUND_CID>
5329453

> <PUBCHEM_CONFORMER_RMSD>
1

> <PUBCHEM_CONFORMER_DIVERSEORDER>
1
11
14
7
15
8
21
10
16
6
2
18
12
3
19
13
17
20
4
9
5

> <PUBCHEM_MMFF94_PARTIAL_CHARGES>
41
1 -0.56
10 0.27
11 0.28
12 0.28
13 0.28
14 0.08
15 0.03
16 -0.01
17 -0.03
18 -0.05
19 -0.18
2 -0.36
20 -0.15
21 -0.15
22 -0.15
23 -0.15
24 0.38
25 0.05
26 0.14
27 -0.15
28 -0.15
29 0.16
3 -0.81
30 0.16
4 0.6
43 0.15
44 0.15
45 0.15
46 0.15
47 0.15
48 0.06
49 0.15
5 -0.58
50 0.15
51 0.15
52 0.15
53 0.15
6 -0.71
7 -0.62
8 0.27
9 0.27

> <PUBCHEM_EFFECTIVE_ROTOR_COUNT>
7.2

> <PUBCHEM_PHARMACOPHORE_FEATURES>
11
1 1 acceptor
1 2 acceptor
1 3 cation
1 5 acceptor
1 6 acceptor
1 7 acceptor
5 4 6 17 18 26 rings
6 1 3 8 9 11 12 rings
6 14 15 20 21 22 23 rings
6 4 5 16 17 19 24 rings
6 7 25 27 28 29 30 rings

> <PUBCHEM_HEAVY_ATOM_COUNT>
30

> <PUBCHEM_ATOM_DEF_STEREO_COUNT>
0

> <PUBCHEM_ATOM_UDEF_STEREO_COUNT>
0

> <PUBCHEM_BOND_DEF_STEREO_COUNT>
0

> <PUBCHEM_BOND_UDEF_STEREO_COUNT>
0

> <PUBCHEM_ISOTOPIC_ATOM_COUNT>
0

> <PUBCHEM_COMPONENT_COUNT>
1

> <PUBCHEM_CACTVS_TAUTO_COUNT>
1

> <PUBCHEM_CONFORMER_ID>
0051522D00000001

> <PUBCHEM_MMFF94_ENERGY>
88.2701

> <PUBCHEM_FEATURE_SELFOVERLAP>
55.953

> <PUBCHEM_SHAPE_FINGERPRINT>
10 15 18113335311320015089
10049733 71 17844536496529219630
10076449 9 12324242763403978495
10209105 3 18270684139775949686
10533779 47 18335711507319579603
10580692 12 18341895173213314939
106641 1 12901545758493343526
10674148 151 18187642526927221880
10883706 142 18131635600101510639
11135609 127 12103547716020260594
11408170 108 16773242782860865870
11410812 94 14620525489097232187
12013929 2 18261110751829317923
12013929 94 10737293442085170905
12082328 90 9295300421993746979
12089408 11 18342736346837626687
12202916 173 11312058763710297989
14117953 113 17918279757618182844
14150023 24 17489587853382111767
14251764 46 17632859719859156415
14428016 86 18342459236491648307
14444916 359 17385439925591874315
14918687 75 13407086929212123713
15131766 46 15551884573152892504
15289351 153 18341888559623504273
15347591 1 18120658190966278418
15510794 2 18334298673917558387
16087824 20 18412263939841943404
18335252 98 8646773300306027225
20105231 36 16877941641808956274
21095123 145 15213019354369201407
21130935 74 18270114763944622914
21267235 1 18408604769175674764
21585482 111 18263360292870962365
21792934 111 18202557394549211576
232437 2 18410575102771694235
23389318 12 8430315736459856731
23559900 14 18263637537082313712
249057 3 18131350834087698366
28498 318 18342457037120389174
3004659 81 18186516610969163458
335352 9 18412261761829119134
3552219 110 14345796028548935727
3633792 109 17846223245363874062
4073 2 17970065750522944154
437795 83 18270954637117113973
439807 62 18260829290069961410
45270241 37 18041005064358100718
45377200 153 14707219820278380217
54039377 194 8430305837314802041
59682541 35 8286198340612548870
6201320 215 16558198082017048857
6698420 124 18411138069472488139

> <PUBCHEM_SHAPE_MULTIPOLES>
580.74
34.77
1.99
0.84
38.13
0.37
-0.04
6.73
-3.46
-1.14
-0.15
1.08
0.06
0.4

> <PUBCHEM_SHAPE_SELFOVERLAP>
1275.038

> <PUBCHEM_SHAPE_VOLUME>
312.4

> <PUBCHEM_COORDINATE_TYPE>
2
5
10

$$$$
