49830698
  -OEChem-10052120433D

 39 41  0     0  0  0  0  0  0999 V2000
    7.3607   -1.0950   -0.0003 F   0  0  0  0  0  0  0  0  0  0  0  0
    5.9406   -2.3345    1.0836 F   0  0  0  0  0  0  0  0  0  0  0  0
    5.9404   -2.3333   -1.0853 F   0  0  0  0  0  0  0  0  0  0  0  0
   -6.6854   -2.1483    0.0000 O   0  0  0  0  0  0  0  0  0  0  0  0
    0.5530    2.3497    0.0001 O   0  0  0  0  0  0  0  0  0  0  0  0
   -0.8131    0.4475   -0.0001 N   0  0  0  0  0  0  0  0  0  0  0  0
   -4.6336    2.1477   -0.0006 N   0  0  0  0  0  0  0  0  0  0  0  0
    1.4792    0.2024    0.0002 N   0  0  0  0  0  0  0  0  0  0  0  0
    3.2826    1.7519    0.0010 N   0  0  0  0  0  0  0  0  0  0  0  0
   -3.2477    0.1764   -0.0001 C   0  0  0  0  0  0  0  0  0  0  0  0
   -2.1047    0.9873   -0.0003 C   0  0  0  0  0  0  0  0  0  0  0  0
   -4.5094    0.8071   -0.0004 C   0  0  0  0  0  0  0  0  0  0  0  0
   -3.1552   -1.2258    0.0005 C   0  0  0  0  0  0  0  0  0  0  0  0
   -5.6446    0.0010   -0.0006 C   0  0  0  0  0  0  0  0  0  0  0  0
   -2.2295    2.3691   -0.0003 C   0  0  0  0  0  0  0  0  0  0  0  0
   -5.5529   -1.3931    0.0000 C   0  0  0  0  0  0  0  0  0  0  0  0
   -4.3069   -2.0076    0.0007 C   0  0  0  0  0  0  0  0  0  0  0  0
   -3.5055    2.8945   -0.0003 C   0  0  0  0  0  0  0  0  0  0  0  0
    0.4248    1.1296    0.0000 C   0  0  0  0  0  0  0  0  0  0  0  0
    2.8696    0.4646    0.0004 C   0  0  0  0  0  0  0  0  0  0  0  0
    5.0942   -0.3769    0.0000 C   0  0  0  0  0  0  0  0  0  0  0  0
    3.7260   -0.6246    0.0000 C   0  0  0  0  0  0  0  0  0  0  0  0
    5.5577    0.9341    0.0005 C   0  0  0  0  0  0  0  0  0  0  0  0
    6.0608   -1.5118   -0.0004 C   0  0  0  0  0  0  0  0  0  0  0  0
    4.6194    1.9536    0.0011 C   0  0  0  0  0  0  0  0  0  0  0  0
   -6.5202   -3.5656    0.0007 C   0  0  0  0  0  0  0  0  0  0  0  0
   -2.2092   -1.7572    0.0009 H   0  0  0  0  0  0  0  0  0  0  0  0
   -6.6302    0.4642   -0.0009 H   0  0  0  0  0  0  0  0  0  0  0  0
   -1.4269    3.0875   -0.0003 H   0  0  0  0  0  0  0  0  0  0  0  0
   -0.7329   -0.5621   -0.0002 H   0  0  0  0  0  0  0  0  0  0  0  0
   -4.1603   -3.0820    0.0013 H   0  0  0  0  0  0  0  0  0  0  0  0
   -3.6666    3.9677   -0.0003 H   0  0  0  0  0  0  0  0  0  0  0  0
    1.2198   -0.7809    0.0000 H   0  0  0  0  0  0  0  0  0  0  0  0
    3.3498   -1.6432   -0.0004 H   0  0  0  0  0  0  0  0  0  0  0  0
    6.6158    1.1713    0.0006 H   0  0  0  0  0  0  0  0  0  0  0  0
    4.9289    2.9936    0.0016 H   0  0  0  0  0  0  0  0  0  0  0  0
   -6.0176   -3.9126   -0.9084 H   0  0  0  0  0  0  0  0  0  0  0  0
   -6.0182   -3.9118    0.9106 H   0  0  0  0  0  0  0  0  0  0  0  0
   -7.5220   -4.0077    0.0006 H   0  0  0  0  0  0  0  0  0  0  0  0
  1 24  1  0  0  0  0
  2 24  1  0  0  0  0
  3 24  1  0  0  0  0
  4 16  1  0  0  0  0
  4 26  1  0  0  0  0
  5 19  2  0  0  0  0
  6 11  1  0  0  0  0
  6 19  1  0  0  0  0
  6 30  1  0  0  0  0
  7 12  2  0  0  0  0
  7 18  1  0  0  0  0
  8 19  1  0  0  0  0
  8 20  1  0  0  0  0
  8 33  1  0  0  0  0
  9 20  2  0  0  0  0
  9 25  1  0  0  0  0
 10 11  2  0  0  0  0
 10 12  1  0  0  0  0
 10 13  1  0  0  0  0
 11 15  1  0  0  0  0
 12 14  1  0  0  0  0
 13 17  2  0  0  0  0
 13 27  1  0  0  0  0
 14 16  2  0  0  0  0
 14 28  1  0  0  0  0
 15 18  2  0  0  0  0
 15 29  1  0  0  0  0
 16 17  1  0  0  0  0
 17 31  1  0  0  0  0
 18 32  1  0  0  0  0
 20 22  1  0  0  0  0
 21 22  2  0  0  0  0
 21 23  1  0  0  0  0
 21 24  1  0  0  0  0
 22 34  1  0  0  0  0
 23 25  2  0  0  0  0
 23 35  1  0  0  0  0
 25 36  1  0  0  0  0
 26 37  1  0  0  0  0
 26 38  1  0  0  0  0
 26 39  1  0  0  0  0
M  END
> <PUBCHEM_COMPOUND_CID>
49830698

> <PUBCHEM_CONFORMER_RMSD>
0.8

> <PUBCHEM_CONFORMER_DIVERSEORDER>
1
17
18
28
13
27
14
29
3
24
16
5
32
23
30
31
2
6
15
21
4
12
26
10
11
25
9
20
22
19
7
8

> <PUBCHEM_MMFF94_PARTIAL_CHARGES>
35
1 -0.34
11 0.12
12 0.31
13 -0.15
14 -0.15
15 -0.15
16 0.08
17 -0.15
18 0.16
19 0.69
2 -0.34
20 0.43
21 -0.14
22 -0.15
23 -0.15
24 1.16
25 0.16
26 0.28
27 0.15
28 0.15
29 0.15
3 -0.34
30 0.37
31 0.15
32 0.15
33 0.37
34 0.15
35 0.15
36 0.15
4 -0.36
5 -0.57
6 -0.55
7 -0.62
8 -0.55
9 -0.62

> <PUBCHEM_EFFECTIVE_ROTOR_COUNT>
6

> <PUBCHEM_PHARMACOPHORE_FEATURES>
8
1 4 acceptor
1 5 acceptor
1 6 donor
1 7 acceptor
1 8 donor
6 10 12 13 14 16 17 rings
6 7 10 11 12 15 18 rings
6 9 20 21 22 23 25 rings

> <PUBCHEM_HEAVY_ATOM_COUNT>
26

> <PUBCHEM_ATOM_DEF_STEREO_COUNT>
0

> <PUBCHEM_ATOM_UDEF_STEREO_COUNT>
0

> <PUBCHEM_BOND_DEF_STEREO_COUNT>
0

> <PUBCHEM_BOND_UDEF_STEREO_COUNT>
0

> <PUBCHEM_ISOTOPIC_ATOM_COUNT>
0

> <PUBCHEM_COMPONENT_COUNT>
1

> <PUBCHEM_CACTVS_TAUTO_COUNT>
11

> <PUBCHEM_CONFORMER_ID>
02F85B2A00000001

> <PUBCHEM_MMFF94_ENERGY>
84.2434

> <PUBCHEM_FEATURE_SELFOVERLAP>
40.678

> <PUBCHEM_SHAPE_FINGERPRINT>
10319926 262 18270950259294556776
10411042 1 18266459987984238179
10595046 47 18335986453887886412
11315181 36 18409168796754943889
11524674 6 16774079587854135935
11991303 11 14634878573303255410
12107183 9 17760081822228420456
12166972 35 18113903783594499508
12236239 1 18260268546616907036
12760667 363 18337111267726821675
13073987 5 18342455963094196304
13167823 11 18409727357277785624
13248334 5 17618222154579565585
13288520 33 18410856560341656445
13533116 47 18336829813534071668
1361 4 18338799021716595986
13782708 43 18131630105920272375
13911987 19 14273456976845611849
14211702 104 18411989065280634814
14347332 77 18409728465231596525
14461889 52 18339635763582959616
14556957 393 15502383274657491918
14931854 50 17822559608547402411
15152005 304 18121231037100726963
15183329 4 18260546697695060818
15196674 1 18410573985426147488
15250474 111 18188479181903098586
15419008 42 17840583700191046988
17492 89 18338234985289286669
17844677 252 18411706478187138168
18335252 98 18339363084245583416
19958102 18 17967807267107253599
20028762 73 18412543189767755466
21130935 74 18343866631948211722
21197605 99 18342459283447028430
21236236 1 18411700976571019089
21267235 1 18410298012027853161
21623969 137 17561367257971523006
23081809 10 17822298955249914932
23522609 53 18121251802655251061
23559900 14 18339633551522275513
3004659 81 18259983773632463448
335352 9 18410571813243431829
3383291 50 18260829353814801779
397830 11 18130773591142551416
4073 2 18114187471132897712
4214541 1 18410856525370319621
439807 62 18411419535774510491
465052 167 18201722856011075204
497634 4 18334576832720639461
5104073 3 18202282502528562968
531348 171 17751070315316614373
559249 180 18409728426988366957
5718773 13 18340766061388970455
7495541 125 17846775239193301176
7970288 3 18122623014567916463
9996256 80 18410575080436715994
999808 66 18041008384004336907

> <PUBCHEM_SHAPE_MULTIPOLES>
481.58
20.33
3.39
0.65
12.83
0.73
0
15.43
0
-3.25
0
0.33
0.15
0

> <PUBCHEM_SHAPE_SELFOVERLAP>
1055.88

> <PUBCHEM_SHAPE_VOLUME>
260.3

> <PUBCHEM_COORDINATE_TYPE>
2
5
10

$$$$
