44340973
  -OEChem-10052120443D

 71 77  0     1  0  0  0  0  0999 V2000
   -4.1994   -0.9837    0.5051 O   0  0  0  0  0  0  0  0  0  0  0  0
   -2.6612    1.0395   -2.1634 O   0  0  0  0  0  0  0  0  0  0  0  0
   -5.0138    2.0135   -1.0820 O   0  0  0  0  0  0  0  0  0  0  0  0
   -7.2870    0.3804   -0.9465 O   0  0  0  0  0  0  0  0  0  0  0  0
   -5.9300   -1.5826    2.5511 O   0  0  0  0  0  0  0  0  0  0  0  0
    3.1907   -2.9088    0.4628 O   0  0  0  0  0  0  0  0  0  0  0  0
    4.1741    1.6209    0.6886 O   0  0  0  0  0  0  0  0  0  0  0  0
    2.1113    6.2101    0.6028 O   0  0  0  0  0  0  0  0  0  0  0  0
    6.9465   -3.2672    0.0624 O   0  0  0  0  0  0  0  0  0  0  0  0
    6.9171    0.1685   -2.3958 O   0  0  0  0  0  0  0  0  0  0  0  0
   -1.8765   -0.8348    0.0015 N   0  0  0  0  0  0  0  0  0  0  0  0
   -1.2877    1.8808    0.1361 N   0  0  0  0  0  0  0  0  0  0  0  0
    4.0587   -0.7275    0.6114 N   0  0  0  0  0  0  0  0  0  0  0  0
    5.3914   -1.0317    0.7402 N   0  0  0  0  0  0  0  0  0  0  0  0
   -3.2198   -0.1419   -0.1179 C   0  0  1  0  0  0  0  0  0  0  0  0
   -3.5949    0.1321   -1.5860 C   0  0  1  0  0  0  0  0  0  0  0  0
   -0.6003   -0.4106    0.1434 C   0  0  0  0  0  0  0  0  0  0  0  0
   -5.0075    0.7156   -1.6834 C   0  0  1  0  0  0  0  0  0  0  0  0
   -5.9873   -0.1967   -0.9425 C   0  0  1  0  0  0  0  0  0  0  0  0
   -5.5186   -0.4292    0.5000 C   0  0  1  0  0  0  0  0  0  0  0  0
    0.5117   -1.3135    0.2323 C   0  0  0  0  0  0  0  0  0  0  0  0
   -1.6943   -2.2093   -0.0177 C   0  0  0  0  0  0  0  0  0  0  0  0
   -0.3041    0.9558    0.2113 C   0  0  0  0  0  0  0  0  0  0  0  0
   -0.3019   -2.5328    0.1156 C   0  0  0  0  0  0  0  0  0  0  0  0
    1.8474   -0.9492    0.3790 C   0  0  0  0  0  0  0  0  0  0  0  0
    1.0794    1.3058    0.3626 C   0  0  0  0  0  0  0  0  0  0  0  0
    2.1419    0.4100    0.4465 C   0  0  0  0  0  0  0  0  0  0  0  0
    0.8451    2.7572    0.3786 C   0  0  0  0  0  0  0  0  0  0  0  0
   -6.4269   -1.4087    1.2368 C   0  0  0  0  0  0  0  0  0  0  0  0
   -0.5534    3.0524    0.2435 C   0  0  0  0  0  0  0  0  0  0  0  0
    3.0917   -1.6981    0.4857 C   0  0  0  0  0  0  0  0  0  0  0  0
   -2.6751   -3.2049   -0.1449 C   0  0  0  0  0  0  0  0  0  0  0  0
    3.5817    0.5640    0.5982 C   0  0  0  0  0  0  0  0  0  0  0  0
    0.0448   -3.9055    0.1134 C   0  0  0  0  0  0  0  0  0  0  0  0
   -2.2797   -4.5430   -0.1409 C   0  0  0  0  0  0  0  0  0  0  0  0
   -0.9410   -4.8901   -0.0139 C   0  0  0  0  0  0  0  0  0  0  0  0
    1.7281    3.8573    0.4995 C   0  0  0  0  0  0  0  0  0  0  0  0
   -1.0322    4.3713    0.2305 C   0  0  0  0  0  0  0  0  0  0  0  0
    6.0131   -1.1345   -0.5734 C   0  0  0  0  0  0  0  0  0  0  0  0
    1.2402    5.1685    0.4856 C   0  0  0  0  0  0  0  0  0  0  0  0
   -0.1192    5.4194    0.3530 C   0  0  0  0  0  0  0  0  0  0  0  0
    7.2771   -1.9869   -0.4616 C   0  0  0  0  0  0  0  0  0  0  0  0
    6.3201    0.2681   -1.1077 C   0  0  0  0  0  0  0  0  0  0  0  0
   -3.1970    0.6967    0.5688 H   0  0  0  0  0  0  0  0  0  0  0  0
   -3.5553   -0.8036   -2.1573 H   0  0  0  0  0  0  0  0  0  0  0  0
   -5.3079    0.8596   -2.7264 H   0  0  0  0  0  0  0  0  0  0  0  0
   -6.0404   -1.1586   -1.4682 H   0  0  0  0  0  0  0  0  0  0  0  0
   -5.5094    0.5023    1.0798 H   0  0  0  0  0  0  0  0  0  0  0  0
   -6.4229   -2.3881    0.7466 H   0  0  0  0  0  0  0  0  0  0  0  0
   -7.4545   -1.0377    1.2961 H   0  0  0  0  0  0  0  0  0  0  0  0
   -2.2436    1.8626   -0.1532 H   0  0  0  0  0  0  0  0  0  0  0  0
   -3.7258   -2.9953   -0.3006 H   0  0  0  0  0  0  0  0  0  0  0  0
    1.0802   -4.2162    0.2099 H   0  0  0  0  0  0  0  0  0  0  0  0
   -2.9329    1.1925   -3.0843 H   0  0  0  0  0  0  0  0  0  0  0  0
   -4.6860    1.9598   -0.1716 H   0  0  0  0  0  0  0  0  0  0  0  0
   -7.5442    0.5167   -1.8742 H   0  0  0  0  0  0  0  0  0  0  0  0
   -3.0288   -5.3229   -0.2511 H   0  0  0  0  0  0  0  0  0  0  0  0
    2.7948    3.6864    0.6039 H   0  0  0  0  0  0  0  0  0  0  0  0
   -0.6534   -5.9381   -0.0160 H   0  0  0  0  0  0  0  0  0  0  0  0
   -2.0934    4.5775    0.1270 H   0  0  0  0  0  0  0  0  0  0  0  0
    5.4532   -1.9260    1.2270 H   0  0  0  0  0  0  0  0  0  0  0  0
    5.3510   -1.6594   -1.2768 H   0  0  0  0  0  0  0  0  0  0  0  0
   -6.5186   -2.2134    2.9995 H   0  0  0  0  0  0  0  0  0  0  0  0
   -0.4852    6.4433    0.3434 H   0  0  0  0  0  0  0  0  0  0  0  0
    8.0142   -1.5219    0.2029 H   0  0  0  0  0  0  0  0  0  0  0  0
    7.7395   -2.1333   -1.4432 H   0  0  0  0  0  0  0  0  0  0  0  0
    5.4154    0.8604   -1.2489 H   0  0  0  0  0  0  0  0  0  0  0  0
    7.0060    0.8102   -0.4476 H   0  0  0  0  0  0  0  0  0  0  0  0
    3.0147    5.8596    0.6857 H   0  0  0  0  0  0  0  0  0  0  0  0
    7.7736   -3.7756    0.1163 H   0  0  0  0  0  0  0  0  0  0  0  0
    7.1041    1.0746   -2.6952 H   0  0  0  0  0  0  0  0  0  0  0  0
  1 15  1  0  0  0  0
  1 20  1  0  0  0  0
  2 16  1  0  0  0  0
  2 54  1  0  0  0  0
  3 18  1  0  0  0  0
  3 55  1  0  0  0  0
  4 19  1  0  0  0  0
  4 56  1  0  0  0  0
  5 29  1  0  0  0  0
  5 63  1  0  0  0  0
  6 31  2  0  0  0  0
  7 33  2  0  0  0  0
  8 40  1  0  0  0  0
  8 69  1  0  0  0  0
  9 42  1  0  0  0  0
  9 70  1  0  0  0  0
 10 43  1  0  0  0  0
 10 71  1  0  0  0  0
 11 15  1  0  0  0  0
 11 17  1  0  0  0  0
 11 22  1  0  0  0  0
 12 23  1  0  0  0  0
 12 30  1  0  0  0  0
 12 51  1  0  0  0  0
 13 14  1  0  0  0  0
 13 31  1  0  0  0  0
 13 33  1  0  0  0  0
 14 39  1  0  0  0  0
 14 61  1  0  0  0  0
 15 16  1  0  0  0  0
 15 44  1  0  0  0  0
 16 18  1  0  0  0  0
 16 45  1  0  0  0  0
 17 21  1  0  0  0  0
 17 23  2  0  0  0  0
 18 19  1  0  0  0  0
 18 46  1  0  0  0  0
 19 20  1  0  0  0  0
 19 47  1  0  0  0  0
 20 29  1  0  0  0  0
 20 48  1  0  0  0  0
 21 24  1  0  0  0  0
 21 25  2  0  0  0  0
 22 24  1  0  0  0  0
 22 32  2  0  0  0  0
 23 26  1  0  0  0  0
 24 34  2  0  0  0  0
 25 27  1  0  0  0  0
 25 31  1  0  0  0  0
 26 27  2  0  0  0  0
 26 28  1  0  0  0  0
 27 33  1  0  0  0  0
 28 30  2  0  0  0  0
 28 37  1  0  0  0  0
 29 49  1  0  0  0  0
 29 50  1  0  0  0  0
 30 38  1  0  0  0  0
 32 35  1  0  0  0  0
 32 52  1  0  0  0  0
 34 36  1  0  0  0  0
 34 53  1  0  0  0  0
 35 36  2  0  0  0  0
 35 57  1  0  0  0  0
 36 59  1  0  0  0  0
 37 40  2  0  0  0  0
 37 58  1  0  0  0  0
 38 41  2  0  0  0  0
 38 60  1  0  0  0  0
 39 42  1  0  0  0  0
 39 43  1  0  0  0  0
 39 62  1  0  0  0  0
 40 41  1  0  0  0  0
 41 64  1  0  0  0  0
 42 65  1  0  0  0  0
 42 66  1  0  0  0  0
 43 67  1  0  0  0  0
 43 68  1  0  0  0  0
M  END
> <PUBCHEM_COMPOUND_CID>
44340973

> <PUBCHEM_CONFORMER_RMSD>
1

> <PUBCHEM_CONFORMER_DIVERSEORDER>
2
23
12
20
13
17
25
8
21
19
10
4
28
18
27
16
14
22
26
24
15
7
11
9
5
1
3
6

> <PUBCHEM_MMFF94_PARTIAL_CHARGES>
57
1 -0.56
10 -0.68
11 -0.04
12 -0.05
13 -0.11
14 -0.64
15 0.54
16 0.28
17 -0.05
18 0.28
19 0.28
2 -0.68
20 0.28
21 -0.01
22 -0.15
23 -0.05
25 0.09
26 -0.01
27 0.09
29 0.28
3 -0.68
30 -0.15
31 0.54
32 -0.15
33 0.54
34 -0.15
35 -0.15
36 -0.15
37 -0.15
38 -0.15
39 0.27
4 -0.68
40 0.08
41 -0.15
42 0.28
43 0.28
5 -0.68
51 0.27
52 0.15
53 0.15
54 0.4
55 0.4
56 0.4
57 0.15
58 0.15
59 0.15
6 -0.57
60 0.15
61 0.36
63 0.4
64 0.15
69 0.45
7 -0.57
70 0.4
71 0.4
8 -0.53
9 -0.68

> <PUBCHEM_EFFECTIVE_ROTOR_COUNT>
7.4

> <PUBCHEM_PHARMACOPHORE_FEATURES>
27
1 1 acceptor
1 10 acceptor
1 10 donor
1 11 cation
1 12 cation
1 12 donor
1 14 donor
1 2 acceptor
1 2 donor
1 3 acceptor
1 3 donor
1 4 acceptor
1 4 donor
1 5 acceptor
1 5 donor
1 6 acceptor
1 7 acceptor
1 8 donor
1 9 acceptor
1 9 donor
5 11 17 21 22 24 rings
5 12 23 26 28 30 rings
5 13 25 27 31 33 rings
6 1 15 16 18 19 20 rings
6 17 21 23 25 26 27 rings
6 22 24 32 34 35 36 rings
6 28 30 37 38 40 41 rings

> <PUBCHEM_HEAVY_ATOM_COUNT>
43

> <PUBCHEM_ATOM_DEF_STEREO_COUNT>
0

> <PUBCHEM_ATOM_UDEF_STEREO_COUNT>
5

> <PUBCHEM_BOND_DEF_STEREO_COUNT>
0

> <PUBCHEM_BOND_UDEF_STEREO_COUNT>
0

> <PUBCHEM_ISOTOPIC_ATOM_COUNT>
0

> <PUBCHEM_COMPONENT_COUNT>
1

> <PUBCHEM_CACTVS_TAUTO_COUNT>
27

> <PUBCHEM_CONFORMER_ID>
02A496ED00000002

> <PUBCHEM_MMFF94_ENERGY>
162.4515

> <PUBCHEM_FEATURE_SELFOVERLAP>
137.541

> <PUBCHEM_SHAPE_FINGERPRINT>
10050765 1 18051410970525053419
102385 1 17835232720448377323
10675989 125 17038080838335633069
10864689 126 18337942399226815853
1100329 8 18339076115820929035
12058002 1 17487370176640246715
12788726 201 18263076626885132090
13140716 1 18051122897966737032
13617811 41 18410853223088692614
13911987 19 18335975377230248239
140371 6 18342461460551809480
14040222 275 18271816726386878268
14068700 675 17988920054849893217
14790565 3 18339077095147682617
14937079 2 18411415154934859497
14955137 171 18336836380522990067
15081414 286 18413110575772728825
15198563 99 18268712701893670644
15320467 1 18411129221982289097
15324884 4 17751337682043247965
15439362 3 18195232533193808409
15927050 60 17835802267397485013
15950262 2 15647893678748842580
16087824 20 18339360739536681897
16112460 7 18271816773441900265
16628084 112 18195804060059497334
19311894 1 18340761619781051375
19319366 153 17894625938095448490
19611394 137 18187942719403583483
20775438 99 17694742566479745830
21133410 127 17610043935146652181
21792961 116 18187926127881341794
21796203 349 18120971444764481969
22311459 1 18412262826448589618
22440779 20 16736673226829419122
23559900 14 18269547394358532136
23576562 1 18265608961220030727
24771750 20 17974864070468757668
283562 15 18196931067682195680
3178227 256 18408892845543759963
5171179 24 18050006889517321994
5265222 85 18260554467211985910
6700243 42 17770539471690712950

> <PUBCHEM_SHAPE_MULTIPOLES>
806.3
15.11
7.19
1.28
5.75
7.32
-0.36
-8.8
-3.53
2.57
1.45
-0.95
0.05
1.6

> <PUBCHEM_SHAPE_SELFOVERLAP>
1817.817

> <PUBCHEM_SHAPE_VOLUME>
421

> <PUBCHEM_COORDINATE_TYPE>
2
5
10

$$$$
