16125042
  -OEChem-10062121593D

 44 47  0     0  0  0  0  0  0999 V2000
    2.3923   -0.2230    1.2032 O   0  0  0  0  0  0  0  0  0  0  0  0
   -6.6422   -1.7301   -0.1754 N   0  0  0  0  0  0  0  0  0  0  0  0
   -5.6916   -2.5698   -0.6182 N   0  0  0  0  0  0  0  0  0  0  0  0
    1.5006    0.4971   -0.8403 N   0  0  0  0  0  0  0  0  0  0  0  0
    3.7857    0.2439   -0.6161 N   0  0  0  0  0  0  0  0  0  0  0  0
   -4.0365    0.6210    0.1557 C   0  0  0  0  0  0  0  0  0  0  0  0
   -4.8129   -0.5236   -0.0905 C   0  0  0  0  0  0  0  0  0  0  0  0
   -2.6171    0.5898   -0.0993 C   0  0  0  0  0  0  0  0  0  0  0  0
   -6.1804   -0.4853    0.1580 C   0  0  0  0  0  0  0  0  0  0  0  0
   -4.6725    1.7682    0.6460 C   0  0  0  0  0  0  0  0  0  0  0  0
   -1.7357    0.1992    0.9089 C   0  0  0  0  0  0  0  0  0  0  0  0
   -2.1259    0.9492   -1.3544 C   0  0  0  0  0  0  0  0  0  0  0  0
   -6.8343    0.6479    0.6466 C   0  0  0  0  0  0  0  0  0  0  0  0
   -4.5801   -1.8324   -0.5650 C   0  0  0  0  0  0  0  0  0  0  0  0
    0.1279    0.5279   -0.5931 C   0  0  0  0  0  0  0  0  0  0  0  0
   -6.0478    1.7794    0.8865 C   0  0  0  0  0  0  0  0  0  0  0  0
   -0.3632    0.1683    0.6620 C   0  0  0  0  0  0  0  0  0  0  0  0
   -0.7535    0.9184   -1.6014 C   0  0  0  0  0  0  0  0  0  0  0  0
    5.0742   -0.0238   -0.0963 C   0  0  0  0  0  0  0  0  0  0  0  0
    7.4701   -0.1225   -0.3895 C   0  0  0  0  0  0  0  0  0  0  0  0
    2.5491    0.1340    0.0400 C   0  0  0  0  0  0  0  0  0  0  0  0
    6.2004    0.1427   -0.9023 C   0  0  0  0  0  0  0  0  0  0  0  0
    5.2176   -0.4553    1.2223 C   0  0  0  0  0  0  0  0  0  0  0  0
    7.6138   -0.5541    0.9292 C   0  0  0  0  0  0  0  0  0  0  0  0
    6.4875   -0.7205    1.7350 C   0  0  0  0  0  0  0  0  0  0  0  0
    8.6745    0.0534   -1.2516 C   0  0  0  0  0  0  0  0  0  0  0  0
   -4.0984    2.6706    0.8466 H   0  0  0  0  0  0  0  0  0  0  0  0
   -2.1032   -0.0842    1.8925 H   0  0  0  0  0  0  0  0  0  0  0  0
   -2.7993    1.2557   -2.1515 H   0  0  0  0  0  0  0  0  0  0  0  0
   -7.9024    0.6547    0.8329 H   0  0  0  0  0  0  0  0  0  0  0  0
   -3.6468   -2.2812   -0.8748 H   0  0  0  0  0  0  0  0  0  0  0  0
   -6.5169    2.6832    1.2673 H   0  0  0  0  0  0  0  0  0  0  0  0
   -7.5943   -2.0703   -0.1242 H   0  0  0  0  0  0  0  0  0  0  0  0
    0.2522   -0.1451    1.4932 H   0  0  0  0  0  0  0  0  0  0  0  0
   -0.3847    1.2011   -2.5841 H   0  0  0  0  0  0  0  0  0  0  0  0
    1.7820    0.7725   -1.7780 H   0  0  0  0  0  0  0  0  0  0  0  0
    6.0895    0.4770   -1.9314 H   0  0  0  0  0  0  0  0  0  0  0  0
    3.7626    0.5537   -1.5844 H   0  0  0  0  0  0  0  0  0  0  0  0
    4.3975   -0.6086    1.9088 H   0  0  0  0  0  0  0  0  0  0  0  0
    8.5975   -0.7661    1.3398 H   0  0  0  0  0  0  0  0  0  0  0  0
    6.6006   -1.0573    2.7615 H   0  0  0  0  0  0  0  0  0  0  0  0
    8.8771   -0.8681   -1.8063 H   0  0  0  0  0  0  0  0  0  0  0  0
    8.5310    0.8705   -1.9668 H   0  0  0  0  0  0  0  0  0  0  0  0
    9.5573    0.3032   -0.6533 H   0  0  0  0  0  0  0  0  0  0  0  0
  1 21  2  0  0  0  0
  2  3  1  0  0  0  0
  2  9  1  0  0  0  0
  2 33  1  0  0  0  0
  3 14  2  0  0  0  0
  4 15  1  0  0  0  0
  4 21  1  0  0  0  0
  4 36  1  0  0  0  0
  5 19  1  0  0  0  0
  5 21  1  0  0  0  0
  5 38  1  0  0  0  0
  6  7  2  0  0  0  0
  6  8  1  0  0  0  0
  6 10  1  0  0  0  0
  7  9  1  0  0  0  0
  7 14  1  0  0  0  0
  8 11  2  0  0  0  0
  8 12  1  0  0  0  0
  9 13  2  0  0  0  0
 10 16  2  0  0  0  0
 10 27  1  0  0  0  0
 11 17  1  0  0  0  0
 11 28  1  0  0  0  0
 12 18  2  0  0  0  0
 12 29  1  0  0  0  0
 13 16  1  0  0  0  0
 13 30  1  0  0  0  0
 14 31  1  0  0  0  0
 15 17  2  0  0  0  0
 15 18  1  0  0  0  0
 16 32  1  0  0  0  0
 17 34  1  0  0  0  0
 18 35  1  0  0  0  0
 19 22  1  0  0  0  0
 19 23  2  0  0  0  0
 20 22  2  0  0  0  0
 20 24  1  0  0  0  0
 20 26  1  0  0  0  0
 22 37  1  0  0  0  0
 23 25  1  0  0  0  0
 23 39  1  0  0  0  0
 24 25  2  0  0  0  0
 24 40  1  0  0  0  0
 25 41  1  0  0  0  0
 26 42  1  0  0  0  0
 26 43  1  0  0  0  0
 26 44  1  0  0  0  0
M  END
> <PUBCHEM_COMPOUND_CID>
16125042

> <PUBCHEM_CONFORMER_RMSD>
0.8

> <PUBCHEM_CONFORMER_DIVERSEORDER>
1
18
27
29
13
9
30
17
4
16
8
15
21
14
3
32
6
23
20
10
31
28
19
7
11
26
12
25
5
2
24
22

> <PUBCHEM_MMFF94_PARTIAL_CHARGES>
38
1 -0.57
10 -0.15
11 -0.15
12 -0.15
13 -0.15
14 0.14
15 0.12
16 -0.15
17 -0.15
18 -0.15
19 0.12
2 0.3
20 -0.14
21 0.69
22 -0.15
23 -0.15
24 -0.15
25 -0.15
26 0.14
27 0.15
28 0.15
29 0.15
3 -0.71
30 0.15
31 0.15
32 0.15
33 0.27
34 0.15
35 0.15
36 0.37
37 0.15
38 0.37
39 0.15
4 -0.55
40 0.15
41 0.15
5 -0.55
9 -0.15

> <PUBCHEM_EFFECTIVE_ROTOR_COUNT>
5

> <PUBCHEM_PHARMACOPHORE_FEATURES>
9
1 1 acceptor
1 2 donor
1 3 acceptor
1 4 donor
1 5 donor
5 2 3 7 9 14 rings
6 19 20 22 23 24 25 rings
6 6 7 9 10 13 16 rings
6 8 11 12 15 17 18 rings

> <PUBCHEM_HEAVY_ATOM_COUNT>
26

> <PUBCHEM_ATOM_DEF_STEREO_COUNT>
0

> <PUBCHEM_ATOM_UDEF_STEREO_COUNT>
0

> <PUBCHEM_BOND_DEF_STEREO_COUNT>
0

> <PUBCHEM_BOND_UDEF_STEREO_COUNT>
0

> <PUBCHEM_ISOTOPIC_ATOM_COUNT>
0

> <PUBCHEM_COMPONENT_COUNT>
1

> <PUBCHEM_CACTVS_TAUTO_COUNT>
8

> <PUBCHEM_CONFORMER_ID>
00F60C7200000001

> <PUBCHEM_MMFF94_ENERGY>
79.4829

> <PUBCHEM_FEATURE_SELFOVERLAP>
45.812

> <PUBCHEM_SHAPE_FINGERPRINT>
10 15 17131827686114735168
10299344 5 18260831492749698874
10319926 262 18131343129296151793
11315181 36 18409168823009764969
11524674 6 17704069620587102807
12091667 2 17313105237686067261
12166972 35 18260548944090050572
12236239 1 18187366549782806701
12516196 113 18259983769533051700
13288520 33 18408884053787655773
13533116 47 17530959151967537176
13885169 127 18202005404012392640
14068700 675 18407761447441078708
14251764 18 18040436590412130336
14251764 46 18343303652531353645
14344974 204 17416680456756743311
14849402 71 18263086664256286332
14856354 85 18413390951786424975
14933364 13 17846498132340560304
15021287 119 18040159522045907805
15119646 104 17895189970422371482
15183329 4 17458340853669408386
15301273 46 17632860807039737788
15348495 7 17489297650456374290
15352257 5 18341895165172734326
15419008 47 17274818026540921552
15419008 91 17845919767760602968
15716309 27 17967250879721013472
1577012 14 18113336388766001882
15849732 13 17275103925307351212
17093844 174 17346594171576922673
17780758 139 18412543211405310293
20105231 36 16845299349926609254
21150785 3 15430035474411747486
21267235 1 16515409530196393668
21315759 40 18261112955010449160
21792961 116 16486981640207261180
220451 1 18334574620817249826
22224240 67 18333730222121145282
23035841 295 18334575745834865611
23081809 10 18113343015647643836
23389318 12 17530964726561105470
23516275 137 18197237870219396714
23522609 53 17970093113248507996
23559900 14 18131067143657046785
328311 84 16773801390211479238
34797466 226 18041287591543769934
397830 11 17488731419353628282
4325135 7 18333169466157533910
437795 51 17203336589791832934
44389302 135 18263071138677395418
444735 82 10954040195165656398
4938544 92 18339922607174305293
5219985 9 17967813847155556620
54039377 194 17968383472290119507
58260988 114 17024049206370833443
5969126 39 16950556671299544717
6691757 9 18343588431039385923
9953998 17 17917713500814165281

> <PUBCHEM_SHAPE_MULTIPOLES>
509.27
25.76
1.49
1.33
30.14
0.57
-0.05
4.88
-1.56
-3.71
0.17
1.24
-0.07
-2.15

> <PUBCHEM_SHAPE_SELFOVERLAP>
1131.327

> <PUBCHEM_SHAPE_VOLUME>
273.3

> <PUBCHEM_COORDINATE_TYPE>
2
5
10

$$$$
