49830371
  -OEChem-10052115183D

 52 55  0     0  0  0  0  0  0999 V2000
    4.4950    2.0003   -0.5517 S   0  0  0  0  0  0  0  0  0  0  0  0
  -10.3020   -0.2178    1.1075 F   0  0  0  0  0  0  0  0  0  0  0  0
    7.1753    0.9153   -1.2990 O   0  0  0  0  0  0  0  0  0  0  0  0
   -4.1252    0.0106   -1.2181 O   0  0  0  0  0  0  0  0  0  0  0  0
    4.1954   -2.3876    0.2968 N   0  0  0  0  0  0  0  0  0  0  0  0
    8.0548   -0.7570    0.0452 N   0  0  0  0  0  0  0  0  0  0  0  0
    1.8670   -2.1240    0.6074 N   0  0  0  0  0  0  0  0  0  0  0  0
   -3.2642    0.4570    0.9146 N   0  0  0  0  0  0  0  0  0  0  0  0
   -5.5406    0.1816    0.6357 N   0  0  0  0  0  0  0  0  0  0  0  0
    3.2571   -0.1910    0.0397 C   0  0  0  0  0  0  0  0  0  0  0  0
    2.2740    0.8537    0.0002 C   0  0  0  0  0  0  0  0  0  0  0  0
    4.5322    0.3041   -0.2473 C   0  0  0  0  0  0  0  0  0  0  0  0
    0.8544    0.7528    0.2344 C   0  0  0  0  0  0  0  0  0  0  0  0
    5.6514   -0.5368   -0.2658 C   0  0  0  0  0  0  0  0  0  0  0  0
    3.1250   -1.5621    0.3106 C   0  0  0  0  0  0  0  0  0  0  0  0
    2.8100    2.0818   -0.3069 C   0  0  0  0  0  0  0  0  0  0  0  0
   -0.0106    0.4878   -0.8275 C   0  0  0  0  0  0  0  0  0  0  0  0
    0.3464    0.9191    1.5228 C   0  0  0  0  0  0  0  0  0  0  0  0
    5.4069   -1.8695    0.0155 C   0  0  0  0  0  0  0  0  0  0  0  0
   -1.8913    0.5563    0.6875 C   0  0  0  0  0  0  0  0  0  0  0  0
    6.9936   -0.0692   -0.5582 C   0  0  0  0  0  0  0  0  0  0  0  0
   -1.3833    0.3897   -0.6010 C   0  0  0  0  0  0  0  0  0  0  0  0
   -1.0263    0.8210    1.7494 C   0  0  0  0  0  0  0  0  0  0  0  0
    9.4442   -0.3986   -0.1287 C   0  0  0  0  0  0  0  0  0  0  0  0
   -4.2978    0.1959   -0.0177 C   0  0  0  0  0  0  0  0  0  0  0  0
    9.8317    0.7662    0.7585 C   0  0  0  0  0  0  0  0  0  0  0  0
   -6.8187   -0.0418    0.0713 C   0  0  0  0  0  0  0  0  0  0  0  0
   -7.9525   -0.0192    0.8835 C   0  0  0  0  0  0  0  0  0  0  0  0
   -6.9451   -0.2859   -1.2962 C   0  0  0  0  0  0  0  0  0  0  0  0
   -9.2127   -0.2405    0.3282 C   0  0  0  0  0  0  0  0  0  0  0  0
   -8.2053   -0.5073   -1.8515 C   0  0  0  0  0  0  0  0  0  0  0  0
   -9.3391   -0.4848   -1.0393 C   0  0  0  0  0  0  0  0  0  0  0  0
    2.2997    3.0311   -0.4023 H   0  0  0  0  0  0  0  0  0  0  0  0
    0.3706    0.3542   -1.8373 H   0  0  0  0  0  0  0  0  0  0  0  0
    1.0072    1.1245    2.3617 H   0  0  0  0  0  0  0  0  0  0  0  0
    6.1952   -2.6163    0.0033 H   0  0  0  0  0  0  0  0  0  0  0  0
   -1.9855    0.1824   -1.4740 H   0  0  0  0  0  0  0  0  0  0  0  0
   -1.4082    0.9524    2.7586 H   0  0  0  0  0  0  0  0  0  0  0  0
    7.8610   -1.5167    0.6895 H   0  0  0  0  0  0  0  0  0  0  0  0
    1.0163   -1.5890    0.6413 H   0  0  0  0  0  0  0  0  0  0  0  0
    1.8269   -3.1174    0.7954 H   0  0  0  0  0  0  0  0  0  0  0  0
   -3.5582    0.5901    1.8791 H   0  0  0  0  0  0  0  0  0  0  0  0
    9.6128   -0.1429   -1.1799 H   0  0  0  0  0  0  0  0  0  0  0  0
   10.0449   -1.2805    0.1142 H   0  0  0  0  0  0  0  0  0  0  0  0
    9.6599    0.5283    1.8136 H   0  0  0  0  0  0  0  0  0  0  0  0
    9.2468    1.6607    0.5206 H   0  0  0  0  0  0  0  0  0  0  0  0
   10.8912    1.0079    0.6299 H   0  0  0  0  0  0  0  0  0  0  0  0
   -5.5312    0.3517    1.6381 H   0  0  0  0  0  0  0  0  0  0  0  0
   -7.8683    0.1698    1.9506 H   0  0  0  0  0  0  0  0  0  0  0  0
   -6.1177   -0.3197   -1.9904 H   0  0  0  0  0  0  0  0  0  0  0  0
   -8.3054   -0.6975   -2.9162 H   0  0  0  0  0  0  0  0  0  0  0  0
  -10.3204   -0.6570   -1.4713 H   0  0  0  0  0  0  0  0  0  0  0  0
  1 12  1  0  0  0  0
  1 16  1  0  0  0  0
  2 30  1  0  0  0  0
  3 21  2  0  0  0  0
  4 25  2  0  0  0  0
  5 15  2  0  0  0  0
  5 19  1  0  0  0  0
  6 21  1  0  0  0  0
  6 24  1  0  0  0  0
  6 39  1  0  0  0  0
  7 15  1  0  0  0  0
  7 40  1  0  0  0  0
  7 41  1  0  0  0  0
  8 20  1  0  0  0  0
  8 25  1  0  0  0  0
  8 42  1  0  0  0  0
  9 25  1  0  0  0  0
  9 27  1  0  0  0  0
  9 48  1  0  0  0  0
 10 11  1  0  0  0  0
 10 12  2  0  0  0  0
 10 15  1  0  0  0  0
 11 13  1  0  0  0  0
 11 16  2  0  0  0  0
 12 14  1  0  0  0  0
 13 17  2  0  0  0  0
 13 18  1  0  0  0  0
 14 19  2  0  0  0  0
 14 21  1  0  0  0  0
 16 33  1  0  0  0  0
 17 22  1  0  0  0  0
 17 34  1  0  0  0  0
 18 23  2  0  0  0  0
 18 35  1  0  0  0  0
 19 36  1  0  0  0  0
 20 22  2  0  0  0  0
 20 23  1  0  0  0  0
 22 37  1  0  0  0  0
 23 38  1  0  0  0  0
 24 26  1  0  0  0  0
 24 43  1  0  0  0  0
 24 44  1  0  0  0  0
 26 45  1  0  0  0  0
 26 46  1  0  0  0  0
 26 47  1  0  0  0  0
 27 28  2  0  0  0  0
 27 29  1  0  0  0  0
 28 30  1  0  0  0  0
 28 49  1  0  0  0  0
 29 31  2  0  0  0  0
 29 50  1  0  0  0  0
 30 32  2  0  0  0  0
 31 32  1  0  0  0  0
 31 51  1  0  0  0  0
 32 52  1  0  0  0  0
M  END
> <PUBCHEM_COMPOUND_CID>
49830371

> <PUBCHEM_CONFORMER_RMSD>
1

> <PUBCHEM_CONFORMER_DIVERSEORDER>
1
30
19
33
39
38
15
35
40
6
27
7
36
25
13
8
4
21
26
34
5
18
22
11
37
2
32
28
3
14
9
20
12
23
16
10
29
31
24
17

> <PUBCHEM_MMFF94_PARTIAL_CHARGES>
45
1 -0.08
11 -0.05
12 0.04
13 0.05
14 0.09
15 0.41
16 -0.11
17 -0.15
18 -0.15
19 0.16
2 -0.19
20 0.12
21 0.54
22 -0.15
23 -0.15
24 0.3
25 0.69
27 0.12
28 -0.15
29 -0.15
3 -0.57
30 0.19
31 -0.15
32 -0.15
33 0.15
34 0.15
35 0.15
36 0.15
37 0.15
38 0.15
39 0.37
4 -0.57
40 0.4
41 0.4
42 0.37
48 0.37
49 0.15
5 -0.62
50 0.15
51 0.15
52 0.15
6 -0.73
7 -0.9
8 -0.55
9 -0.55

> <PUBCHEM_EFFECTIVE_ROTOR_COUNT>
8

> <PUBCHEM_PHARMACOPHORE_FEATURES>
11
1 3 acceptor
1 4 acceptor
1 6 donor
1 7 donor
1 8 donor
1 9 donor
3 5 7 15 cation
5 1 10 11 12 16 rings
6 13 17 18 20 22 23 rings
6 27 28 29 30 31 32 rings
6 5 10 12 14 15 19 rings

> <PUBCHEM_HEAVY_ATOM_COUNT>
32

> <PUBCHEM_ATOM_DEF_STEREO_COUNT>
0

> <PUBCHEM_ATOM_UDEF_STEREO_COUNT>
0

> <PUBCHEM_BOND_DEF_STEREO_COUNT>
0

> <PUBCHEM_BOND_UDEF_STEREO_COUNT>
0

> <PUBCHEM_ISOTOPIC_ATOM_COUNT>
0

> <PUBCHEM_COMPONENT_COUNT>
1

> <PUBCHEM_CACTVS_TAUTO_COUNT>
21

> <PUBCHEM_CONFORMER_ID>
02F859E300000001

> <PUBCHEM_MMFF94_ENERGY>
96.8423

> <PUBCHEM_FEATURE_SELFOVERLAP>
55.936

> <PUBCHEM_SHAPE_FINGERPRINT>
10050765 1 16413208984160637197
10162869 55 18409165528305417548
10299344 5 18202283602767579607
106641 1 16200148798968587240
11135609 127 15502670338299062886
12089408 11 17632860827823614164
12144603 126 17847064380717822329
12236239 1 17988648450551774360
12522641 24 17489581299620382840
12741549 16 17603861209691523756
12838862 33 18261101990085608242
13383668 1 18189050907957423550
14040221 8 15285643149988528030
14118638 360 18187359883851249033
14150022 121 13398642623670437563
14251764 18 18202565073201396687
14251764 46 18410575088958046211
14344974 52 15791739640878346100
150020 25 17530966886908367611
15183329 4 18408036308932206459
15198563 99 17531804650429335413
15247644 1 18410013230164818730
15419008 47 17240475919298462765
15510794 2 17603591854800363219
15840311 113 17560798866933198248
16120349 18 18342455980996810432
16728433 110 18272086123430827193
16728433 281 17315340446474229757
1818759 1 17846785109344489591
19841028 212 18129664093305219126
20105231 36 17385729115146902315
21150785 3 17458064863629373111
21792934 111 16057158406354877496
22956985 138 16842499837986259102
232437 2 17632297865750078278
23522609 53 17844835709963358145
23576562 1 13985531217471723391
24771293 8 12829481525222297615
24893992 56 12612762336714917429
249057 3 18333732450486387871
335352 9 18408047317086263204
335507 130 18259702307192947037
3383291 50 15410890804451965575
3633792 109 18334295345038017385
4098825 35 18335137545576224405
45377200 153 18042406997687876307
5219985 9 17917711301659652025
5381727 24 13984661455785551977
57303763 39 14763769962378956404
5937810 71 17095516242221282829
59520757 100 16081664381887066738
59682541 35 14405181772366450986
6081469 158 16877941629561941782
67123 10 17060620005795912192
9663363 56 16056880222225130153

> <PUBCHEM_SHAPE_MULTIPOLES>
618.48
34.24
1.57
1.26
34.87
0.32
-0.03
5.94
-3.57
-3.06
0.09
1.74
-0.14
-1.19

> <PUBCHEM_SHAPE_SELFOVERLAP>
1345.917

> <PUBCHEM_SHAPE_VOLUME>
340.9

> <PUBCHEM_COORDINATE_TYPE>
2
5
10

$$$$
