44340908
  -OEChem-10062121583D

 72 78  0     1  0  0  0  0  0999 V2000
   -4.0283    0.7231   -0.7952 O   0  0  0  0  0  0  0  0  0  0  0  0
   -2.9100   -1.4693    1.9477 O   0  0  0  0  0  0  0  0  0  0  0  0
   -4.9819   -2.4195    0.3800 O   0  0  0  0  0  0  0  0  0  0  0  0
   -7.2637   -0.8495   -0.0461 O   0  0  0  0  0  0  0  0  0  0  0  0
   -5.3845    1.4390   -3.0728 O   0  0  0  0  0  0  0  0  0  0  0  0
    3.1399    2.8574    0.7439 O   0  0  0  0  0  0  0  0  0  0  0  0
    4.3480   -1.6064    0.3563 O   0  0  0  0  0  0  0  0  0  0  0  0
   -3.4082    5.2074    0.4916 O   0  0  0  0  0  0  0  0  0  0  0  0
    2.5087   -6.2466   -0.2889 O   0  0  0  0  0  0  0  0  0  0  0  0
    7.8530   -0.1636    0.0026 O   0  0  0  0  0  0  0  0  0  0  0  0
    6.2268    2.9511   -2.3431 O   0  0  0  0  0  0  0  0  0  0  0  0
   -1.8307    0.6021    0.1147 N   0  0  0  0  0  0  0  0  0  0  0  0
   -1.1073   -2.0741   -0.1180 N   0  0  0  0  0  0  0  0  0  0  0  0
    4.1166    0.7230    0.5891 N   0  0  0  0  0  0  0  0  0  0  0  0
    5.4383    1.0682    0.7286 N   0  0  0  0  0  0  0  0  0  0  0  0
   -3.1411   -0.1383   -0.0689 C   0  0  1  0  0  0  0  0  0  0  0  0
   -3.7633   -0.5453    1.2796 C   0  0  1  0  0  0  0  0  0  0  0  0
   -0.5322    0.2294    0.1756 C   0  0  0  0  0  0  0  0  0  0  0  0
   -5.1426   -1.1768    1.0701 C   0  0  1  0  0  0  0  0  0  0  0  0
   -6.0118   -0.2354    0.2336 C   0  0  1  0  0  0  0  0  0  0  0  0
    0.5365    1.1693    0.3602 C   0  0  0  0  0  0  0  0  0  0  0  0
   -5.3004    0.1309   -1.0756 C   0  0  1  0  0  0  0  0  0  0  0  0
   -1.7162    1.9751    0.2727 C   0  0  0  0  0  0  0  0  0  0  0  0
   -0.1683   -1.1172    0.0583 C   0  0  0  0  0  0  0  0  0  0  0  0
   -0.3382    2.3497    0.4200 C   0  0  0  0  0  0  0  0  0  0  0  0
    1.8917    0.8584    0.4317 C   0  0  0  0  0  0  0  0  0  0  0  0
    1.2342   -1.4119    0.1354 C   0  0  0  0  0  0  0  0  0  0  0  0
    2.2536   -0.4811    0.3152 C   0  0  0  0  0  0  0  0  0  0  0  0
    1.0711   -2.8633   -0.0343 C   0  0  0  0  0  0  0  0  0  0  0  0
   -6.1031    1.1409   -1.8897 C   0  0  0  0  0  0  0  0  0  0  0  0
   -0.3144   -3.2102   -0.1795 C   0  0  0  0  0  0  0  0  0  0  0  0
    3.1006    1.6504    0.6106 C   0  0  0  0  0  0  0  0  0  0  0  0
   -2.7472    2.9267    0.2960 C   0  0  0  0  0  0  0  0  0  0  0  0
    3.7028   -0.5788    0.4168 C   0  0  0  0  0  0  0  0  0  0  0  0
   -0.0588    3.7273    0.5905 C   0  0  0  0  0  0  0  0  0  0  0  0
   -2.4172    4.2716    0.4668 C   0  0  0  0  0  0  0  0  0  0  0  0
   -1.0942    4.6679    0.6118 C   0  0  0  0  0  0  0  0  0  0  0  0
    2.0094   -3.9227   -0.0762 C   0  0  0  0  0  0  0  0  0  0  0  0
   -0.7287   -4.5392   -0.3555 C   0  0  0  0  0  0  0  0  0  0  0  0
    6.0345    1.3131   -0.5779 C   0  0  0  0  0  0  0  0  0  0  0  0
    1.5856   -5.2444   -0.2522 C   0  0  0  0  0  0  0  0  0  0  0  0
    0.2370   -5.5458   -0.3894 C   0  0  0  0  0  0  0  0  0  0  0  0
    7.5501    1.1417   -0.4745 C   0  0  0  0  0  0  0  0  0  0  0  0
    5.6540    2.7159   -1.0618 C   0  0  0  0  0  0  0  0  0  0  0  0
   -2.9568   -0.9154   -0.8019 H   0  0  0  0  0  0  0  0  0  0  0  0
   -3.8697    0.3403    1.9184 H   0  0  0  0  0  0  0  0  0  0  0  0
   -5.6203   -1.4163    2.0257 H   0  0  0  0  0  0  0  0  0  0  0  0
   -6.2022    0.6771    0.8128 H   0  0  0  0  0  0  0  0  0  0  0  0
   -5.1447   -0.7482   -1.7136 H   0  0  0  0  0  0  0  0  0  0  0  0
   -6.2317    2.0755   -1.3336 H   0  0  0  0  0  0  0  0  0  0  0  0
   -7.0853    0.7455   -2.1657 H   0  0  0  0  0  0  0  0  0  0  0  0
   -2.0994   -2.1085   -0.0069 H   0  0  0  0  0  0  0  0  0  0  0  0
   -3.7951    2.6598    0.2408 H   0  0  0  0  0  0  0  0  0  0  0  0
    0.9624    4.0756    0.7071 H   0  0  0  0  0  0  0  0  0  0  0  0
   -3.3369   -1.7069    2.7884 H   0  0  0  0  0  0  0  0  0  0  0  0
   -4.4973   -2.2801   -0.4476 H   0  0  0  0  0  0  0  0  0  0  0  0
   -7.6783   -1.0705    0.8052 H   0  0  0  0  0  0  0  0  0  0  0  0
   -0.8513    5.7194    0.7441 H   0  0  0  0  0  0  0  0  0  0  0  0
    3.0690   -3.7120    0.0288 H   0  0  0  0  0  0  0  0  0  0  0  0
   -1.7811   -4.7848   -0.4636 H   0  0  0  0  0  0  0  0  0  0  0  0
    5.9088    0.2876    1.1866 H   0  0  0  0  0  0  0  0  0  0  0  0
    5.6911    0.5662   -1.3079 H   0  0  0  0  0  0  0  0  0  0  0  0
   -5.9098    2.0873   -3.5721 H   0  0  0  0  0  0  0  0  0  0  0  0
   -0.0789   -6.5774   -0.5255 H   0  0  0  0  0  0  0  0  0  0  0  0
   -4.2663    4.7653    0.3729 H   0  0  0  0  0  0  0  0  0  0  0  0
    7.9877    1.8716    0.2159 H   0  0  0  0  0  0  0  0  0  0  0  0
    8.0260    1.2620   -1.4531 H   0  0  0  0  0  0  0  0  0  0  0  0
    4.5776    2.8247   -1.1986 H   0  0  0  0  0  0  0  0  0  0  0  0
    6.0101    3.4906   -0.3741 H   0  0  0  0  0  0  0  0  0  0  0  0
    3.3960   -5.8640   -0.1785 H   0  0  0  0  0  0  0  0  0  0  0  0
    8.8217   -0.2313    0.0525 H   0  0  0  0  0  0  0  0  0  0  0  0
    5.9711    3.8506   -2.6099 H   0  0  0  0  0  0  0  0  0  0  0  0
  1 16  1  0  0  0  0
  1 22  1  0  0  0  0
  2 17  1  0  0  0  0
  2 55  1  0  0  0  0
  3 19  1  0  0  0  0
  3 56  1  0  0  0  0
  4 20  1  0  0  0  0
  4 57  1  0  0  0  0
  5 30  1  0  0  0  0
  5 63  1  0  0  0  0
  6 32  2  0  0  0  0
  7 34  2  0  0  0  0
  8 36  1  0  0  0  0
  8 65  1  0  0  0  0
  9 41  1  0  0  0  0
  9 70  1  0  0  0  0
 10 43  1  0  0  0  0
 10 71  1  0  0  0  0
 11 44  1  0  0  0  0
 11 72  1  0  0  0  0
 12 16  1  0  0  0  0
 12 18  1  0  0  0  0
 12 23  1  0  0  0  0
 13 24  1  0  0  0  0
 13 31  1  0  0  0  0
 13 52  1  0  0  0  0
 14 15  1  0  0  0  0
 14 32  1  0  0  0  0
 14 34  1  0  0  0  0
 15 40  1  0  0  0  0
 15 61  1  0  0  0  0
 16 17  1  0  0  0  0
 16 45  1  0  0  0  0
 17 19  1  0  0  0  0
 17 46  1  0  0  0  0
 18 21  1  0  0  0  0
 18 24  2  0  0  0  0
 19 20  1  0  0  0  0
 19 47  1  0  0  0  0
 20 22  1  0  0  0  0
 20 48  1  0  0  0  0
 21 25  1  0  0  0  0
 21 26  2  0  0  0  0
 22 30  1  0  0  0  0
 22 49  1  0  0  0  0
 23 25  2  0  0  0  0
 23 33  1  0  0  0  0
 24 27  1  0  0  0  0
 25 35  1  0  0  0  0
 26 28  1  0  0  0  0
 26 32  1  0  0  0  0
 27 28  2  0  0  0  0
 27 29  1  0  0  0  0
 28 34  1  0  0  0  0
 29 31  2  0  0  0  0
 29 38  1  0  0  0  0
 30 50  1  0  0  0  0
 30 51  1  0  0  0  0
 31 39  1  0  0  0  0
 33 36  2  0  0  0  0
 33 53  1  0  0  0  0
 35 37  2  0  0  0  0
 35 54  1  0  0  0  0
 36 37  1  0  0  0  0
 37 58  1  0  0  0  0
 38 41  2  0  0  0  0
 38 59  1  0  0  0  0
 39 42  2  0  0  0  0
 39 60  1  0  0  0  0
 40 43  1  0  0  0  0
 40 44  1  0  0  0  0
 40 62  1  0  0  0  0
 41 42  1  0  0  0  0
 42 64  1  0  0  0  0
 43 66  1  0  0  0  0
 43 67  1  0  0  0  0
 44 68  1  0  0  0  0
 44 69  1  0  0  0  0
M  END
> <PUBCHEM_COMPOUND_CID>
44340908

> <PUBCHEM_CONFORMER_RMSD>
1

> <PUBCHEM_CONFORMER_DIVERSEORDER>
2
22
18
16
10
15
9
6
13
20
21
4
17
19
3
12
14
8
11
7
5
1

> <PUBCHEM_MMFF94_PARTIAL_CHARGES>
58
1 -0.56
10 -0.68
11 -0.68
12 -0.04
13 -0.05
14 -0.11
15 -0.64
16 0.54
17 0.28
18 -0.05
19 0.28
2 -0.68
20 0.28
21 -0.01
22 0.28
23 -0.15
24 -0.05
26 0.09
27 -0.01
28 0.09
3 -0.68
30 0.28
31 -0.15
32 0.54
33 -0.15
34 0.54
35 -0.15
36 0.08
37 -0.15
38 -0.15
39 -0.15
4 -0.68
40 0.27
41 0.08
42 -0.15
43 0.28
44 0.28
5 -0.68
52 0.27
53 0.15
54 0.15
55 0.4
56 0.4
57 0.4
58 0.15
59 0.15
6 -0.57
60 0.15
61 0.36
63 0.4
64 0.15
65 0.45
7 -0.57
70 0.45
71 0.4
72 0.4
8 -0.53
9 -0.53

> <PUBCHEM_EFFECTIVE_ROTOR_COUNT>
7.4

> <PUBCHEM_PHARMACOPHORE_FEATURES>
28
1 1 acceptor
1 10 acceptor
1 10 donor
1 11 acceptor
1 11 donor
1 12 cation
1 13 cation
1 13 donor
1 15 donor
1 2 acceptor
1 2 donor
1 3 acceptor
1 3 donor
1 4 acceptor
1 4 donor
1 5 acceptor
1 5 donor
1 6 acceptor
1 7 acceptor
1 8 donor
1 9 donor
5 12 18 21 23 25 rings
5 13 24 27 29 31 rings
5 14 26 28 32 34 rings
6 1 16 17 19 20 22 rings
6 18 21 24 26 27 28 rings
6 23 25 33 35 36 37 rings
6 29 31 38 39 41 42 rings

> <PUBCHEM_HEAVY_ATOM_COUNT>
44

> <PUBCHEM_ATOM_DEF_STEREO_COUNT>
0

> <PUBCHEM_ATOM_UDEF_STEREO_COUNT>
5

> <PUBCHEM_BOND_DEF_STEREO_COUNT>
0

> <PUBCHEM_BOND_UDEF_STEREO_COUNT>
0

> <PUBCHEM_ISOTOPIC_ATOM_COUNT>
0

> <PUBCHEM_COMPONENT_COUNT>
1

> <PUBCHEM_CACTVS_TAUTO_COUNT>
201

> <PUBCHEM_CONFORMER_ID>
02A496AC00000002

> <PUBCHEM_MMFF94_ENERGY>
164.4741

> <PUBCHEM_FEATURE_SELFOVERLAP>
142.619

> <PUBCHEM_SHAPE_FINGERPRINT>
10050765 1 18051695443135176955
10190108 129 18269016240275064705
102385 1 17980204084468855169
10290309 65 18409449197731348243
1100329 8 18123752225250342697
11062273 19 18123185693838210502
11135926 11 18410854344043430317
11136131 41 18263074440810926426
11227688 84 18342443851829799575
11991303 11 18189335847949018230
12058002 1 17533247234794662977
12440605 4 18127138459561810665
12788726 201 18411415107589875920
13140716 1 18339358694578393778
13911987 19 18409724097466232253
140371 6 18334021566816832841
14068700 686 18340487763980611864
14790565 3 18411427193965190160
15082195 135 18122049914867614652
15320467 1 18412261739980047923
15439362 3 17761776161574450424
15705408 1 17906737999536418470
15890870 6 18409166653333739150
19311894 1 18125155189461432746
19611394 137 17827090802812383155
20775438 99 17255068456832863061
21133410 127 17826522059555059292
21133410 171 17253094868686496775
21796203 349 17758152510587647475
22311459 1 18340488954546681824
23559900 14 17764299548879879290
283562 15 18271530814250612361
3383291 50 18413106191349702002
3388396 114 18270384007091780253
3882209 13 17399200103270947091
4394409 98 18334576879865007884
5265222 85 18191872433752575668
563151 97 18339921506844896108
6004065 56 18268137825369208739
6669772 16 18343025488896054638
6700243 42 17407724982678247348
9961470 85 17840015583303012160

> <PUBCHEM_SHAPE_MULTIPOLES>
821.01
15
7.63
1.27
8.01
6.88
0.77
-7.64
5.01
1.82
0.2
-1.19
-0.71
-0.23

> <PUBCHEM_SHAPE_SELFOVERLAP>
1851.404

> <PUBCHEM_SHAPE_VOLUME>
428.7

> <PUBCHEM_COORDINATE_TYPE>
2
5
10

$$$$
