49830327
  -OEChem-10052120443D

 37 39  0     0  0  0  0  0  0999 V2000
   -0.5223   -4.9143   -0.7636 Cl  0  0  0  0  0  0  0  0  0  0  0  0
   -2.3308    1.5787    0.4108 O   0  0  0  0  0  0  0  0  0  0  0  0
    3.7288    0.0172    1.5732 N   0  0  0  0  0  0  0  0  0  0  0  0
   -2.9246   -0.6287   -0.1404 N   0  0  0  0  0  0  0  0  0  0  0  0
    4.4927    1.8886    0.2627 N   0  0  0  0  0  0  0  0  0  0  0  0
   -1.6913   -2.6271   -0.4167 N   0  0  0  0  0  0  0  0  0  0  0  0
    1.8634   -0.5192    0.4854 C   0  0  0  0  0  0  0  0  0  0  0  0
    2.4562    0.5927   -0.1694 C   0  0  0  0  0  0  0  0  0  0  0  0
    0.6578   -1.2341    0.1794 C   0  0  0  0  0  0  0  0  0  0  0  0
    3.6171    0.9021    0.5333 C   0  0  0  0  0  0  0  0  0  0  0  0
    2.6687   -0.8516    1.5535 C   0  0  0  0  0  0  0  0  0  0  0  0
   -0.5640   -0.5701    0.1691 C   0  0  0  0  0  0  0  0  0  0  0  0
   -4.6521    1.0464    0.0349 C   0  0  0  0  0  0  0  0  0  0  0  0
    2.1467    1.3848   -1.2870 C   0  0  0  0  0  0  0  0  0  0  0  0
   -1.6990   -1.3054   -0.1324 C   0  0  0  0  0  0  0  0  0  0  0  0
    0.7063   -2.5937   -0.1081 C   0  0  0  0  0  0  0  0  0  0  0  0
   -4.9880    2.5106    0.3104 C   0  0  0  0  0  0  0  0  0  0  0  0
   -3.1646    0.7269    0.1220 C   0  0  0  0  0  0  0  0  0  0  0  0
    3.0202    2.4209   -1.6123 C   0  0  0  0  0  0  0  0  0  0  0  0
   -0.4856   -3.2384   -0.3971 C   0  0  0  0  0  0  0  0  0  0  0  0
   -6.4805    2.7950    0.2149 C   0  0  0  0  0  0  0  0  0  0  0  0
    4.1450    2.6187   -0.8226 C   0  0  0  0  0  0  0  0  0  0  0  0
    2.5875   -1.6243    2.3062 H   0  0  0  0  0  0  0  0  0  0  0  0
    4.4785    0.0073    2.2508 H   0  0  0  0  0  0  0  0  0  0  0  0
   -0.5439    0.4813    0.4053 H   0  0  0  0  0  0  0  0  0  0  0  0
   -4.9980    0.7723   -0.9693 H   0  0  0  0  0  0  0  0  0  0  0  0
   -5.1776    0.4065    0.7543 H   0  0  0  0  0  0  0  0  0  0  0  0
    1.2596    1.2040   -1.8853 H   0  0  0  0  0  0  0  0  0  0  0  0
   -4.6331    2.7887    1.3100 H   0  0  0  0  0  0  0  0  0  0  0  0
   -4.4540    3.1516   -0.4013 H   0  0  0  0  0  0  0  0  0  0  0  0
    1.6461   -3.1384   -0.1122 H   0  0  0  0  0  0  0  0  0  0  0  0
   -3.7249   -1.2148   -0.3655 H   0  0  0  0  0  0  0  0  0  0  0  0
    2.8240    3.0598   -2.4666 H   0  0  0  0  0  0  0  0  0  0  0  0
   -6.8590    2.5633   -0.7857 H   0  0  0  0  0  0  0  0  0  0  0  0
   -6.6791    3.8518    0.4183 H   0  0  0  0  0  0  0  0  0  0  0  0
   -7.0394    2.1968    0.9415 H   0  0  0  0  0  0  0  0  0  0  0  0
    4.8367    3.4221   -1.0619 H   0  0  0  0  0  0  0  0  0  0  0  0
  1 20  1  0  0  0  0
  2 18  2  0  0  0  0
  3 10  1  0  0  0  0
  3 11  1  0  0  0  0
  3 24  1  0  0  0  0
  4 15  1  0  0  0  0
  4 18  1  0  0  0  0
  4 32  1  0  0  0  0
  5 10  1  0  0  0  0
  5 22  2  0  0  0  0
  6 15  2  0  0  0  0
  6 20  1  0  0  0  0
  7  8  1  0  0  0  0
  7  9  1  0  0  0  0
  7 11  2  0  0  0  0
  8 10  2  0  0  0  0
  8 14  1  0  0  0  0
  9 12  2  0  0  0  0
  9 16  1  0  0  0  0
 11 23  1  0  0  0  0
 12 15  1  0  0  0  0
 12 25  1  0  0  0  0
 13 17  1  0  0  0  0
 13 18  1  0  0  0  0
 13 26  1  0  0  0  0
 13 27  1  0  0  0  0
 14 19  2  0  0  0  0
 14 28  1  0  0  0  0
 16 20  2  0  0  0  0
 16 31  1  0  0  0  0
 17 21  1  0  0  0  0
 17 29  1  0  0  0  0
 17 30  1  0  0  0  0
 19 22  1  0  0  0  0
 19 33  1  0  0  0  0
 21 34  1  0  0  0  0
 21 35  1  0  0  0  0
 21 36  1  0  0  0  0
 22 37  1  0  0  0  0
M  END
> <PUBCHEM_COMPOUND_CID>
49830327

> <PUBCHEM_CONFORMER_RMSD>
0.8

> <PUBCHEM_CONFORMER_DIVERSEORDER>
1
11
9
5
7
6
3
10
17
4
12
15
14
8
13
16
2

> <PUBCHEM_MMFF94_PARTIAL_CHARGES>
27
1 -0.18
10 0.11
11 -0.3
12 -0.15
13 0.06
14 -0.15
15 0.43
16 -0.15
18 0.57
19 -0.15
2 -0.57
20 0.49
22 0.16
23 0.15
24 0.27
25 0.15
28 0.15
3 0.03
31 0.15
32 0.37
33 0.15
37 0.15
4 -0.55
5 -0.57
6 -0.62
7 -0.05
9 0.05

> <PUBCHEM_EFFECTIVE_ROTOR_COUNT>
5

> <PUBCHEM_PHARMACOPHORE_FEATURES>
9
1 2 acceptor
1 21 hydrophobe
1 3 cation
1 3 donor
1 4 donor
1 5 acceptor
5 3 7 8 10 11 rings
6 5 8 10 14 19 22 rings
6 6 9 12 15 16 20 rings

> <PUBCHEM_HEAVY_ATOM_COUNT>
22

> <PUBCHEM_ATOM_DEF_STEREO_COUNT>
0

> <PUBCHEM_ATOM_UDEF_STEREO_COUNT>
0

> <PUBCHEM_BOND_DEF_STEREO_COUNT>
0

> <PUBCHEM_BOND_UDEF_STEREO_COUNT>
0

> <PUBCHEM_ISOTOPIC_ATOM_COUNT>
0

> <PUBCHEM_COMPONENT_COUNT>
1

> <PUBCHEM_CACTVS_TAUTO_COUNT>
18

> <PUBCHEM_CONFORMER_ID>
02F859B700000001

> <PUBCHEM_MMFF94_ENERGY>
49.8807

> <PUBCHEM_FEATURE_SELFOVERLAP>
45.783

> <PUBCHEM_SHAPE_FINGERPRINT>
10411042 1 17187285665462364799
10483366 6 18050029717933080806
10498660 4 18201726162603617321
10937287 8 18411985771356807653
11640471 11 18115307924683578964
12107183 9 18335972109187169962
12173636 292 18268985560806795303
12403259 118 18260826020935081417
12553582 1 17403451274685488526
12633257 1 15357983433408304744
12788726 201 18049155867639112883
13583140 156 16806710807906560779
13590594 115 17043466241581263403
13955234 65 18123478168368220939
13965767 371 18187636999219973932
14251764 75 18336281123025697053
14294032 229 18200038468727742243
14739800 52 17837190934279697712
14767858 380 18270100436497648423
14790565 3 18411985797395987513
15342168 16 18410011001492679293
15475509 8 18335427808229667286
15842332 3 17971734804678584634
16988056 13 17761775061750826797
17134986 127 18338808831189564422
17810953 82 18336267830038190197
17834072 32 18409449197847191301
18785283 64 18193840345119103747
19427546 62 18337955563860701619
1979834 28 18189909625752401941
20157964 124 18265612075372422133
20238998 120 8915142094103711374
20567600 9 18053962657713640277
20715895 44 18046053866612733877
20739085 24 18120650223939354490
21049683 271 17835249939072942438
22149856 69 18200043837958920649
235170 7 15267335219806714593
23557571 272 17843408633441460950
23558518 356 17686064189747801252
23559900 14 18122068607251400563
23598288 3 18191586556403192818
245318 6 17896339041635987621
38570 142 17387718182852223012
394222 165 18261668190780971883
474 4 18337955572044149097
5048184 11 18409169947505349509
6034566 193 18266197152612471097
6058803 2 18044361963077623690
7064713 232 18410002256338170040
7808743 9 18267024040821608352
7832392 63 18262517121616670892
960060 61 12175610777145159545
9849439 229 18342727538239699369
9981440 41 18410294722658249323

> <PUBCHEM_SHAPE_MULTIPOLES>
428.83
10.31
4.9
1.13
13.13
5.4
0.03
-14.89
1.29
1.62
-1.84
-1.33
-0.23
-1.7

> <PUBCHEM_SHAPE_SELFOVERLAP>
924.638

> <PUBCHEM_SHAPE_VOLUME>
237.5

> <PUBCHEM_COORDINATE_TYPE>
2
5
10

$$$$
