11634725
  -OEChem-10062122033D

 54 57  0     1  0  0  0  0  0999 V2000
   -5.0722   -1.3949   -4.0796 Cl  0  0  0  0  0  0  0  0  0  0  0  0
    7.5731   -0.3472   -0.9133 Cl  0  0  0  0  0  0  0  0  0  0  0  0
    5.3624   -4.6234    0.6265 F   0  0  0  0  0  0  0  0  0  0  0  0
   -5.5514   -2.9397    1.5029 O   0  0  0  0  0  0  0  0  0  0  0  0
   -2.9999    0.1609    3.2550 O   0  0  0  0  0  0  0  0  0  0  0  0
   -3.1652   -0.1640    0.9878 N   0  0  0  0  0  0  0  0  0  0  0  0
   -0.4455    1.3795    2.9130 N   0  0  0  0  0  0  0  0  0  0  0  0
    2.6777    1.1558   -0.0797 N   0  0  0  0  0  0  0  0  0  0  0  0
    4.6839    0.5812   -1.1526 N   0  0  0  0  0  0  0  0  0  0  0  0
    3.8058    2.7266   -1.5174 N   0  0  0  0  0  0  0  0  0  0  0  0
   -4.4647   -0.8158    1.0522 C   0  0  1  0  0  0  0  0  0  0  0  0
   -5.2718   -0.5525   -0.1742 C   0  0  0  0  0  0  0  0  0  0  0  0
   -4.2810   -2.3155    1.3475 C   0  0  0  0  0  0  0  0  0  0  0  0
   -1.1964    0.8933    1.9043 C   0  0  0  0  0  0  0  0  0  0  0  0
    0.6687    1.6849    1.0161 C   0  0  0  0  0  0  0  0  0  0  0  0
   -2.5160    0.2864    2.1285 C   0  0  0  0  0  0  0  0  0  0  0  0
   -0.5642    1.0533    0.7193 C   0  0  0  0  0  0  0  0  0  0  0  0
    1.7263    2.0898    0.1375 C   0  0  0  0  0  0  0  0  0  0  0  0
    0.7159    1.8747    2.3797 C   0  0  0  0  0  0  0  0  0  0  0  0
   -4.8440   -1.0398   -1.4092 C   0  0  0  0  0  0  0  0  0  0  0  0
   -6.4552    0.1804   -0.0854 C   0  0  0  0  0  0  0  0  0  0  0  0
    1.7491    3.3484   -0.4323 C   0  0  0  0  0  0  0  0  0  0  0  0
   -5.5997   -0.7942   -2.5556 C   0  0  0  0  0  0  0  0  0  0  0  0
   -7.2109    0.4260   -1.2319 C   0  0  0  0  0  0  0  0  0  0  0  0
   -6.7832   -0.0612   -2.4669 C   0  0  0  0  0  0  0  0  0  0  0  0
    3.6725    1.5350   -0.9043 C   0  0  0  0  0  0  0  0  0  0  0  0
    2.8224    3.6133   -1.2583 C   0  0  0  0  0  0  0  0  0  0  0  0
    0.7017    4.3760   -0.1940 C   0  0  0  0  0  0  0  0  0  0  0  0
    4.8804   -0.7374   -0.7025 C   0  0  0  0  0  0  0  0  0  0  0  0
    6.1618   -1.2756   -0.5525 C   0  0  0  0  0  0  0  0  0  0  0  0
    3.7632   -1.5212   -0.4003 C   0  0  0  0  0  0  0  0  0  0  0  0
    6.3244   -2.5864   -0.1042 C   0  0  0  0  0  0  0  0  0  0  0  0
    3.9257   -2.8321    0.0481 C   0  0  0  0  0  0  0  0  0  0  0  0
    5.2064   -3.3646    0.1961 C   0  0  0  0  0  0  0  0  0  0  0  0
   -5.0019   -0.3924    1.9118 H   0  0  0  0  0  0  0  0  0  0  0  0
   -2.7256   -0.0845    0.0776 H   0  0  0  0  0  0  0  0  0  0  0  0
   -3.7366   -2.8280    0.5468 H   0  0  0  0  0  0  0  0  0  0  0  0
   -3.7176   -2.4588    2.2763 H   0  0  0  0  0  0  0  0  0  0  0  0
   -0.9028    0.7701   -0.2674 H   0  0  0  0  0  0  0  0  0  0  0  0
   -0.6864    1.3843    3.8952 H   0  0  0  0  0  0  0  0  0  0  0  0
    1.4662    2.3162    3.0218 H   0  0  0  0  0  0  0  0  0  0  0  0
   -3.9193   -1.6070   -1.4864 H   0  0  0  0  0  0  0  0  0  0  0  0
   -6.8034    0.5678    0.8684 H   0  0  0  0  0  0  0  0  0  0  0  0
   -8.1323    0.9967   -1.1630 H   0  0  0  0  0  0  0  0  0  0  0  0
   -7.3823    0.1380   -3.3517 H   0  0  0  0  0  0  0  0  0  0  0  0
    2.9364    4.5712   -1.7558 H   0  0  0  0  0  0  0  0  0  0  0  0
   -0.2803    4.0108   -0.5121 H   0  0  0  0  0  0  0  0  0  0  0  0
    0.6612    4.6500    0.8652 H   0  0  0  0  0  0  0  0  0  0  0  0
    0.9023    5.2937   -0.7582 H   0  0  0  0  0  0  0  0  0  0  0  0
   -5.3858   -3.8787    1.6932 H   0  0  0  0  0  0  0  0  0  0  0  0
    5.4712    0.9706   -1.6625 H   0  0  0  0  0  0  0  0  0  0  0  0
    2.7465   -1.1721   -0.5466 H   0  0  0  0  0  0  0  0  0  0  0  0
    7.3152   -3.0169    0.0167 H   0  0  0  0  0  0  0  0  0  0  0  0
    3.0557   -3.4423    0.2716 H   0  0  0  0  0  0  0  0  0  0  0  0
  1 23  1  0  0  0  0
  2 30  1  0  0  0  0
  3 34  1  0  0  0  0
  4 13  1  0  0  0  0
  4 50  1  0  0  0  0
  5 16  2  0  0  0  0
  6 11  1  0  0  0  0
  6 16  1  0  0  0  0
  6 36  1  0  0  0  0
  7 14  1  0  0  0  0
  7 19  1  0  0  0  0
  7 40  1  0  0  0  0
  8 18  2  0  0  0  0
  8 26  1  0  0  0  0
  9 26  1  0  0  0  0
  9 29  1  0  0  0  0
  9 51  1  0  0  0  0
 10 26  2  0  0  0  0
 10 27  1  0  0  0  0
 11 12  1  0  0  0  0
 11 13  1  0  0  0  0
 11 35  1  0  0  0  0
 12 20  2  0  0  0  0
 12 21  1  0  0  0  0
 13 37  1  0  0  0  0
 13 38  1  0  0  0  0
 14 16  1  0  0  0  0
 14 17  2  0  0  0  0
 15 17  1  0  0  0  0
 15 18  1  0  0  0  0
 15 19  2  0  0  0  0
 17 39  1  0  0  0  0
 18 22  1  0  0  0  0
 19 41  1  0  0  0  0
 20 23  1  0  0  0  0
 20 42  1  0  0  0  0
 21 24  2  0  0  0  0
 21 43  1  0  0  0  0
 22 27  2  0  0  0  0
 22 28  1  0  0  0  0
 23 25  2  0  0  0  0
 24 25  1  0  0  0  0
 24 44  1  0  0  0  0
 25 45  1  0  0  0  0
 27 46  1  0  0  0  0
 28 47  1  0  0  0  0
 28 48  1  0  0  0  0
 28 49  1  0  0  0  0
 29 30  2  0  0  0  0
 29 31  1  0  0  0  0
 30 32  1  0  0  0  0
 31 33  2  0  0  0  0
 31 52  1  0  0  0  0
 32 34  2  0  0  0  0
 32 53  1  0  0  0  0
 33 34  1  0  0  0  0
 33 54  1  0  0  0  0
M  END
> <PUBCHEM_COMPOUND_CID>
11634725

> <PUBCHEM_CONFORMER_RMSD>
1.2

> <PUBCHEM_CONFORMER_DIVERSEORDER>
3
174
25
120
52
115
141
60
57
211
212
63
230
54
9
112
172
37
186
109
150
84
201
151
78
136
14
65
29
157
97
229
232
219
77
101
171
207
72
220
76
68
198
100
162
178
62
19
221
32
87
158
177
234
228
164
123
193
53
132
195
166
56
144
6
36
199
126
189
140
191
98
23
89
35
137
152
175
194
85
196
108
42
202
205
210
173
122
118
223
64
73
165
83
200
2
17
168
103
27
188
222
44
90
185
39
69
224
135
145
134
208
129
40
106
227
20
231
133
18
28
204
111
192
7
104
181
94
159
30
206
213
180
48
33
11
107
139
70
47
130
116
233
26
41
82
74
216
214
105
119
5
215
113
24
156
16
91
50
187
71
127
58
176
61
138
95
15
182
75
154
125
4
163
31
153
67
131
51
148
149
190
142
66
128
184
155
197
203
21
161
1
86
183
59
117
88
96
124
143
13
46
226
170
179
218
12
55
102
160
38
114
217
10
49
147
80
209
167
110
8
45
22
121
99
225
93
169
81
43
92
79
146
34

> <PUBCHEM_MMFF94_PARTIAL_CHARGES>
48
1 -0.18
10 -0.62
11 0.44
12 -0.14
13 0.28
14 -0.24
15 -0.05
16 0.71
17 -0.15
18 0.36
19 -0.3
2 -0.18
20 -0.15
21 -0.15
22 -0.14
23 0.18
24 -0.15
25 -0.15
26 0.72
27 0.16
28 0.14
29 0.1
3 -0.19
30 0.18
31 -0.15
32 -0.15
33 -0.15
34 0.19
36 0.37
39 0.15
4 -0.68
40 0.27
41 0.15
42 0.15
43 0.15
44 0.15
45 0.15
46 0.15
5 -0.57
50 0.4
51 0.4
52 0.15
53 0.15
54 0.15
6 -0.73
7 0.03
8 -0.62
9 -0.6

> <PUBCHEM_EFFECTIVE_ROTOR_COUNT>
8

> <PUBCHEM_PHARMACOPHORE_FEATURES>
13
1 4 acceptor
1 4 donor
1 5 acceptor
1 6 donor
1 7 cation
1 7 donor
1 8 acceptor
1 9 donor
4 8 9 10 26 cation
5 7 14 15 17 19 rings
6 12 20 21 23 24 25 rings
6 29 30 31 32 33 34 rings
6 8 10 18 22 26 27 rings

> <PUBCHEM_HEAVY_ATOM_COUNT>
34

> <PUBCHEM_ATOM_DEF_STEREO_COUNT>
1

> <PUBCHEM_ATOM_UDEF_STEREO_COUNT>
0

> <PUBCHEM_BOND_DEF_STEREO_COUNT>
0

> <PUBCHEM_BOND_UDEF_STEREO_COUNT>
0

> <PUBCHEM_ISOTOPIC_ATOM_COUNT>
0

> <PUBCHEM_COMPONENT_COUNT>
1

> <PUBCHEM_CACTVS_TAUTO_COUNT>
15

> <PUBCHEM_CONFORMER_ID>
00B1882500000003

> <PUBCHEM_MMFF94_ENERGY>
89.7679

> <PUBCHEM_FEATURE_SELFOVERLAP>
65.973

> <PUBCHEM_SHAPE_FINGERPRINT>
10622 236 18270687467536138690
10670039 82 15140677012278136487
10721379 63 15358243880726061344
10974685 15 16951975182912470947
11135609 149 18334576854158493808
11135926 11 18118430521001938340
11410812 94 15574716881602383430
11497681 19 18059020463511086158
11720765 8 18411132554423756448
1200032 147 10482258962046700200
13627167 48 17023733517173205917
14068700 675 17632568336756702747
14747281 78 17313945213267269403
15183329 4 18113617872237928921
15320294 125 17489592251675983805
15419009 47 18196367014508501757
15721738 15 17313661525966274682
17852330 134 18187655707902830740
18470217 77 14476689559710709331
19304144 158 16374413845777407028
19304671 126 17822273718201965293
19315092 285 17917718998357026432
20156587 161 17702076145692254703
21033650 10 15068914112831318993
21458453 9 14404893726322152498
23559900 14 18408601491978426393
23569914 152 17899676991459628895
38570 142 10953746569134776720
3882209 13 17390487620582942906
4015057 19 18261408778882143840
4098825 35 18261119608231191779
42767 23 18130777967329117327
437795 70 17022905614201357941
4394409 98 17489582326117189677
46194498 28 17534632804461927421
4756261 7 11309759719604178229
508180 173 14635165511874498756
5223283 242 18260272928227575053
57035037 87 15213309664636849212
59682541 52 18334010601306436013
636783 102 17704073976190272094
6523845 18 16154006672628635241
6677587 24 17682663374856334268
96874 4 17989198227023256943

> <PUBCHEM_SHAPE_MULTIPOLES>
659.53
20.4
4.59
2.97
6.1
0.56
0.37
-17.29
11.28
-8.08
0.05
6.14
-0.14
-2.12

> <PUBCHEM_SHAPE_SELFOVERLAP>
1423.789

> <PUBCHEM_SHAPE_VOLUME>
365.2

> <PUBCHEM_COORDINATE_TYPE>
2
5
10

$$$$
