49830862
  -OEChem-10052120433D

 30 32  0     0  0  0  0  0  0999 V2000
   -1.7864    0.2718   -0.0064 N   0  0  0  0  0  0  0  0  0  0  0  0
   -3.7578    1.2685   -0.0618 N   0  0  0  0  0  0  0  0  0  0  0  0
   -2.7803    2.2361    0.0175 N   0  0  0  0  0  0  0  0  0  0  0  0
   -0.3862    2.1887    0.1350 N   0  0  0  0  0  0  0  0  0  0  0  0
   -0.8628   -0.7834    0.0023 C   0  0  0  0  0  0  0  0  0  0  0  0
    0.5915   -0.5670    0.0594 C   0  0  0  0  0  0  0  0  0  0  0  0
   -3.1626    0.0951   -0.0724 C   0  0  0  0  0  0  0  0  0  0  0  0
   -1.3460   -2.0431   -0.0566 C   0  0  0  0  0  0  0  0  0  0  0  0
   -1.6153    1.6294    0.0534 C   0  0  0  0  0  0  0  0  0  0  0  0
   -3.6540   -1.2365   -0.1339 C   0  0  0  0  0  0  0  0  0  0  0  0
    1.3223   -0.4238   -1.1201 C   0  0  0  0  0  0  0  0  0  0  0  0
    1.2394   -0.5055    1.2931 C   0  0  0  0  0  0  0  0  0  0  0  0
   -2.7830   -2.2623   -0.1251 C   0  0  0  0  0  0  0  0  0  0  0  0
    3.3489   -0.1582    0.1680 C   0  0  0  0  0  0  0  0  0  0  0  0
    2.7010   -0.2194   -1.0659 C   0  0  0  0  0  0  0  0  0  0  0  0
    2.6181   -0.3012    1.3474 C   0  0  0  0  0  0  0  0  0  0  0  0
    4.7864    0.0546    0.2245 C   0  0  0  0  0  0  0  0  0  0  0  0
    5.5267    0.7562   -0.6584 C   0  0  0  0  0  0  0  0  0  0  0  0
   -0.7035   -2.9175   -0.0588 H   0  0  0  0  0  0  0  0  0  0  0  0
   -4.7226   -1.4115   -0.1859 H   0  0  0  0  0  0  0  0  0  0  0  0
    0.8315   -0.4713   -2.0893 H   0  0  0  0  0  0  0  0  0  0  0  0
    0.6832   -0.6139    2.2211 H   0  0  0  0  0  0  0  0  0  0  0  0
   -3.1338   -3.2876   -0.1707 H   0  0  0  0  0  0  0  0  0  0  0  0
    3.2423   -0.1255   -2.0037 H   0  0  0  0  0  0  0  0  0  0  0  0
    3.1065   -0.2546    2.3178 H   0  0  0  0  0  0  0  0  0  0  0  0
   -0.2971    3.1998    0.1768 H   0  0  0  0  0  0  0  0  0  0  0  0
    0.4979    1.7057    0.1612 H   0  0  0  0  0  0  0  0  0  0  0  0
    5.2989   -0.3774    1.0815 H   0  0  0  0  0  0  0  0  0  0  0  0
    6.5962    0.8584   -0.5054 H   0  0  0  0  0  0  0  0  0  0  0  0
    5.0973    1.2453   -1.5255 H   0  0  0  0  0  0  0  0  0  0  0  0
  1  5  1  0  0  0  0
  1  7  1  0  0  0  0
  1  9  1  0  0  0  0
  2  3  1  0  0  0  0
  2  7  2  0  0  0  0
  3  9  2  0  0  0  0
  4  9  1  0  0  0  0
  4 26  1  0  0  0  0
  4 27  1  0  0  0  0
  5  6  1  0  0  0  0
  5  8  2  0  0  0  0
  6 11  2  0  0  0  0
  6 12  1  0  0  0  0
  7 10  1  0  0  0  0
  8 13  1  0  0  0  0
  8 19  1  0  0  0  0
 10 13  2  0  0  0  0
 10 20  1  0  0  0  0
 11 15  1  0  0  0  0
 11 21  1  0  0  0  0
 12 16  2  0  0  0  0
 12 22  1  0  0  0  0
 13 23  1  0  0  0  0
 14 15  2  0  0  0  0
 14 16  1  0  0  0  0
 14 17  1  0  0  0  0
 15 24  1  0  0  0  0
 16 25  1  0  0  0  0
 17 18  2  0  0  0  0
 17 28  1  0  0  0  0
 18 29  1  0  0  0  0
 18 30  1  0  0  0  0
M  END
> <PUBCHEM_COMPOUND_CID>
49830862

> <PUBCHEM_CONFORMER_RMSD>
0.6

> <PUBCHEM_CONFORMER_DIVERSEORDER>
1

> <PUBCHEM_MMFF94_PARTIAL_CHARGES>
30
1 0.33
10 -0.11
11 -0.15
12 -0.15
13 -0.15
14 0.03
15 -0.15
16 -0.15
17 -0.18
18 -0.3
19 0.15
2 -0.34
20 0.15
21 0.15
22 0.15
23 0.15
24 0.15
25 0.15
26 0.4
27 0.4
28 0.15
29 0.15
3 -0.34
30 0.15
4 -0.88
5 -0.06
6 0.03
7 0.14
8 -0.15
9 0.27

> <PUBCHEM_EFFECTIVE_ROTOR_COUNT>
2

> <PUBCHEM_PHARMACOPHORE_FEATURES>
6
1 18 hydrophobe
1 4 donor
4 1 3 4 9 cation
5 1 2 3 7 9 rings
6 1 5 7 8 10 13 rings
6 6 11 12 14 15 16 rings

> <PUBCHEM_HEAVY_ATOM_COUNT>
18

> <PUBCHEM_ATOM_DEF_STEREO_COUNT>
0

> <PUBCHEM_ATOM_UDEF_STEREO_COUNT>
0

> <PUBCHEM_BOND_DEF_STEREO_COUNT>
0

> <PUBCHEM_BOND_UDEF_STEREO_COUNT>
0

> <PUBCHEM_ISOTOPIC_ATOM_COUNT>
0

> <PUBCHEM_COMPONENT_COUNT>
1

> <PUBCHEM_CACTVS_TAUTO_COUNT>
2

> <PUBCHEM_CONFORMER_ID>
02F85BCE00000001

> <PUBCHEM_MMFF94_ENERGY>
55.0213

> <PUBCHEM_FEATURE_SELFOVERLAP>
30.557

> <PUBCHEM_SHAPE_FINGERPRINT>
10366900 7 17775276153874804513
10493431 412 18198635337229881161
10498660 4 18410853222534999460
10646746 165 18412542111534960368
11132069 177 18411140208139107405
11315181 36 17967813899195608934
12107183 9 17758106009119307482
12186901 62 18343866623574496118
12236239 1 17749385970639582546
12390115 104 18058182622148789841
13140716 1 18195252341772173907
13214271 11 18273212006220545477
13538477 17 18260258629553004491
13897977 58 18407762547020563604
13965767 371 17465108136937351612
14739800 52 18264753532916625792
14790565 3 18124886659574753025
15219456 202 17917715669097799926
15669948 3 18410001139715095539
15775835 57 18187083901652335312
16945 1 18411416220297355475
200 152 16081081610612002675
20300324 65 18409732893374429738
20510252 161 18343023259553878163
20645477 56 18412831261306973113
20871999 31 18413105078109029679
21267235 1 18336554918346986243
22094290 60 18341333374596192922
22802520 49 17915754080218991719
2297311 6 18342187699431217166
23175994 123 16773803622998387418
23402539 116 18412538834026709366
23493267 7 18271805696647351450
23557571 272 18272660068795301430
23559900 14 18200315408187340078
2748010 2 18123457535318489039
4214541 1 18410856538782248550
474 4 17241616190139191460
5104073 3 18410854335395597714
573450 72 18334283263305608898
77492 1 17748825206856143938
7808743 9 18339081471434806632
9709674 26 18342182141759847750

> <PUBCHEM_SHAPE_MULTIPOLES>
350.51
8.68
2.01
0.98
8.26
0.48
0.1
0.92
-0.92
-2.65
-0.02
0.82
-0.13
-0.28

> <PUBCHEM_SHAPE_SELFOVERLAP>
775.869

> <PUBCHEM_SHAPE_VOLUME>
185.6

> <PUBCHEM_COORDINATE_TYPE>
2
5
10

$$$$
