24894117
  -OEChem-10062122033D

 47 50  0     0  0  0  0  0  0999 V2000
   -0.8644   -4.0055   -0.1150 O   0  0  0  0  0  0  0  0  0  0  0  0
   -2.1335    1.6377   -2.3553 O   0  0  0  0  0  0  0  0  0  0  0  0
   -3.4999   -0.0146    1.9272 O   0  0  0  0  0  0  0  0  0  0  0  0
   -3.8703    1.7206   -0.1995 O   0  0  0  0  0  0  0  0  0  0  0  0
    1.4709   -3.9837   -0.2037 N   0  0  0  0  0  0  0  0  0  0  0  0
    3.6972    1.1673   -1.2678 N   0  0  0  0  0  0  0  0  0  0  0  0
    1.7096   -1.7321   -0.3293 C   0  0  0  0  0  0  0  0  0  0  0  0
    2.4053   -0.4416   -0.4499 C   0  0  0  0  0  0  0  0  0  0  0  0
    0.3810   -1.9486   -0.2586 C   0  0  0  0  0  0  0  0  0  0  0  0
    2.5070   -2.9979   -0.2682 C   0  0  0  0  0  0  0  0  0  0  0  0
    2.3665    0.6606    0.4496 C   0  0  0  0  0  0  0  0  0  0  0  0
   -0.7262   -0.9927   -0.2431 C   0  0  0  0  0  0  0  0  0  0  0  0
    0.2062   -3.4247   -0.1859 C   0  0  0  0  0  0  0  0  0  0  0  0
    3.1853    1.6563   -0.0871 C   0  0  0  0  0  0  0  0  0  0  0  0
    3.2314   -0.0998   -1.4956 C   0  0  0  0  0  0  0  0  0  0  0  0
    1.7113    0.9071    1.6724 C   0  0  0  0  0  0  0  0  0  0  0  0
   -1.5987   -0.9537    0.8444 C   0  0  0  0  0  0  0  0  0  0  0  0
   -0.9095   -0.1203   -1.3159 C   0  0  0  0  0  0  0  0  0  0  0  0
    3.3825    2.8915    0.5406 C   0  0  0  0  0  0  0  0  0  0  0  0
   -1.9654    0.7911   -1.3012 C   0  0  0  0  0  0  0  0  0  0  0  0
   -2.6546   -0.0424    0.8591 C   0  0  0  0  0  0  0  0  0  0  0  0
   -2.8380    0.8299   -0.2138 C   0  0  0  0  0  0  0  0  0  0  0  0
    1.8993    2.1380    2.3116 C   0  0  0  0  0  0  0  0  0  0  0  0
    2.7225    3.1135    1.7526 C   0  0  0  0  0  0  0  0  0  0  0  0
   -1.4665    2.8966   -2.2880 C   0  0  0  0  0  0  0  0  0  0  0  0
   -3.2422   -0.9395    2.9818 C   0  0  0  0  0  0  0  0  0  0  0  0
   -5.1068    1.2868   -0.7615 C   0  0  0  0  0  0  0  0  0  0  0  0
    3.1055   -3.1731   -1.1660 H   0  0  0  0  0  0  0  0  0  0  0  0
    3.1253   -3.0668    0.6309 H   0  0  0  0  0  0  0  0  0  0  0  0
    1.6425   -4.9833   -0.1599 H   0  0  0  0  0  0  0  0  0  0  0  0
    3.5316   -0.6401   -2.3830 H   0  0  0  0  0  0  0  0  0  0  0  0
    4.3255    1.6717   -1.8779 H   0  0  0  0  0  0  0  0  0  0  0  0
    1.0731    0.1572    2.1301 H   0  0  0  0  0  0  0  0  0  0  0  0
   -1.4065   -1.6503    1.6541 H   0  0  0  0  0  0  0  0  0  0  0  0
   -0.2404   -0.1458   -2.1733 H   0  0  0  0  0  0  0  0  0  0  0  0
    4.0232    3.6515    0.1062 H   0  0  0  0  0  0  0  0  0  0  0  0
    1.3979    2.3329    3.2559 H   0  0  0  0  0  0  0  0  0  0  0  0
    2.8545    4.0624    2.2663 H   0  0  0  0  0  0  0  0  0  0  0  0
   -1.6963    3.4554   -3.1992 H   0  0  0  0  0  0  0  0  0  0  0  0
   -0.3828    2.7537   -2.2283 H   0  0  0  0  0  0  0  0  0  0  0  0
   -1.8172    3.4727   -1.4260 H   0  0  0  0  0  0  0  0  0  0  0  0
   -4.0104   -0.7787    3.7454 H   0  0  0  0  0  0  0  0  0  0  0  0
   -2.2754   -0.7480    3.4597 H   0  0  0  0  0  0  0  0  0  0  0  0
   -3.3437   -1.9765    2.6437 H   0  0  0  0  0  0  0  0  0  0  0  0
   -5.8278    2.1042   -0.6746 H   0  0  0  0  0  0  0  0  0  0  0  0
   -5.4942    0.4195   -0.2175 H   0  0  0  0  0  0  0  0  0  0  0  0
   -4.9833    1.0409   -1.8209 H   0  0  0  0  0  0  0  0  0  0  0  0
  1 13  2  0  0  0  0
  2 20  1  0  0  0  0
  2 25  1  0  0  0  0
  3 21  1  0  0  0  0
  3 26  1  0  0  0  0
  4 22  1  0  0  0  0
  4 27  1  0  0  0  0
  5 10  1  0  0  0  0
  5 13  1  0  0  0  0
  5 30  1  0  0  0  0
  6 14  1  0  0  0  0
  6 15  1  0  0  0  0
  6 32  1  0  0  0  0
  7  8  1  0  0  0  0
  7  9  2  0  0  0  0
  7 10  1  0  0  0  0
  8 11  1  0  0  0  0
  8 15  2  0  0  0  0
  9 12  1  0  0  0  0
  9 13  1  0  0  0  0
 10 28  1  0  0  0  0
 10 29  1  0  0  0  0
 11 14  1  0  0  0  0
 11 16  2  0  0  0  0
 12 17  2  0  0  0  0
 12 18  1  0  0  0  0
 14 19  2  0  0  0  0
 15 31  1  0  0  0  0
 16 23  1  0  0  0  0
 16 33  1  0  0  0  0
 17 21  1  0  0  0  0
 17 34  1  0  0  0  0
 18 20  2  0  0  0  0
 18 35  1  0  0  0  0
 19 24  1  0  0  0  0
 19 36  1  0  0  0  0
 20 22  1  0  0  0  0
 21 22  2  0  0  0  0
 23 24  2  0  0  0  0
 23 37  1  0  0  0  0
 24 38  1  0  0  0  0
 25 39  1  0  0  0  0
 25 40  1  0  0  0  0
 25 41  1  0  0  0  0
 26 42  1  0  0  0  0
 26 43  1  0  0  0  0
 26 44  1  0  0  0  0
 27 45  1  0  0  0  0
 27 46  1  0  0  0  0
 27 47  1  0  0  0  0
M  END
> <PUBCHEM_COMPOUND_CID>
24894117

> <PUBCHEM_CONFORMER_RMSD>
0.8

> <PUBCHEM_CONFORMER_DIVERSEORDER>
2
17
14
6
12
7
19
20
18
1
5
13
9
3
16
10
15
8
11
4

> <PUBCHEM_MMFF94_PARTIAL_CHARGES>
35
1 -0.57
10 0.44
12 0.03
13 0.62
14 -0.15
15 -0.3
16 -0.15
17 -0.15
18 -0.15
19 -0.15
2 -0.36
20 0.08
21 0.08
22 0.08
23 -0.15
24 -0.15
25 0.28
26 0.28
27 0.28
3 -0.36
30 0.37
31 0.15
32 0.27
33 0.15
34 0.15
35 0.15
36 0.15
37 0.15
38 0.15
4 -0.36
5 -0.73
6 0.03
7 -0.09
8 -0.05
9 -0.01

> <PUBCHEM_EFFECTIVE_ROTOR_COUNT>
5.4

> <PUBCHEM_PHARMACOPHORE_FEATURES>
11
1 1 acceptor
1 2 acceptor
1 3 acceptor
1 4 acceptor
1 5 donor
1 6 cation
1 6 donor
5 5 7 9 10 13 rings
5 6 8 11 14 15 rings
6 11 14 16 19 23 24 rings
6 12 17 18 20 21 22 rings

> <PUBCHEM_HEAVY_ATOM_COUNT>
27

> <PUBCHEM_ATOM_DEF_STEREO_COUNT>
0

> <PUBCHEM_ATOM_UDEF_STEREO_COUNT>
0

> <PUBCHEM_BOND_DEF_STEREO_COUNT>
0

> <PUBCHEM_BOND_UDEF_STEREO_COUNT>
0

> <PUBCHEM_ISOTOPIC_ATOM_COUNT>
0

> <PUBCHEM_COMPONENT_COUNT>
1

> <PUBCHEM_CACTVS_TAUTO_COUNT>
5

> <PUBCHEM_CONFORMER_ID>
017BDAA500000002

> <PUBCHEM_MMFF94_ENERGY>
98.0871

> <PUBCHEM_FEATURE_SELFOVERLAP>
55.923

> <PUBCHEM_SHAPE_FINGERPRINT>
10064457 181 18054254242852870664
10165383 225 18194710226282923660
10366900 7 18044102254610027983
104564 63 17048516307067549518
11578080 2 18191612803702290689
11582403 64 16884920220877875885
12156800 1 14734405386818891404
12293681 4 16682305220367359277
12730499 353 18411985754451193187
12788726 201 17622135276678661959
128993 33 18338515364959555680
13134695 92 17695036943701834438
1361 2 18337378448904639573
13911987 19 18123208809304920238
13965767 371 18189033422063613692
14468879 13 18261387871524762865
14787075 74 17485638575176593871
14955137 171 18268143159307822378
151778 21 18409740572786887840
18219364 16 18341338876185438472
18981168 100 18270391810487680960
19930381 70 18341600517494156577
21033648 29 18340210794762789921
22122407 14 17843988961218204705
23536364 44 17764893311551058014
23559900 14 17749963128729902319
238 59 18268408188321214495
25222932 49 16371588010683566705
3493558 16 16901511894296748898
350125 39 18267582584397254570
3524813 1 18266761201734030874
469060 322 17610893874064893283
495365 180 18337662019445322205
5252454 2 18267318692915829292
57527306 92 16700362753154319666
6287921 2 17330852716620801232
6442390 28 18339360893532765527
7808743 9 18047475805545589964
81228 2 17688309405782634414

> <PUBCHEM_SHAPE_MULTIPOLES>
522.21
7.04
4.42
2.25
3.84
3.44
0.81
-4.99
0.48
-2.46
-0.21
1.26
-1.51
2.51

> <PUBCHEM_SHAPE_SELFOVERLAP>
1157.931

> <PUBCHEM_SHAPE_VOLUME>
283.3

> <PUBCHEM_COORDINATE_TYPE>
2
5
10

$$$$
