11624999
  -OEChem-10062121573D

 45 48  0     0  0  0  0  0  0999 V2000
   -8.6831    0.6602    1.2599 F   0  0  0  0  0  0  0  0  0  0  0  0
   -2.2591    0.0891    1.1378 O   0  0  0  0  0  0  0  0  0  0  0  0
    5.9540    2.2831   -0.3654 N   0  0  0  0  0  0  0  0  0  0  0  0
    7.0118    1.5541    0.0485 N   0  0  0  0  0  0  0  0  0  0  0  0
    7.1253   -0.7652    0.7492 N   0  0  0  0  0  0  0  0  0  0  0  0
   -1.3295   -0.5572   -0.9133 N   0  0  0  0  0  0  0  0  0  0  0  0
    3.6434    2.2303   -0.7871 N   0  0  0  0  0  0  0  0  0  0  0  0
   -3.6184   -0.3138   -0.7220 N   0  0  0  0  0  0  0  0  0  0  0  0
    4.1934   -0.7155    0.1790 C   0  0  0  0  0  0  0  0  0  0  0  0
    5.0804    0.3409    0.0378 C   0  0  0  0  0  0  0  0  0  0  0  0
    2.7855   -0.6743   -0.0998 C   0  0  0  0  0  0  0  0  0  0  0  0
    6.4841    0.3508    0.3010 C   0  0  0  0  0  0  0  0  0  0  0  0
    4.7677    1.6016   -0.3906 C   0  0  0  0  0  0  0  0  0  0  0  0
    4.8705   -1.8497    0.6393 C   0  0  0  0  0  0  0  0  0  0  0  0
    1.8748   -0.3201    0.9034 C   0  0  0  0  0  0  0  0  0  0  0  0
    2.3064   -0.9890   -1.3776 C   0  0  0  0  0  0  0  0  0  0  0  0
    0.0388   -0.5960   -0.6427 C   0  0  0  0  0  0  0  0  0  0  0  0
    0.5068   -0.2811    0.6330 C   0  0  0  0  0  0  0  0  0  0  0  0
    0.9385   -0.9499   -1.6480 C   0  0  0  0  0  0  0  0  0  0  0  0
    6.2629   -1.8217    0.8949 C   0  0  0  0  0  0  0  0  0  0  0  0
   -4.9164   -0.0656   -0.2167 C   0  0  0  0  0  0  0  0  0  0  0  0
   -7.2889    0.0375   -0.5577 C   0  0  0  0  0  0  0  0  0  0  0  0
   -6.0093   -0.2079   -1.0560 C   0  0  0  0  0  0  0  0  0  0  0  0
   -2.3941   -0.2265   -0.0401 C   0  0  0  0  0  0  0  0  0  0  0  0
   -5.0670    0.3150    1.1065 C   0  0  0  0  0  0  0  0  0  0  0  0
   -7.4575    0.4214    0.7726 C   0  0  0  0  0  0  0  0  0  0  0  0
   -6.3466    0.5602    1.6047 C   0  0  0  0  0  0  0  0  0  0  0  0
   -8.4743   -0.1109   -1.4505 C   0  0  0  0  0  0  0  0  0  0  0  0
    2.2228   -0.0711    1.9037 H   0  0  0  0  0  0  0  0  0  0  0  0
    2.9932   -1.2667   -2.1742 H   0  0  0  0  0  0  0  0  0  0  0  0
    4.3305   -2.7792    0.8090 H   0  0  0  0  0  0  0  0  0  0  0  0
   -0.1238    0.0022    1.4634 H   0  0  0  0  0  0  0  0  0  0  0  0
    0.5878   -1.1975   -2.6467 H   0  0  0  0  0  0  0  0  0  0  0  0
    6.1130    3.2501   -0.6184 H   0  0  0  0  0  0  0  0  0  0  0  0
    6.7468   -2.7291    1.2522 H   0  0  0  0  0  0  0  0  0  0  0  0
   -1.5934   -0.7993   -1.8652 H   0  0  0  0  0  0  0  0  0  0  0  0
   -5.8732   -0.5058   -2.0925 H   0  0  0  0  0  0  0  0  0  0  0  0
    2.7371    1.7790   -0.8269 H   0  0  0  0  0  0  0  0  0  0  0  0
    3.6462    3.2051   -1.0723 H   0  0  0  0  0  0  0  0  0  0  0  0
   -3.5760   -0.5889   -1.7001 H   0  0  0  0  0  0  0  0  0  0  0  0
   -4.2620    0.4448    1.8139 H   0  0  0  0  0  0  0  0  0  0  0  0
   -6.4799    0.8595    2.6403 H   0  0  0  0  0  0  0  0  0  0  0  0
   -8.2193   -0.6262   -2.3827 H   0  0  0  0  0  0  0  0  0  0  0  0
   -9.2548   -0.7005   -0.9580 H   0  0  0  0  0  0  0  0  0  0  0  0
   -8.8790    0.8738   -1.7052 H   0  0  0  0  0  0  0  0  0  0  0  0
  1 26  1  0  0  0  0
  2 24  2  0  0  0  0
  3  4  1  0  0  0  0
  3 13  1  0  0  0  0
  3 34  1  0  0  0  0
  4 12  2  0  0  0  0
  5 12  1  0  0  0  0
  5 20  2  0  0  0  0
  6 17  1  0  0  0  0
  6 24  1  0  0  0  0
  6 36  1  0  0  0  0
  7 13  1  0  0  0  0
  7 38  1  0  0  0  0
  7 39  1  0  0  0  0
  8 21  1  0  0  0  0
  8 24  1  0  0  0  0
  8 40  1  0  0  0  0
  9 10  1  0  0  0  0
  9 11  1  0  0  0  0
  9 14  2  0  0  0  0
 10 12  1  0  0  0  0
 10 13  2  0  0  0  0
 11 15  2  0  0  0  0
 11 16  1  0  0  0  0
 14 20  1  0  0  0  0
 14 31  1  0  0  0  0
 15 18  1  0  0  0  0
 15 29  1  0  0  0  0
 16 19  2  0  0  0  0
 16 30  1  0  0  0  0
 17 18  2  0  0  0  0
 17 19  1  0  0  0  0
 18 32  1  0  0  0  0
 19 33  1  0  0  0  0
 20 35  1  0  0  0  0
 21 23  2  0  0  0  0
 21 25  1  0  0  0  0
 22 23  1  0  0  0  0
 22 26  2  0  0  0  0
 22 28  1  0  0  0  0
 23 37  1  0  0  0  0
 25 27  2  0  0  0  0
 25 41  1  0  0  0  0
 26 27  1  0  0  0  0
 27 42  1  0  0  0  0
 28 43  1  0  0  0  0
 28 44  1  0  0  0  0
 28 45  1  0  0  0  0
M  END
> <PUBCHEM_COMPOUND_CID>
11624999

> <PUBCHEM_CONFORMER_RMSD>
0.8

> <PUBCHEM_CONFORMER_DIVERSEORDER>
1
13
15
12
19
7
14
18
11
10
16
3
20
4
17
9
8
5
2
6

> <PUBCHEM_MMFF94_PARTIAL_CHARGES>
39
1 -0.19
12 0.54
13 -0.07
14 -0.15
15 -0.15
16 -0.15
17 0.12
18 -0.15
19 -0.15
2 -0.57
20 0.16
21 0.12
22 -0.14
23 -0.15
24 0.69
25 -0.15
26 0.19
27 -0.15
28 0.14
29 0.15
3 0.3
30 0.15
31 0.15
32 0.15
33 0.15
34 0.27
35 0.15
36 0.37
37 0.15
38 0.4
39 0.4
4 -0.71
40 0.37
41 0.15
42 0.15
5 -0.57
6 -0.55
7 -0.88
8 -0.55

> <PUBCHEM_EFFECTIVE_ROTOR_COUNT>
5

> <PUBCHEM_PHARMACOPHORE_FEATURES>
12
1 2 acceptor
1 3 donor
1 5 acceptor
1 6 donor
1 7 cation
1 7 donor
1 8 donor
3 4 5 12 cation
5 3 4 10 12 13 rings
6 11 15 16 17 18 19 rings
6 21 22 23 25 26 27 rings
6 5 9 10 12 14 20 rings

> <PUBCHEM_HEAVY_ATOM_COUNT>
28

> <PUBCHEM_ATOM_DEF_STEREO_COUNT>
0

> <PUBCHEM_ATOM_UDEF_STEREO_COUNT>
0

> <PUBCHEM_BOND_DEF_STEREO_COUNT>
0

> <PUBCHEM_BOND_UDEF_STEREO_COUNT>
0

> <PUBCHEM_ISOTOPIC_ATOM_COUNT>
0

> <PUBCHEM_COMPONENT_COUNT>
1

> <PUBCHEM_CACTVS_TAUTO_COUNT>
47

> <PUBCHEM_CONFORMER_ID>
00B1622700000001

> <PUBCHEM_MMFF94_ENERGY>
89.6093

> <PUBCHEM_FEATURE_SELFOVERLAP>
61.137

> <PUBCHEM_SHAPE_FINGERPRINT>
10 15 16371010740723461764
10162869 55 18339349855329574031
10299344 5 18131068234277961819
10411042 1 18046338627914614002
11315181 36 18272087215612854487
11524674 6 16660368086983520427
11646440 116 16732706042926259101
11719270 70 17203327784539345558
12236239 1 18201998854899357830
125118 31 18340771451288012289
12516196 113 16153427238099543023
13167372 99 18340770355944595408
13533116 47 18041559148745233394
14170010 4 17748827419280986958
14251764 18 17988922271580141827
14294032 229 17489586731978843733
14849402 71 18340488979747319057
15131766 46 18119806069840485364
15183329 4 17203895167035600897
15301273 46 16588020199556646119
15328684 2 17702101374878322843
15348495 7 17386296505057290161
15419008 47 17022895753283832181
15419008 91 16226317205652978901
15461852 350 16988840610297043359
15510794 2 17749108894875161915
1577012 14 18202562899346610423
15840311 113 17989200470214412840
15849732 13 17167581583652237391
16120349 18 18408598180047080853
16989713 51 16127797700330776471
20157964 124 18408604756243533922
21033648 29 17459188654839584488
21150785 3 15123792898752697341
21267235 1 14996290193227568679
21792934 111 17458063760081657341
22224240 67 17894910737239260627
23081809 10 18060132146142307279
23576562 1 17130135636019175533
255183 451 17843413882535861854
3383291 50 15719400546927510217
397830 11 17459482211031453161
4073 2 17822295742350932802
4325135 7 18202001027678094981
4340502 62 18113056030534211306
445580 37 16056890117623785697
45377200 153 11743539017732014029
5758199 1 17346319285038300839
59755656 215 14692576506790935132
68570916 9 18189059862029877231

> <PUBCHEM_SHAPE_MULTIPOLES>
533.2
26.75
1.52
1.35
32.1
0.52
0.03
4.98
-3.31
-3.85
0.16
1.54
-0.12
-2.03

> <PUBCHEM_SHAPE_SELFOVERLAP>
1187.638

> <PUBCHEM_SHAPE_VOLUME>
284.8

> <PUBCHEM_COORDINATE_TYPE>
2
5
10

$$$$
