49830803
  -OEChem-10052115183D

 46 50  0     0  0  0  0  0  0999 V2000
    1.8840   -2.4068    1.8941 F   0  0  0  0  0  0  0  0  0  0  0  0
   -0.5151   -5.1267   -1.1404 F   0  0  0  0  0  0  0  0  0  0  0  0
   -3.5383   -1.7522    0.1425 O   0  0  0  0  0  0  0  0  0  0  0  0
    4.8548    1.6103    0.8461 O   0  0  0  0  0  0  0  0  0  0  0  0
   -1.8759    1.3867   -0.2728 N   0  0  0  0  0  0  0  0  0  0  0  0
    2.7275    1.6603    0.2044 N   0  0  0  0  0  0  0  0  0  0  0  0
   -0.6842    0.9202    0.1765 N   0  0  0  0  0  0  0  0  0  0  0  0
   -4.0290    1.7585   -0.4452 N   0  0  0  0  0  0  0  0  0  0  0  0
   -3.3932    2.4273   -1.4717 N   0  0  0  0  0  0  0  0  0  0  0  0
    3.5691   -0.4008    0.3534 N   0  0  0  0  0  0  0  0  0  0  0  0
   -3.3255    0.2673    1.5091 C   0  0  0  0  0  0  0  0  0  0  0  0
   -3.1076    1.1435    0.2612 C   0  0  0  0  0  0  0  0  0  0  0  0
   -2.8376   -1.1798    1.2415 C   0  0  0  0  0  0  0  0  0  0  0  0
   -4.8351    0.2265    1.8407 C   0  0  0  0  0  0  0  0  0  0  0  0
   -2.6016    0.7943    2.7714 C   0  0  0  0  0  0  0  0  0  0  0  0
   -2.1018    2.1985   -1.3600 C   0  0  0  0  0  0  0  0  0  0  0  0
    1.6975    0.8572   -0.1487 C   0  0  0  0  0  0  0  0  0  0  0  0
    0.3351    1.3077   -0.5367 C   0  0  0  0  0  0  0  0  0  0  0  0
    2.2398   -0.4192   -0.0501 C   0  0  0  0  0  0  0  0  0  0  0  0
   -0.9792    2.6155   -2.1021 C   0  0  0  0  0  0  0  0  0  0  0  0
    0.2410    2.2052   -1.7332 C   0  0  0  0  0  0  0  0  0  0  0  0
    3.7970    0.8747    0.4879 C   0  0  0  0  0  0  0  0  0  0  0  0
    1.5307   -1.6333   -0.3272 C   0  0  0  0  0  0  0  0  0  0  0  0
    3.0773    2.9730    0.3779 C   0  0  0  0  0  0  0  0  0  0  0  0
    4.3624    2.9400    0.7655 C   0  0  0  0  0  0  0  0  0  0  0  0
    1.3750   -2.5981    0.6682 C   0  0  0  0  0  0  0  0  0  0  0  0
    0.9952   -1.8486   -1.5971 C   0  0  0  0  0  0  0  0  0  0  0  0
    0.6841   -3.7783    0.3934 C   0  0  0  0  0  0  0  0  0  0  0  0
    0.3046   -3.0289   -1.8719 C   0  0  0  0  0  0  0  0  0  0  0  0
    0.1489   -3.9939   -0.8765 C   0  0  0  0  0  0  0  0  0  0  0  0
   -1.7670   -1.2243    1.0224 H   0  0  0  0  0  0  0  0  0  0  0  0
   -3.0202   -1.8132    2.1176 H   0  0  0  0  0  0  0  0  0  0  0  0
   -5.2118    1.2262    2.0885 H   0  0  0  0  0  0  0  0  0  0  0  0
   -5.4291   -0.1435    0.9969 H   0  0  0  0  0  0  0  0  0  0  0  0
   -5.0369   -0.4258    2.6982 H   0  0  0  0  0  0  0  0  0  0  0  0
   -2.8860    1.8324    2.9788 H   0  0  0  0  0  0  0  0  0  0  0  0
   -1.5132    0.7712    2.6577 H   0  0  0  0  0  0  0  0  0  0  0  0
   -2.8502    0.1932    3.6535 H   0  0  0  0  0  0  0  0  0  0  0  0
   -1.1122    3.2615   -2.9623 H   0  0  0  0  0  0  0  0  0  0  0  0
    1.1357    2.4918   -2.2713 H   0  0  0  0  0  0  0  0  0  0  0  0
   -3.1932   -2.6535    0.0229 H   0  0  0  0  0  0  0  0  0  0  0  0
    2.4120    3.8040    0.2201 H   0  0  0  0  0  0  0  0  0  0  0  0
    5.0572    3.7183    1.0165 H   0  0  0  0  0  0  0  0  0  0  0  0
    1.1105   -1.1131   -2.3899 H   0  0  0  0  0  0  0  0  0  0  0  0
    0.5624   -4.5293    1.1683 H   0  0  0  0  0  0  0  0  0  0  0  0
   -0.1116   -3.1975   -2.8608 H   0  0  0  0  0  0  0  0  0  0  0  0
  1 26  1  0  0  0  0
  2 30  1  0  0  0  0
  3 13  1  0  0  0  0
  3 41  1  0  0  0  0
  4 22  1  0  0  0  0
  4 25  1  0  0  0  0
  5  7  1  0  0  0  0
  5 12  1  0  0  0  0
  5 16  1  0  0  0  0
  6 17  1  0  0  0  0
  6 22  1  0  0  0  0
  6 24  1  0  0  0  0
  7 18  2  0  0  0  0
  8  9  1  0  0  0  0
  8 12  2  0  0  0  0
  9 16  2  0  0  0  0
 10 19  1  0  0  0  0
 10 22  2  0  0  0  0
 11 12  1  0  0  0  0
 11 13  1  0  0  0  0
 11 14  1  0  0  0  0
 11 15  1  0  0  0  0
 13 31  1  0  0  0  0
 13 32  1  0  0  0  0
 14 33  1  0  0  0  0
 14 34  1  0  0  0  0
 14 35  1  0  0  0  0
 15 36  1  0  0  0  0
 15 37  1  0  0  0  0
 15 38  1  0  0  0  0
 16 20  1  0  0  0  0
 17 18  1  0  0  0  0
 17 19  2  0  0  0  0
 18 21  1  0  0  0  0
 19 23  1  0  0  0  0
 20 21  2  0  0  0  0
 20 39  1  0  0  0  0
 21 40  1  0  0  0  0
 23 26  2  0  0  0  0
 23 27  1  0  0  0  0
 24 25  2  0  0  0  0
 24 42  1  0  0  0  0
 25 43  1  0  0  0  0
 26 28  1  0  0  0  0
 27 29  2  0  0  0  0
 27 44  1  0  0  0  0
 28 30  2  0  0  0  0
 28 45  1  0  0  0  0
 29 30  1  0  0  0  0
 29 46  1  0  0  0  0
M  END
> <PUBCHEM_COMPOUND_CID>
49830803

> <PUBCHEM_CONFORMER_RMSD>
0.8

> <PUBCHEM_CONFORMER_DIVERSEORDER>
1
52
24
49
65
44
60
32
64
62
29
4
41
25
9
46
53
50
12
18
5
10
26
20
61
45
47
40
28
17
34
37
7
38
42
51
48
56
6
30
55
14
27
11
21
13
68
3
39
8
16
15
67
66
19
22
2
43
57
35
59
23
63
33
58
36
31
54

> <PUBCHEM_MMFF94_PARTIAL_CHARGES>
36
1 -0.19
10 -0.57
11 0.18
12 0.01
13 0.28
16 0.14
17 -0.24
18 0.52
19 0.17
2 -0.19
20 -0.11
21 -0.14
22 0.25
23 0.05
24 -0.18
25 -0.07
26 0.19
27 -0.15
28 -0.15
29 -0.15
3 -0.68
30 0.19
39 0.15
4 -0.14
40 0.15
41 0.4
42 0.15
43 0.15
44 0.15
45 0.15
46 0.15
5 0.51
6 0.33
7 -0.65
8 -0.34
9 -0.34

> <PUBCHEM_EFFECTIVE_ROTOR_COUNT>
4

> <PUBCHEM_PHARMACOPHORE_FEATURES>
12
1 3 acceptor
1 3 donor
1 7 acceptor
3 11 14 15 hydrophobe
3 5 8 12 cation
3 5 9 16 cation
3 6 10 22 cation
5 4 6 22 24 25 rings
5 5 8 9 12 16 rings
5 6 10 17 19 22 rings
6 23 26 27 28 29 30 rings
6 5 7 16 18 20 21 rings

> <PUBCHEM_HEAVY_ATOM_COUNT>
30

> <PUBCHEM_ATOM_DEF_STEREO_COUNT>
0

> <PUBCHEM_ATOM_UDEF_STEREO_COUNT>
0

> <PUBCHEM_BOND_DEF_STEREO_COUNT>
0

> <PUBCHEM_BOND_UDEF_STEREO_COUNT>
0

> <PUBCHEM_ISOTOPIC_ATOM_COUNT>
0

> <PUBCHEM_COMPONENT_COUNT>
1

> <PUBCHEM_CACTVS_TAUTO_COUNT>
1

> <PUBCHEM_CONFORMER_ID>
02F85B9300000001

> <PUBCHEM_MMFF94_ENERGY>
96.2899

> <PUBCHEM_FEATURE_SELFOVERLAP>
63.889

> <PUBCHEM_SHAPE_FINGERPRINT>
10064457 181 18200041779546147512
11007060 377 18269256024231313184
11370993 70 18271816743186984633
11421498 54 17131276748741801160
11488393 25 18124888850250218814
11582403 64 16595842065374430828
12156800 1 17114602865618613299
12363563 72 17023764414788300233
12553582 1 17405156123118822062
12788726 201 17543604875574585776
13140716 1 18410004408364295988
140371 6 17968940773454607973
14150022 121 17263551610317403256
14223421 5 18189617137767023869
14725015 67 17246951832290012081
14840074 17 18117285963134416525
14866123 147 18265880515086472898
14955137 171 18050556358328218882
15324884 4 18260260829025192516
15338160 23 17478884344020085880
15635459 17 18120100489689648727
17138139 8 17342056585688736703
17974551 9 16808130186870513219
17980427 23 16950568813124864316
1979834 28 18192460591522951433
21033648 29 18341597257556600160
21202864 24 18196092376960905352
21285901 2 17822854148645602061
21756936 100 17202768232332413896
22113638 7 17760652864401477719
22182313 1 17896611587818313461
23559900 14 18048586032557197117
238 59 18122318234486033405
35225 105 17772182278362047118
469060 322 17897990572060406348
59755656 520 18059020587579814688
6287921 2 18126033583245548399
6438718 38 17697888312449855406
7226269 152 14519479747328859469
7399639 24 18408042905501352409
81228 2 17688853651364211880
9709674 26 17973157336216524845
9925002 15 17687189003022266612

> <PUBCHEM_SHAPE_MULTIPOLES>
561.21
7.51
5.31
2
1.03
6.15
0.12
-5.98
4.2
-1.92
-2.15
1.48
-0.28
1.31

> <PUBCHEM_SHAPE_SELFOVERLAP>
1261.469

> <PUBCHEM_SHAPE_VOLUME>
300.7

> <PUBCHEM_COORDINATE_TYPE>
2
5
10

$$$$
