452239
  -OEChem-10062122043D

 52 54  0     1  0  0  0  0  0999 V2000
    2.2815    1.0956   -1.3996 O   0  0  0  0  0  0  0  0  0  0  0  0
   -1.3557    0.4696    0.8222 O   0  0  0  0  0  0  0  0  0  0  0  0
   -1.3277    1.4343   -1.7417 O   0  0  0  0  0  0  0  0  0  0  0  0
    0.6701    5.6147   -0.1994 O   0  0  0  0  0  0  0  0  0  0  0  0
    1.0397    4.8161    1.9115 O   0  0  0  0  0  0  0  0  0  0  0  0
    1.9983   -0.7140   -2.7940 O   0  0  0  0  0  0  0  0  0  0  0  0
   -0.9300   -1.6878    0.1415 O   0  0  0  0  0  0  0  0  0  0  0  0
    5.9918   -0.2351    1.5298 O   0  0  0  0  0  0  0  0  0  0  0  0
    3.7064   -4.3060    0.4600 O   0  0  0  0  0  0  0  0  0  0  0  0
   -6.1220    0.4144    2.0115 O   0  0  0  0  0  0  0  0  0  0  0  0
   -5.6664   -2.7872   -1.5216 O   0  0  0  0  0  0  0  0  0  0  0  0
    5.6389   -2.9557    1.9137 O   0  0  0  0  0  0  0  0  0  0  0  0
   -7.2786   -1.3194    0.1867 O   0  0  0  0  0  0  0  0  0  0  0  0
    1.0557    1.7051   -1.7986 C   0  0  1  0  0  0  0  0  0  0  0  0
   -0.1108    0.9035   -1.2159 C   0  0  1  0  0  0  0  0  0  0  0  0
   -0.1179    0.9653    0.3219 C   0  0  1  0  0  0  0  0  0  0  0  0
    1.0259    3.1732   -1.3367 C   0  0  0  0  0  0  0  0  0  0  0  0
    0.6192    3.3344    0.1010 C   0  0  0  0  0  0  0  0  0  0  0  0
    0.1117    2.3500    0.8577 C   0  0  0  0  0  0  0  0  0  0  0  0
    0.8033    4.6454    0.7296 C   0  0  0  0  0  0  0  0  0  0  0  0
    2.4562   -0.1960   -1.7874 C   0  0  0  0  0  0  0  0  0  0  0  0
   -1.7017   -0.7833    0.4202 C   0  0  0  0  0  0  0  0  0  0  0  0
    3.2979   -0.9267   -0.8064 C   0  0  0  0  0  0  0  0  0  0  0  0
   -3.1784   -0.9244    0.3573 C   0  0  0  0  0  0  0  0  0  0  0  0
    3.1006   -2.2817   -0.6366 C   0  0  0  0  0  0  0  0  0  0  0  0
    4.2527   -0.2280   -0.0964 C   0  0  0  0  0  0  0  0  0  0  0  0
   -3.7268   -1.7961   -0.5609 C   0  0  0  0  0  0  0  0  0  0  0  0
   -3.9564   -0.1805    1.2206 C   0  0  0  0  0  0  0  0  0  0  0  0
    5.0450   -0.9143    0.8238 C   0  0  0  0  0  0  0  0  0  0  0  0
    3.8929   -2.9681    0.2838 C   0  0  0  0  0  0  0  0  0  0  0  0
   -5.3436   -0.3142    1.1632 C   0  0  0  0  0  0  0  0  0  0  0  0
   -5.1141   -1.9296   -0.6184 C   0  0  0  0  0  0  0  0  0  0  0  0
    4.8651   -2.2844    1.0140 C   0  0  0  0  0  0  0  0  0  0  0  0
   -5.9225   -1.1887    0.2437 C   0  0  0  0  0  0  0  0  0  0  0  0
    1.0094    1.7105   -2.8958 H   0  0  0  0  0  0  0  0  0  0  0  0
   -0.0748   -0.1346   -1.5538 H   0  0  0  0  0  0  0  0  0  0  0  0
    0.6869    0.3380    0.7276 H   0  0  0  0  0  0  0  0  0  0  0  0
    2.0183    3.6153   -1.4887 H   0  0  0  0  0  0  0  0  0  0  0  0
    0.3110    3.7227   -1.9620 H   0  0  0  0  0  0  0  0  0  0  0  0
   -0.1389    2.5192    1.9019 H   0  0  0  0  0  0  0  0  0  0  0  0
   -2.0690    0.9316   -1.3687 H   0  0  0  0  0  0  0  0  0  0  0  0
    0.7870    6.5105    0.1829 H   0  0  0  0  0  0  0  0  0  0  0  0
    2.3397   -2.8116   -1.2031 H   0  0  0  0  0  0  0  0  0  0  0  0
    4.4113    0.8364   -0.2458 H   0  0  0  0  0  0  0  0  0  0  0  0
   -3.0956   -2.3696   -1.2342 H   0  0  0  0  0  0  0  0  0  0  0  0
   -3.5164    0.4934    1.9504 H   0  0  0  0  0  0  0  0  0  0  0  0
    5.9723    0.7015    1.2684 H   0  0  0  0  0  0  0  0  0  0  0  0
    2.9927   -4.6072   -0.1283 H   0  0  0  0  0  0  0  0  0  0  0  0
   -5.5504    0.9640    2.5745 H   0  0  0  0  0  0  0  0  0  0  0  0
   -4.9556   -3.2122   -2.0316 H   0  0  0  0  0  0  0  0  0  0  0  0
    6.2536   -2.3222    2.3230 H   0  0  0  0  0  0  0  0  0  0  0  0
   -7.4958   -1.9662   -0.5069 H   0  0  0  0  0  0  0  0  0  0  0  0
  1 14  1  0  0  0  0
  1 21  1  0  0  0  0
  2 16  1  0  0  0  0
  2 22  1  0  0  0  0
  3 15  1  0  0  0  0
  3 41  1  0  0  0  0
  4 20  1  0  0  0  0
  4 42  1  0  0  0  0
  5 20  2  0  0  0  0
  6 21  2  0  0  0  0
  7 22  2  0  0  0  0
  8 29  1  0  0  0  0
  8 47  1  0  0  0  0
  9 30  1  0  0  0  0
  9 48  1  0  0  0  0
 10 31  1  0  0  0  0
 10 49  1  0  0  0  0
 11 32  1  0  0  0  0
 11 50  1  0  0  0  0
 12 33  1  0  0  0  0
 12 51  1  0  0  0  0
 13 34  1  0  0  0  0
 13 52  1  0  0  0  0
 14 15  1  0  0  0  0
 14 17  1  0  0  0  0
 14 35  1  0  0  0  0
 15 16  1  0  0  0  0
 15 36  1  0  0  0  0
 16 19  1  0  0  0  0
 16 37  1  0  0  0  0
 17 18  1  0  0  0  0
 17 38  1  0  0  0  0
 17 39  1  0  0  0  0
 18 19  2  0  0  0  0
 18 20  1  0  0  0  0
 19 40  1  0  0  0  0
 21 23  1  0  0  0  0
 22 24  1  0  0  0  0
 23 25  2  0  0  0  0
 23 26  1  0  0  0  0
 24 27  2  0  0  0  0
 24 28  1  0  0  0  0
 25 30  1  0  0  0  0
 25 43  1  0  0  0  0
 26 29  2  0  0  0  0
 26 44  1  0  0  0  0
 27 32  1  0  0  0  0
 27 45  1  0  0  0  0
 28 31  2  0  0  0  0
 28 46  1  0  0  0  0
 29 33  1  0  0  0  0
 30 33  2  0  0  0  0
 31 34  1  0  0  0  0
 32 34  2  0  0  0  0
M  END
> <PUBCHEM_COMPOUND_CID>
452239

> <PUBCHEM_CONFORMER_RMSD>
1

> <PUBCHEM_CONFORMER_DIVERSEORDER>
1
87
40
17
21
95
49
84
42
96
90
78
60
75
28
61
10
38
43
82
67
89
91
81
47
14
57
70
92
93
37
29
4
31
97
53
65
44
36
52
33
35
16
54
66
22
6
41
64
46
86
76
85
9
94
19
79
56
51
72
20
83
77
15
80
59
2
71
8
30
25
50
34
27
69
58
7
12
32
68
26
11
74
5
23
62
3
73
13
48
88
18
39
24
63
55
45

> <PUBCHEM_MMFF94_PARTIAL_CHARGES>
47
1 -0.43
10 -0.53
11 -0.53
12 -0.53
13 -0.53
14 0.28
15 0.28
16 0.42
17 0.14
18 -0.12
19 -0.29
2 -0.43
20 0.71
21 0.63
22 0.63
23 0.09
24 0.09
25 -0.15
26 -0.15
27 -0.15
28 -0.15
29 0.08
3 -0.68
30 0.08
31 0.08
32 0.08
33 0.08
34 0.08
4 -0.65
40 0.15
41 0.4
42 0.5
43 0.15
44 0.15
45 0.15
46 0.15
47 0.45
48 0.45
49 0.45
5 -0.57
50 0.45
51 0.45
52 0.45
6 -0.57
7 -0.57
8 -0.53
9 -0.53

> <PUBCHEM_EFFECTIVE_ROTOR_COUNT>
7.8

> <PUBCHEM_PHARMACOPHORE_FEATURES>
16
1 10 donor
1 11 donor
1 12 donor
1 13 donor
1 3 acceptor
1 3 donor
1 4 acceptor
1 5 acceptor
1 6 acceptor
1 7 acceptor
1 8 donor
1 9 donor
3 4 5 20 anion
6 14 15 16 17 18 19 rings
6 23 25 26 29 30 33 rings
6 24 27 28 31 32 34 rings

> <PUBCHEM_HEAVY_ATOM_COUNT>
34

> <PUBCHEM_ATOM_DEF_STEREO_COUNT>
3

> <PUBCHEM_ATOM_UDEF_STEREO_COUNT>
0

> <PUBCHEM_BOND_DEF_STEREO_COUNT>
0

> <PUBCHEM_BOND_UDEF_STEREO_COUNT>
0

> <PUBCHEM_ISOTOPIC_ATOM_COUNT>
0

> <PUBCHEM_COMPONENT_COUNT>
1

> <PUBCHEM_CACTVS_TAUTO_COUNT>
196

> <PUBCHEM_CONFORMER_ID>
0006E68F00000001

> <PUBCHEM_MMFF94_ENERGY>
95.3817

> <PUBCHEM_FEATURE_SELFOVERLAP>
81.275

> <PUBCHEM_SHAPE_FINGERPRINT>
10074138 170 17839462180924590169
10258939 38 16805596019381333180
11135609 149 18192125266109114213
11456790 92 18114755858794529857
11552529 35 18050002191508499434
12107183 9 18271257032425173913
12160290 23 17686654279631052004
12166972 35 17749392546588265710
12422481 6 18119824521035117327
12788726 201 18193864568639194668
13004483 165 18337953394316342842
13008946 113 18336269045277272756
13692114 37 17402903219857790121
13782708 43 16878810304094348659
13835254 42 18339928091514661400
14394314 77 18339365171420153201
14429115 67 18336551508359523510
15183329 4 15574713564969972839
17980427 23 17989487437705117719
17980427 26 17981599678399696709
1813 80 18411708668461664463
18681886 176 16771854248743604677
19315092 285 17986109841216954223
21033648 29 16343428297835178427
21049683 118 16480483813617568080
21304303 282 17472398972755604021
23366157 5 18195254549053223197
23559900 14 16556817176932485837
2637199 183 10159699097192806406
345986 75 18115304467171875378
3886686 26 17114664017505976682
4058900 60 17690013644120836604
463206 1 18334016115855111602
57527452 28 15719937091574918272
6004065 56 18337105777925473107
6086070 43 18338503185107492317
67856867 119 17986394606175361485
79837 15 17402336975331818616

> <PUBCHEM_SHAPE_MULTIPOLES>
623.4
13.82
5.68
1.87
14.69
7.65
0.46
-16.46
-5.22
-5.07
-1.37
-0.71
0.33
-2.06

> <PUBCHEM_SHAPE_SELFOVERLAP>
1366.678

> <PUBCHEM_SHAPE_VOLUME>
332.6

> <PUBCHEM_COORDINATE_TYPE>
2
5
10

$$$$
