135947974
  -OEChem-10052115163D

 35 37  0     0  0  0  0  0  0999 V2000
    1.1366    0.2608   -2.4329 F   0  0  0  0  0  0  0  0  0  0  0  0
    4.0549    0.2854    2.1949 F   0  0  0  0  0  0  0  0  0  0  0  0
    5.3447    0.3044   -0.2361 O   0  0  0  0  0  0  0  0  0  0  0  0
   -2.2050    1.0002    0.0993 N   0  0  0  0  0  0  0  0  0  0  0  0
   -0.9191    1.3938    0.0423 N   0  0  0  0  0  0  0  0  0  0  0  0
   -3.5174   -1.0336    0.1577 N   0  0  0  0  0  0  0  0  0  0  0  0
   -2.1043   -3.0210    0.0955 N   0  0  0  0  0  0  0  0  0  0  0  0
    0.2774   -2.9074   -0.0094 N   0  0  0  0  0  0  0  0  0  0  0  0
   -3.2523    1.9931    0.1415 C   0  0  0  0  0  0  0  0  0  0  0  0
   -2.3608   -0.3541    0.1064 C   0  0  0  0  0  0  0  0  0  0  0  0
   -1.0843   -0.8856    0.0500 C   0  0  0  0  0  0  0  0  0  0  0  0
   -0.2416    0.2408    0.0126 C   0  0  0  0  0  0  0  0  0  0  0  0
   -3.2579    2.8595   -1.1203 C   0  0  0  0  0  0  0  0  0  0  0  0
   -3.1549    2.8612    1.3984 C   0  0  0  0  0  0  0  0  0  0  0  0
    1.1979    0.2576   -0.0551 C   0  0  0  0  0  0  0  0  0  0  0  0
   -0.9764   -2.2724    0.0454 C   0  0  0  0  0  0  0  0  0  0  0  0
    1.8422    0.2673   -1.2922 C   0  0  0  0  0  0  0  0  0  0  0  0
    1.9471    0.2633    1.1216 C   0  0  0  0  0  0  0  0  0  0  0  0
   -3.2879   -2.3645    0.1479 C   0  0  0  0  0  0  0  0  0  0  0  0
    3.3406    0.2792    1.0611 C   0  0  0  0  0  0  0  0  0  0  0  0
    3.2357    0.2830   -1.3526 C   0  0  0  0  0  0  0  0  0  0  0  0
    3.9849    0.2891   -0.1760 C   0  0  0  0  0  0  0  0  0  0  0  0
   -4.2087    1.4578    0.1809 H   0  0  0  0  0  0  0  0  0  0  0  0
   -3.3357    2.2382   -2.0194 H   0  0  0  0  0  0  0  0  0  0  0  0
   -4.1089    3.5489   -1.1120 H   0  0  0  0  0  0  0  0  0  0  0  0
   -2.3429    3.4561   -1.2066 H   0  0  0  0  0  0  0  0  0  0  0  0
   -2.2356    3.4571    1.4091 H   0  0  0  0  0  0  0  0  0  0  0  0
   -4.0034    3.5510    1.4583 H   0  0  0  0  0  0  0  0  0  0  0  0
   -3.1597    2.2410    2.3016 H   0  0  0  0  0  0  0  0  0  0  0  0
    1.4606    0.2553    2.0941 H   0  0  0  0  0  0  0  0  0  0  0  0
   -4.1704   -2.9939    0.1871 H   0  0  0  0  0  0  0  0  0  0  0  0
    3.7252    0.2902   -2.3227 H   0  0  0  0  0  0  0  0  0  0  0  0
    1.1349   -2.3763   -0.0469 H   0  0  0  0  0  0  0  0  0  0  0  0
    0.3108   -3.9181   -0.0104 H   0  0  0  0  0  0  0  0  0  0  0  0
    5.6189    0.3093   -1.1693 H   0  0  0  0  0  0  0  0  0  0  0  0
  1 17  1  0  0  0  0
  2 20  1  0  0  0  0
  3 22  1  0  0  0  0
  3 35  1  0  0  0  0
  4  5  1  0  0  0  0
  4  9  1  0  0  0  0
  4 10  1  0  0  0  0
  5 12  2  0  0  0  0
  6 10  2  0  0  0  0
  6 19  1  0  0  0  0
  7 16  1  0  0  0  0
  7 19  2  0  0  0  0
  8 16  1  0  0  0  0
  8 33  1  0  0  0  0
  8 34  1  0  0  0  0
  9 13  1  0  0  0  0
  9 14  1  0  0  0  0
  9 23  1  0  0  0  0
 10 11  1  0  0  0  0
 11 12  1  0  0  0  0
 11 16  2  0  0  0  0
 12 15  1  0  0  0  0
 13 24  1  0  0  0  0
 13 25  1  0  0  0  0
 13 26  1  0  0  0  0
 14 27  1  0  0  0  0
 14 28  1  0  0  0  0
 14 29  1  0  0  0  0
 15 17  1  0  0  0  0
 15 18  2  0  0  0  0
 17 21  2  0  0  0  0
 18 20  1  0  0  0  0
 18 30  1  0  0  0  0
 19 31  1  0  0  0  0
 20 22  2  0  0  0  0
 21 22  1  0  0  0  0
 21 32  1  0  0  0  0
M  END
> <PUBCHEM_COMPOUND_CID>
135947974

> <PUBCHEM_CONFORMER_RMSD>
0.6

> <PUBCHEM_CONFORMER_DIVERSEORDER>
2
3
6
4
5
1

> <PUBCHEM_MMFF94_PARTIAL_CHARGES>
25
1 -0.19
10 0.11
12 0.23
15 0.05
16 0.41
17 0.19
18 -0.15
19 0.47
2 -0.19
20 0.19
21 -0.15
22 0.08
3 -0.53
30 0.15
31 0.15
32 0.15
33 0.4
34 0.4
35 0.45
4 0.31
5 -0.71
6 -0.57
7 -0.62
8 -0.9
9 0.26

> <PUBCHEM_EFFECTIVE_ROTOR_COUNT>
2

> <PUBCHEM_PHARMACOPHORE_FEATURES>
10
1 3 donor
1 5 acceptor
1 8 cation
1 8 donor
3 4 6 10 cation
3 6 7 19 cation
3 9 13 14 hydrophobe
5 4 5 10 11 12 rings
6 15 17 18 20 21 22 rings
6 6 7 10 11 16 19 rings

> <PUBCHEM_HEAVY_ATOM_COUNT>
22

> <PUBCHEM_ATOM_DEF_STEREO_COUNT>
0

> <PUBCHEM_ATOM_UDEF_STEREO_COUNT>
0

> <PUBCHEM_BOND_DEF_STEREO_COUNT>
0

> <PUBCHEM_BOND_UDEF_STEREO_COUNT>
0

> <PUBCHEM_ISOTOPIC_ATOM_COUNT>
0

> <PUBCHEM_COMPONENT_COUNT>
1

> <PUBCHEM_CACTVS_TAUTO_COUNT>
-1

> <PUBCHEM_CONFORMER_ID>
081A66C600000002

> <PUBCHEM_MMFF94_ENERGY>
47.2081

> <PUBCHEM_FEATURE_SELFOVERLAP>
51.025

> <PUBCHEM_SHAPE_FINGERPRINT>
10319926 262 18270380768981267024
10646746 165 18343301457549818952
11582403 64 17126156306001374152
11725454 13 17414961756825577184
12236239 1 17748826353918178662
12500047 106 18411979135658683060
12553582 1 18121226642947307955
12788726 201 18119547649952079083
13140716 1 18122916588398343923
13464514 151 17629771067074266256
13583140 156 17988911280838004690
13878862 14 16968019935797212353
13965767 371 17899131611732794112
14178342 30 18410011009444141419
14294032 229 18262802853239080741
15042514 8 18265341792611278827
16752209 62 18408599296854855987
16945 1 18338804506658514027
1741750 31 18341333275806631593
19049666 15 17917444076861773726
20510252 161 18271247213449245161
20645477 70 14851867167776210920
20691752 17 17386010503539055394
21033648 29 17274812567816309624
21065201 7 18412547617683163778
22112679 90 17967542297668509556
22149856 69 17830754063026261449
22182313 1 18265629688774547879
2334 1 18338240341366472035
23402539 116 18341890848592971327
23419403 2 17128715080618807057
23493267 7 18273216370186970984
23557571 272 18202010935914627540
23559900 14 18200320914451146398
23598291 2 17604160314917231044
2748010 2 18193572064582119543
350125 39 18194133910728984739
469060 322 18336847346292038817
59755656 520 18129389194186578417
6992083 37 17822006497445658332
7615 1 17895195549278764796
77492 1 17676488380093742340
81228 2 18339092600216536931
84936 182 17623567549698912665
9862522 239 17750788857604299357

> <PUBCHEM_SHAPE_MULTIPOLES>
407.43
7.9
3.05
1.4
6.36
1.06
0.13
-2.94
-0.98
-5.09
-0.17
1.16
-0.65
0.02

> <PUBCHEM_SHAPE_SELFOVERLAP>
899.931

> <PUBCHEM_SHAPE_VOLUME>
220.2

> <PUBCHEM_COORDINATE_TYPE>
2
5
10

$$$$
