49830364
  -OEChem-10062121553D

 73 76  0     0  0  0  0  0  0999 V2000
   -1.9669    0.7831    2.0509 S   0  0  0  0  0  0  0  0  0  0  0  0
   -7.0386    1.0770    1.1124 O   0  0  0  0  0  0  0  0  0  0  0  0
    6.4292   -1.2350    0.0124 O   0  0  0  0  0  0  0  0  0  0  0  0
  -10.8636   -1.3782    0.3258 N   0  0  0  0  0  0  0  0  0  0  0  0
   -7.7929    0.3040   -0.9457 N   0  0  0  0  0  0  0  0  0  0  0  0
   -1.5217    1.7147   -2.3076 N   0  0  0  0  0  0  0  0  0  0  0  0
    0.8251    1.6247   -2.0428 N   0  0  0  0  0  0  0  0  0  0  0  0
    5.9312    0.9952    0.5304 N   0  0  0  0  0  0  0  0  0  0  0  0
    8.1308    0.3532    0.2389 N   0  0  0  0  0  0  0  0  0  0  0  0
   -9.4618   -1.2490   -0.0503 C   0  0  0  0  0  0  0  0  0  0  0  0
  -11.6970   -1.6041   -0.8568 C   0  0  0  0  0  0  0  0  0  0  0  0
  -11.0421   -2.4681    1.2872 C   0  0  0  0  0  0  0  0  0  0  0  0
   -9.1860    0.1456   -0.5925 C   0  0  0  0  0  0  0  0  0  0  0  0
   -0.6435    1.2325   -0.1241 C   0  0  0  0  0  0  0  0  0  0  0  0
    0.3173    0.9954    0.9151 C   0  0  0  0  0  0  0  0  0  0  0  0
   -1.9496    1.1455    0.3659 C   0  0  0  0  0  0  0  0  0  0  0  0
  -13.1687   -1.6738   -0.4862 C   0  0  0  0  0  0  0  0  0  0  0  0
  -10.6518   -3.8050    0.6802 C   0  0  0  0  0  0  0  0  0  0  0  0
    1.7562    0.9950    0.8172 C   0  0  0  0  0  0  0  0  0  0  0  0
   -3.0546    1.3413   -0.4711 C   0  0  0  0  0  0  0  0  0  0  0  0
   -0.4655    1.5229   -1.4861 C   0  0  0  0  0  0  0  0  0  0  0  0
   -0.2648    0.7413    2.1343 C   0  0  0  0  0  0  0  0  0  0  0  0
   -4.4101    1.2472    0.0308 C   0  0  0  0  0  0  0  0  0  0  0  0
   -6.8356    0.7591   -0.0549 C   0  0  0  0  0  0  0  0  0  0  0  0
    2.4345   -0.1859    0.5154 C   0  0  0  0  0  0  0  0  0  0  0  0
    2.4696    2.1758    1.0236 C   0  0  0  0  0  0  0  0  0  0  0  0
   -2.7642    1.6220   -1.7946 C   0  0  0  0  0  0  0  0  0  0  0  0
   -5.4841    0.8249   -0.6804 C   0  0  0  0  0  0  0  0  0  0  0  0
    4.5394    0.9947    0.6267 C   0  0  0  0  0  0  0  0  0  0  0  0
    3.8260   -0.1861    0.4201 C   0  0  0  0  0  0  0  0  0  0  0  0
    3.8612    2.1757    0.9285 C   0  0  0  0  0  0  0  0  0  0  0  0
    6.7973   -0.0862    0.2360 C   0  0  0  0  0  0  0  0  0  0  0  0
    9.2987   -0.4069   -0.0069 C   0  0  0  0  0  0  0  0  0  0  0  0
    9.1981   -1.7673   -0.2981 C   0  0  0  0  0  0  0  0  0  0  0  0
   10.3498   -2.5151   -0.5425 C   0  0  0  0  0  0  0  0  0  0  0  0
   10.5510    0.2056    0.0397 C   0  0  0  0  0  0  0  0  0  0  0  0
   11.6022   -1.9027   -0.4958 C   0  0  0  0  0  0  0  0  0  0  0  0
   11.7028   -0.5423   -0.2046 C   0  0  0  0  0  0  0  0  0  0  0  0
   10.2428   -3.9706   -0.8504 C   0  0  0  0  0  0  0  0  0  0  0  0
   -9.1497   -1.9981   -0.7899 H   0  0  0  0  0  0  0  0  0  0  0  0
   -8.8150   -1.3911    0.8264 H   0  0  0  0  0  0  0  0  0  0  0  0
  -11.6006   -0.7470   -1.5332 H   0  0  0  0  0  0  0  0  0  0  0  0
  -11.4064   -2.4788   -1.4493 H   0  0  0  0  0  0  0  0  0  0  0  0
  -10.4169   -2.2784    2.1696 H   0  0  0  0  0  0  0  0  0  0  0  0
  -12.0625   -2.5055    1.6830 H   0  0  0  0  0  0  0  0  0  0  0  0
   -9.4505    0.9081    0.1496 H   0  0  0  0  0  0  0  0  0  0  0  0
   -9.7519    0.3520   -1.5056 H   0  0  0  0  0  0  0  0  0  0  0  0
  -13.4623   -0.8441    0.1660 H   0  0  0  0  0  0  0  0  0  0  0  0
  -13.7786   -1.6041   -1.3941 H   0  0  0  0  0  0  0  0  0  0  0  0
  -13.4365   -2.6173   -0.0013 H   0  0  0  0  0  0  0  0  0  0  0  0
  -10.7191   -4.5732    1.4602 H   0  0  0  0  0  0  0  0  0  0  0  0
   -9.6216   -3.8374    0.3152 H   0  0  0  0  0  0  0  0  0  0  0  0
  -11.3240   -4.1319   -0.1179 H   0  0  0  0  0  0  0  0  0  0  0  0
   -7.5238    0.0569   -1.8937 H   0  0  0  0  0  0  0  0  0  0  0  0
    0.2207    0.5311    3.0783 H   0  0  0  0  0  0  0  0  0  0  0  0
   -4.5593    1.5489    1.0644 H   0  0  0  0  0  0  0  0  0  0  0  0
    1.8921   -1.1141    0.3505 H   0  0  0  0  0  0  0  0  0  0  0  0
    1.9561    3.1052    1.2582 H   0  0  0  0  0  0  0  0  0  0  0  0
   -3.5479    1.8019   -2.5253 H   0  0  0  0  0  0  0  0  0  0  0  0
   -5.3868    0.5053   -1.7130 H   0  0  0  0  0  0  0  0  0  0  0  0
    4.2762   -1.1393    0.1827 H   0  0  0  0  0  0  0  0  0  0  0  0
    4.4042    3.1032    1.0912 H   0  0  0  0  0  0  0  0  0  0  0  0
    1.6687    1.4984   -1.5104 H   0  0  0  0  0  0  0  0  0  0  0  0
    0.8976    1.8361   -3.0297 H   0  0  0  0  0  0  0  0  0  0  0  0
    6.3802    1.8930    0.6937 H   0  0  0  0  0  0  0  0  0  0  0  0
    8.2868    1.3372    0.4422 H   0  0  0  0  0  0  0  0  0  0  0  0
    8.2612   -2.3037   -0.3480 H   0  0  0  0  0  0  0  0  0  0  0  0
   10.6435    1.2650    0.2651 H   0  0  0  0  0  0  0  0  0  0  0  0
   12.5081   -2.4736   -0.6819 H   0  0  0  0  0  0  0  0  0  0  0  0
   12.6779   -0.0655   -0.1678 H   0  0  0  0  0  0  0  0  0  0  0  0
   11.1633   -4.3565   -1.3014 H   0  0  0  0  0  0  0  0  0  0  0  0
    9.4323   -4.1570   -1.5632 H   0  0  0  0  0  0  0  0  0  0  0  0
   10.0469   -4.5355    0.0665 H   0  0  0  0  0  0  0  0  0  0  0  0
  1 16  1  0  0  0  0
  1 22  1  0  0  0  0
  2 24  2  0  0  0  0
  3 32  2  0  0  0  0
  4 10  1  0  0  0  0
  4 11  1  0  0  0  0
  4 12  1  0  0  0  0
  5 13  1  0  0  0  0
  5 24  1  0  0  0  0
  5 54  1  0  0  0  0
  6 21  2  0  0  0  0
  6 27  1  0  0  0  0
  7 21  1  0  0  0  0
  7 63  1  0  0  0  0
  7 64  1  0  0  0  0
  8 29  1  0  0  0  0
  8 32  1  0  0  0  0
  8 65  1  0  0  0  0
  9 32  1  0  0  0  0
  9 33  1  0  0  0  0
  9 66  1  0  0  0  0
 10 13  1  0  0  0  0
 10 40  1  0  0  0  0
 10 41  1  0  0  0  0
 11 17  1  0  0  0  0
 11 42  1  0  0  0  0
 11 43  1  0  0  0  0
 12 18  1  0  0  0  0
 12 44  1  0  0  0  0
 12 45  1  0  0  0  0
 13 46  1  0  0  0  0
 13 47  1  0  0  0  0
 14 15  1  0  0  0  0
 14 16  2  0  0  0  0
 14 21  1  0  0  0  0
 15 19  1  0  0  0  0
 15 22  2  0  0  0  0
 16 20  1  0  0  0  0
 17 48  1  0  0  0  0
 17 49  1  0  0  0  0
 17 50  1  0  0  0  0
 18 51  1  0  0  0  0
 18 52  1  0  0  0  0
 18 53  1  0  0  0  0
 19 25  2  0  0  0  0
 19 26  1  0  0  0  0
 20 23  1  0  0  0  0
 20 27  2  0  0  0  0
 22 55  1  0  0  0  0
 23 28  2  3  0  0  0
 23 56  1  0  0  0  0
 24 28  1  0  0  0  0
 25 30  1  0  0  0  0
 25 57  1  0  0  0  0
 26 31  2  0  0  0  0
 26 58  1  0  0  0  0
 27 59  1  0  0  0  0
 28 60  1  0  0  0  0
 29 30  2  0  0  0  0
 29 31  1  0  0  0  0
 30 61  1  0  0  0  0
 31 62  1  0  0  0  0
 33 34  1  0  0  0  0
 33 36  2  0  0  0  0
 34 35  2  0  0  0  0
 34 67  1  0  0  0  0
 35 37  1  0  0  0  0
 35 39  1  0  0  0  0
 36 38  1  0  0  0  0
 36 68  1  0  0  0  0
 37 38  2  0  0  0  0
 37 69  1  0  0  0  0
 38 70  1  0  0  0  0
 39 71  1  0  0  0  0
 39 72  1  0  0  0  0
 39 73  1  0  0  0  0
M  END
> <PUBCHEM_COMPOUND_CID>
49830364

> <PUBCHEM_CONFORMER_RMSD>
1.2

> <PUBCHEM_CONFORMER_DIVERSEORDER>
4
38
58
37
47
40
39
16
48
68
9
22
65
13
70
55
33
26
62
30
66
54
51
17
35
60
42
52
18
69
10
25
31
45
59
43
32
15
46
71
7
67
2
44
56
57
53
11
64
29
28
12
36
24
21
19
23
49
61
14
8
63
72
5
34
41
27
1
3
6
20
50

> <PUBCHEM_MMFF94_PARTIAL_CHARGES>
53
1 -0.08
10 0.27
11 0.27
12 0.27
13 0.3
15 -0.05
16 0.04
19 0.05
2 -0.57
20 0.03
21 0.41
22 -0.11
23 -0.18
24 0.62
25 -0.15
26 -0.15
27 0.16
28 -0.14
29 0.12
3 -0.57
30 -0.15
31 -0.15
32 0.69
33 0.12
34 -0.15
35 -0.14
36 -0.15
37 -0.15
38 -0.15
39 0.14
4 -0.81
5 -0.73
54 0.37
55 0.15
56 0.15
57 0.15
58 0.15
59 0.15
6 -0.62
60 0.15
61 0.15
62 0.15
63 0.4
64 0.4
65 0.37
66 0.37
67 0.15
68 0.15
69 0.15
7 -0.9
70 0.15
8 -0.55
9 -0.55

> <PUBCHEM_EFFECTIVE_ROTOR_COUNT>
13

> <PUBCHEM_PHARMACOPHORE_FEATURES>
12
1 2 acceptor
1 3 acceptor
1 4 cation
1 5 donor
1 7 donor
1 8 donor
1 9 donor
3 6 7 21 cation
5 1 14 15 16 22 rings
6 19 25 26 29 30 31 rings
6 33 34 35 36 37 38 rings
6 6 14 16 20 21 27 rings

> <PUBCHEM_HEAVY_ATOM_COUNT>
39

> <PUBCHEM_ATOM_DEF_STEREO_COUNT>
0

> <PUBCHEM_ATOM_UDEF_STEREO_COUNT>
0

> <PUBCHEM_BOND_DEF_STEREO_COUNT>
0

> <PUBCHEM_BOND_UDEF_STEREO_COUNT>
1

> <PUBCHEM_ISOTOPIC_ATOM_COUNT>
0

> <PUBCHEM_COMPONENT_COUNT>
1

> <PUBCHEM_CACTVS_TAUTO_COUNT>
21

> <PUBCHEM_CONFORMER_ID>
02F859DC00000004

> <PUBCHEM_MMFF94_ENERGY>
111.3396

> <PUBCHEM_FEATURE_SELFOVERLAP>
61.011

> <PUBCHEM_SHAPE_FINGERPRINT>
10076449 9 18114183000072513672
10429389 143 8142086464167487409
10533779 47 14692578689504818460
11463208 3 18413390925394888855
11607047 74 17898575530044542333
12013929 94 18410573976566797811
12498461 61 17632291312094617975
12559415 141 18131638876814139358
13008946 119 12247679362104677245
13553643 46 12031785855749455771
14202775 3 18412829083637916823
14395042 24 13398633870025973955
15065858 18 18412257333175011521
15247644 1 18411982455289504278
20105231 36 18411138030321539427
21362267 313 9799421001565698500
21792961 116 17704065167486809513
232437 2 18202562865493390856
23576562 1 15141256494051180007
306946 40 9799694801177076183
335352 9 16226045600543294561
44389302 135 16988843886856398383
4516262 110 12324241655339703496
5028188 123 18041277682601251893
54039377 194 17988639679790998168
636775 8 18260546737035172021

> <PUBCHEM_SHAPE_MULTIPOLES>
764.83
54.39
3.07
1.52
27.84
3.28
-0.12
63.8
-5.34
0.12
-0.13
1.63
-0.68
3.5

> <PUBCHEM_SHAPE_SELFOVERLAP>
1625.113

> <PUBCHEM_SHAPE_VOLUME>
428.6

> <PUBCHEM_COORDINATE_TYPE>
2
5
10

$$$$
