49830994
  -OEChem-10052115183D

 42 45  0     0  0  0  0  0  0999 V2000
   -3.6339    1.6459   -0.7704 O   0  0  0  0  0  0  0  0  0  0  0  0
   -4.6081   -0.1811    0.2736 N   0  0  0  0  0  0  0  0  0  0  0  0
    3.8342   -1.6028    0.0556 N   0  0  0  0  0  0  0  0  0  0  0  0
    1.2895    0.8062   -0.0620 N   0  0  0  0  0  0  0  0  0  0  0  0
    1.4581   -2.0391   -0.0364 N   0  0  0  0  0  0  0  0  0  0  0  0
   -5.9615    0.3260    0.2707 C   0  0  0  0  0  0  0  0  0  0  0  0
   -6.3713    0.6682   -1.1663 C   0  0  0  0  0  0  0  0  0  0  0  0
   -6.0267    1.5844    1.1424 C   0  0  0  0  0  0  0  0  0  0  0  0
   -6.9047   -0.7440    0.8327 C   0  0  0  0  0  0  0  0  0  0  0  0
    2.4732    0.1538   -0.0100 C   0  0  0  0  0  0  0  0  0  0  0  0
    3.8071    0.6376    0.0410 C   0  0  0  0  0  0  0  0  0  0  0  0
    2.5226   -1.2255    0.0009 C   0  0  0  0  0  0  0  0  0  0  0  0
    4.6420   -0.4848    0.0812 C   0  0  0  0  0  0  0  0  0  0  0  0
    0.2023    0.0230   -0.1007 C   0  0  0  0  0  0  0  0  0  0  0  0
   -2.2211   -0.1358   -0.1978 C   0  0  0  0  0  0  0  0  0  0  0  0
   -3.5175    0.5203   -0.2538 C   0  0  0  0  0  0  0  0  0  0  0  0
    0.2865   -1.3893   -0.0878 C   0  0  0  0  0  0  0  0  0  0  0  0
   -1.0524    0.6220   -0.1558 C   0  0  0  0  0  0  0  0  0  0  0  0
   -2.1390   -1.5192   -0.1849 C   0  0  0  0  0  0  0  0  0  0  0  0
   -0.8890   -2.1329   -0.1300 C   0  0  0  0  0  0  0  0  0  0  0  0
    4.3926    1.9194    0.0571 C   0  0  0  0  0  0  0  0  0  0  0  0
    6.0368   -0.3837    0.1364 C   0  0  0  0  0  0  0  0  0  0  0  0
    5.7863    2.0331    0.1128 C   0  0  0  0  0  0  0  0  0  0  0  0
    6.5937    0.8983    0.1516 C   0  0  0  0  0  0  0  0  0  0  0  0
   -4.4469   -1.0592    0.7564 H   0  0  0  0  0  0  0  0  0  0  0  0
   -7.4400    0.9097   -1.2149 H   0  0  0  0  0  0  0  0  0  0  0  0
   -6.1947   -0.1781   -1.8406 H   0  0  0  0  0  0  0  0  0  0  0  0
   -5.8434    1.5336   -1.5764 H   0  0  0  0  0  0  0  0  0  0  0  0
   -7.0569    1.9507    1.2213 H   0  0  0  0  0  0  0  0  0  0  0  0
   -5.6693    1.3784    2.1583 H   0  0  0  0  0  0  0  0  0  0  0  0
   -5.4245    2.4085    0.7476 H   0  0  0  0  0  0  0  0  0  0  0  0
   -7.9431   -0.3947    0.8471 H   0  0  0  0  0  0  0  0  0  0  0  0
   -6.6282   -1.0164    1.8580 H   0  0  0  0  0  0  0  0  0  0  0  0
   -6.8657   -1.6599    0.2314 H   0  0  0  0  0  0  0  0  0  0  0  0
    4.1653   -2.5574    0.0747 H   0  0  0  0  0  0  0  0  0  0  0  0
   -1.1139    1.7097   -0.1608 H   0  0  0  0  0  0  0  0  0  0  0  0
   -3.0146   -2.1585   -0.2455 H   0  0  0  0  0  0  0  0  0  0  0  0
   -0.8424   -3.2206   -0.1271 H   0  0  0  0  0  0  0  0  0  0  0  0
    3.7758    2.8130    0.0271 H   0  0  0  0  0  0  0  0  0  0  0  0
    6.6672   -1.2661    0.1668 H   0  0  0  0  0  0  0  0  0  0  0  0
    6.2429    3.0193    0.1257 H   0  0  0  0  0  0  0  0  0  0  0  0
    7.6741    1.0102    0.1944 H   0  0  0  0  0  0  0  0  0  0  0  0
  1 16  2  0  0  0  0
  2  6  1  0  0  0  0
  2 16  1  0  0  0  0
  2 25  1  0  0  0  0
  3 12  1  0  0  0  0
  3 13  1  0  0  0  0
  3 35  1  0  0  0  0
  4 10  2  0  0  0  0
  4 14  1  0  0  0  0
  5 12  2  0  0  0  0
  5 17  1  0  0  0  0
  6  7  1  0  0  0  0
  6  8  1  0  0  0  0
  6  9  1  0  0  0  0
  7 26  1  0  0  0  0
  7 27  1  0  0  0  0
  7 28  1  0  0  0  0
  8 29  1  0  0  0  0
  8 30  1  0  0  0  0
  8 31  1  0  0  0  0
  9 32  1  0  0  0  0
  9 33  1  0  0  0  0
  9 34  1  0  0  0  0
 10 11  1  0  0  0  0
 10 12  1  0  0  0  0
 11 13  1  0  0  0  0
 11 21  2  0  0  0  0
 13 22  2  0  0  0  0
 14 17  2  0  0  0  0
 14 18  1  0  0  0  0
 15 16  1  0  0  0  0
 15 18  2  0  0  0  0
 15 19  1  0  0  0  0
 17 20  1  0  0  0  0
 18 36  1  0  0  0  0
 19 20  2  0  0  0  0
 19 37  1  0  0  0  0
 20 38  1  0  0  0  0
 21 23  1  0  0  0  0
 21 39  1  0  0  0  0
 22 24  1  0  0  0  0
 22 40  1  0  0  0  0
 23 24  2  0  0  0  0
 23 41  1  0  0  0  0
 24 42  1  0  0  0  0
M  END
> <PUBCHEM_COMPOUND_CID>
49830994

> <PUBCHEM_CONFORMER_RMSD>
0.6

> <PUBCHEM_CONFORMER_DIVERSEORDER>
3
2
4
1
5

> <PUBCHEM_MMFF94_PARTIAL_CHARGES>
29
1 -0.57
10 0.26
12 0.11
13 -0.15
14 0.31
15 0.09
16 0.54
17 0.31
18 -0.15
19 -0.15
2 -0.73
20 -0.15
21 -0.15
22 -0.15
23 -0.15
24 -0.15
25 0.37
3 0.03
35 0.27
36 0.15
37 0.15
38 0.15
39 0.15
4 -0.57
40 0.15
41 0.15
42 0.15
5 -0.57
6 0.3

> <PUBCHEM_EFFECTIVE_ROTOR_COUNT>
3

> <PUBCHEM_PHARMACOPHORE_FEATURES>
10
1 1 acceptor
1 2 donor
1 3 donor
1 4 acceptor
3 3 5 12 cation
4 6 7 8 9 hydrophobe
5 3 10 11 12 13 rings
6 11 13 21 22 23 24 rings
6 14 15 17 18 19 20 rings
6 4 5 10 12 14 17 rings

> <PUBCHEM_HEAVY_ATOM_COUNT>
24

> <PUBCHEM_ATOM_DEF_STEREO_COUNT>
0

> <PUBCHEM_ATOM_UDEF_STEREO_COUNT>
0

> <PUBCHEM_BOND_DEF_STEREO_COUNT>
0

> <PUBCHEM_BOND_UDEF_STEREO_COUNT>
0

> <PUBCHEM_ISOTOPIC_ATOM_COUNT>
0

> <PUBCHEM_COMPONENT_COUNT>
1

> <PUBCHEM_CACTVS_TAUTO_COUNT>
9

> <PUBCHEM_CONFORMER_ID>
02F85C5200000003

> <PUBCHEM_MMFF94_ENERGY>
69.2497

> <PUBCHEM_FEATURE_SELFOVERLAP>
51.008

> <PUBCHEM_SHAPE_FINGERPRINT>
10 15 18040715904651240504
10411042 1 17762900970913274550
106641 1 17676491687065696553
10906281 52 18202016433472402615
11089746 13 17704068512252885601
11578080 2 17201058534652662714
11646440 116 18272375286404207609
11724838 91 18334012839005340095
11796584 16 13038897837524905828
12236239 1 17846498110580562165
12403259 415 18188206503145588293
12596602 18 17312816070101293401
12730499 353 18410015420892882754
12788726 201 17274830103555797777
12838862 33 18339905096476361048
13167372 99 18271810073055612744
13533116 47 17632297826853117118
13668630 136 12324242754223336872
13785724 45 17620476809628812802
14251732 16 18408324410711165083
14251752 14 11527959924039930731
14251764 18 18410009957161303506
14464042 87 17918280835460341040
14790565 3 18342462512892799577
14849402 71 18200317740086044057
14856354 85 16630522969281654093
14933364 13 18410577283776265129
15183329 4 18343014493240887677
15196674 1 18338795719324264014
15475509 35 16299218022405067106
16760501 71 18335424628888745061
18608769 82 18339924934909137491
19489759 90 15864070954163125949
19611394 137 17969798547558592971
20281389 69 18333729117576221068
21033648 29 18261374646962242797
21130935 74 18408888404184092275
21150785 3 16200147724894473253
21236236 1 18341048631540189055
21267235 1 18410579444825264558
21521721 280 18342460365160738283
220451 1 16128656336785573975
22079108 93 17385442146010188410
22224240 67 18260268555982152403
22956985 138 13480789267579814688
23081809 10 17632291242736460303
23198884 109 16415765228019322619
23559900 14 18201148966211857808
2838139 119 18060415828779765041
29717793 49 17418381281533362196
335352 9 18411700985651434518
3472631 163 18272373122215067300
34797466 226 17846224371156735956
350125 39 18410855464523849581
3545911 37 18410575093696157716
397830 11 16516826920696066937
4073 2 18041565848910039634
4325135 7 18272929441097640679
4340502 62 17095242505831146610
5104073 3 18042968679665186433
542803 24 17489586757948555277
5758199 1 18342179960100434515
59682541 35 18261964033282734203
59755656 520 17749103417779503634
9996256 80 18341611546948963287

> <PUBCHEM_SHAPE_MULTIPOLES>
468.12
18.4
1.99
0.78
8.78
0.2
0
-7.54
2.16
-0.98
0.04
1.03
-0.15
0.09

> <PUBCHEM_SHAPE_SELFOVERLAP>
1051.647

> <PUBCHEM_SHAPE_VOLUME>
247.5

> <PUBCHEM_COORDINATE_TYPE>
2
5
10

$$$$
