49830661
  -OEChem-10052120443D

 60 63  0     0  0  0  0  0  0999 V2000
    2.5125   -3.7208   -0.1742 O   0  0  0  0  0  0  0  0  0  0  0  0
   -2.5693    3.2707    0.8563 O   0  0  0  0  0  0  0  0  0  0  0  0
   -0.1041    3.7040    2.1254 O   0  0  0  0  0  0  0  0  0  0  0  0
    5.9867   -2.8407   -0.3350 O   0  0  0  0  0  0  0  0  0  0  0  0
    4.9229   -4.4660    0.8543 O   0  0  0  0  0  0  0  0  0  0  0  0
   -2.3391   -1.0375   -0.0104 N   0  0  0  0  0  0  0  0  0  0  0  0
   -3.4784   -1.7139   -0.2352 N   0  0  0  0  0  0  0  0  0  0  0  0
   -1.4761    1.1965    0.5117 N   0  0  0  0  0  0  0  0  0  0  0  0
   -5.8363   -1.1278   -0.2957 C   0  0  0  0  0  0  0  0  0  0  0  0
   -4.4184   -0.7724   -0.1169 C   0  0  0  0  0  0  0  0  0  0  0  0
   -6.4954   -0.3281   -1.4714 C   0  0  0  0  0  0  0  0  0  0  0  0
   -6.6813   -0.8259    0.9890 C   0  0  0  0  0  0  0  0  0  0  0  0
   -6.1335   -2.6373   -0.6234 C   0  0  0  0  0  0  0  0  0  0  0  0
   -3.8836    0.4952    0.1809 C   0  0  0  0  0  0  0  0  0  0  0  0
   -2.5270    0.2894    0.2440 C   0  0  0  0  0  0  0  0  0  0  0  0
   -1.1175   -1.7119   -0.0508 C   0  0  0  0  0  0  0  0  0  0  0  0
   -0.1378   -1.3265   -0.9659 C   0  0  0  0  0  0  0  0  0  0  0  0
   -0.8771   -2.7723    0.8230 C   0  0  0  0  0  0  0  0  0  0  0  0
   -1.5933    2.5432    0.7826 C   0  0  0  0  0  0  0  0  0  0  0  0
    0.7893    3.1538   -0.0110 C   0  0  0  0  0  0  0  0  0  0  0  0
    2.0423    2.5552    0.1985 C   0  0  0  0  0  0  0  0  0  0  0  0
   -0.2478    3.1824    1.0169 C   0  0  0  0  0  0  0  0  0  0  0  0
    1.0821   -2.0014   -1.0074 C   0  0  0  0  0  0  0  0  0  0  0  0
    0.3427   -3.4474    0.7815 C   0  0  0  0  0  0  0  0  0  0  0  0
    1.3223   -3.0620   -0.1337 C   0  0  0  0  0  0  0  0  0  0  0  0
    2.9979    2.5668   -0.8453 C   0  0  0  0  0  0  0  0  0  0  0  0
    0.4828    3.7553   -1.2320 C   0  0  0  0  0  0  0  0  0  0  0  0
    2.3678    1.9454    1.4209 C   0  0  0  0  0  0  0  0  0  0  0  0
    2.6724    3.1766   -2.0678 C   0  0  0  0  0  0  0  0  0  0  0  0
    1.4226    3.7666   -2.2584 C   0  0  0  0  0  0  0  0  0  0  0  0
    4.2510    1.9682   -0.6359 C   0  0  0  0  0  0  0  0  0  0  0  0
    3.6176    1.3554    1.6116 C   0  0  0  0  0  0  0  0  0  0  0  0
    4.5574    1.3668    0.5852 C   0  0  0  0  0  0  0  0  0  0  0  0
    3.6560   -2.9707   -0.5819 C   0  0  0  0  0  0  0  0  0  0  0  0
    4.8901   -3.5291    0.0706 C   0  0  0  0  0  0  0  0  0  0  0  0
   -7.5504   -0.5952   -1.5994 H   0  0  0  0  0  0  0  0  0  0  0  0
   -6.4460    0.7518   -1.2903 H   0  0  0  0  0  0  0  0  0  0  0  0
   -5.9758   -0.5291   -2.4155 H   0  0  0  0  0  0  0  0  0  0  0  0
   -6.6380    0.2381    1.2487 H   0  0  0  0  0  0  0  0  0  0  0  0
   -7.7355   -1.0910    0.8500 H   0  0  0  0  0  0  0  0  0  0  0  0
   -6.2978   -1.3913    1.8464 H   0  0  0  0  0  0  0  0  0  0  0  0
   -5.7670   -3.2893    0.1780 H   0  0  0  0  0  0  0  0  0  0  0  0
   -7.2073   -2.8220   -0.7419 H   0  0  0  0  0  0  0  0  0  0  0  0
   -5.6364   -2.9393   -1.5526 H   0  0  0  0  0  0  0  0  0  0  0  0
   -4.4155    1.4238    0.3287 H   0  0  0  0  0  0  0  0  0  0  0  0
   -0.5442    0.7915    0.5211 H   0  0  0  0  0  0  0  0  0  0  0  0
   -0.3114   -0.5121   -1.6653 H   0  0  0  0  0  0  0  0  0  0  0  0
   -1.6278   -3.0835    1.5455 H   0  0  0  0  0  0  0  0  0  0  0  0
    1.8071   -1.6879   -1.7527 H   0  0  0  0  0  0  0  0  0  0  0  0
    0.5249   -4.2720    1.4653 H   0  0  0  0  0  0  0  0  0  0  0  0
   -0.4844    4.2234   -1.3981 H   0  0  0  0  0  0  0  0  0  0  0  0
    1.6646    1.8979    2.2478 H   0  0  0  0  0  0  0  0  0  0  0  0
    3.3915    3.1973   -2.8840 H   0  0  0  0  0  0  0  0  0  0  0  0
    1.1838    4.2355   -3.2086 H   0  0  0  0  0  0  0  0  0  0  0  0
    5.0006    1.9644   -1.4244 H   0  0  0  0  0  0  0  0  0  0  0  0
    3.8557    0.8832    2.5603 H   0  0  0  0  0  0  0  0  0  0  0  0
    5.5293    0.9051    0.7335 H   0  0  0  0  0  0  0  0  0  0  0  0
    3.5854   -1.9231   -0.2634 H   0  0  0  0  0  0  0  0  0  0  0  0
    3.7666   -3.0514   -1.6683 H   0  0  0  0  0  0  0  0  0  0  0  0
    6.8079   -3.1847    0.0766 H   0  0  0  0  0  0  0  0  0  0  0  0
  1 25  1  0  0  0  0
  1 34  1  0  0  0  0
  2 19  2  0  0  0  0
  3 22  2  0  0  0  0
  4 35  1  0  0  0  0
  4 60  1  0  0  0  0
  5 35  2  0  0  0  0
  6  7  1  0  0  0  0
  6 15  1  0  0  0  0
  6 16  1  0  0  0  0
  7 10  2  0  0  0  0
  8 15  1  0  0  0  0
  8 19  1  0  0  0  0
  8 46  1  0  0  0  0
  9 10  1  0  0  0  0
  9 11  1  0  0  0  0
  9 12  1  0  0  0  0
  9 13  1  0  0  0  0
 10 14  1  0  0  0  0
 11 36  1  0  0  0  0
 11 37  1  0  0  0  0
 11 38  1  0  0  0  0
 12 39  1  0  0  0  0
 12 40  1  0  0  0  0
 12 41  1  0  0  0  0
 13 42  1  0  0  0  0
 13 43  1  0  0  0  0
 13 44  1  0  0  0  0
 14 15  2  0  0  0  0
 14 45  1  0  0  0  0
 16 17  2  0  0  0  0
 16 18  1  0  0  0  0
 17 23  1  0  0  0  0
 17 47  1  0  0  0  0
 18 24  2  0  0  0  0
 18 48  1  0  0  0  0
 19 22  1  0  0  0  0
 20 21  1  0  0  0  0
 20 22  1  0  0  0  0
 20 27  2  0  0  0  0
 21 26  1  0  0  0  0
 21 28  2  0  0  0  0
 23 25  2  0  0  0  0
 23 49  1  0  0  0  0
 24 25  1  0  0  0  0
 24 50  1  0  0  0  0
 26 29  1  0  0  0  0
 26 31  2  0  0  0  0
 27 30  1  0  0  0  0
 27 51  1  0  0  0  0
 28 32  1  0  0  0  0
 28 52  1  0  0  0  0
 29 30  2  0  0  0  0
 29 53  1  0  0  0  0
 30 54  1  0  0  0  0
 31 33  1  0  0  0  0
 31 55  1  0  0  0  0
 32 33  2  0  0  0  0
 32 56  1  0  0  0  0
 33 57  1  0  0  0  0
 34 35  1  0  0  0  0
 34 58  1  0  0  0  0
 34 59  1  0  0  0  0
M  END
> <PUBCHEM_COMPOUND_CID>
49830661

> <PUBCHEM_CONFORMER_RMSD>
1

> <PUBCHEM_CONFORMER_DIVERSEORDER>
1
19
62
17
85
50
39
42
75
12
57
25
35
72
30
36
76
15
43
2
16
31
20
41
64
14
55
67
5
66
69
13
29
33
23
63
48
44
81
88
56
78
82
38
70
54
60
37
83
77
87
52
27
6
59
71
65
51
21
46
10
26
32
47
58
7
79
8
49
18
80
74
53
86
45
24
34
28
89
40
4
61
73
22
68
84
90
9
11
3

> <PUBCHEM_MMFF94_PARTIAL_CHARGES>
44
1 -0.36
10 0.11
14 -0.15
15 -0.09
16 -0.02
17 -0.15
18 -0.15
19 0.63
2 -0.57
20 0.09
22 0.48
23 -0.15
24 -0.15
25 0.08
27 -0.15
28 -0.15
29 -0.15
3 -0.57
30 -0.15
31 -0.15
32 -0.15
33 -0.15
34 0.34
35 0.66
4 -0.65
45 0.15
46 0.37
47 0.15
48 0.15
49 0.15
5 -0.57
50 0.15
51 0.15
52 0.15
53 0.15
54 0.15
55 0.15
56 0.15
57 0.15
6 0.59
60 0.5
7 -0.71
8 -0.49
9 0.18

> <PUBCHEM_EFFECTIVE_ROTOR_COUNT>
9

> <PUBCHEM_PHARMACOPHORE_FEATURES>
13
1 1 acceptor
1 2 acceptor
1 3 acceptor
1 4 acceptor
1 5 acceptor
1 7 acceptor
1 8 donor
3 4 5 35 anion
4 9 11 12 13 hydrophobe
5 6 7 10 14 15 rings
6 16 17 18 23 24 25 rings
6 20 21 26 27 29 30 rings
6 21 26 28 31 32 33 rings

> <PUBCHEM_HEAVY_ATOM_COUNT>
35

> <PUBCHEM_ATOM_DEF_STEREO_COUNT>
0

> <PUBCHEM_ATOM_UDEF_STEREO_COUNT>
0

> <PUBCHEM_BOND_DEF_STEREO_COUNT>
0

> <PUBCHEM_BOND_UDEF_STEREO_COUNT>
0

> <PUBCHEM_ISOTOPIC_ATOM_COUNT>
0

> <PUBCHEM_COMPONENT_COUNT>
1

> <PUBCHEM_CACTVS_TAUTO_COUNT>
4

> <PUBCHEM_CONFORMER_ID>
02F85B0500000001

> <PUBCHEM_MMFF94_ENERGY>
117.8533

> <PUBCHEM_FEATURE_SELFOVERLAP>
66.066

> <PUBCHEM_SHAPE_FINGERPRINT>
10290309 65 17688048812973340238
10675989 125 18267875067085111524
1100329 8 17981332183873875889
11578080 2 17823677734689429791
12677640 9 17912927180095692769
12788726 201 18056779829853325673
13560911 43 18260827056302183930
14068700 675 18341050696743867750
15781502 237 18342182116037373929
16664035 1 18341048626892151409
20721686 56 18410858754938407666
20764821 26 18193849145627964308
20771845 171 18115030839395651207
21344244 246 18339352085124833183
21781051 124 17828767584389135387
23559900 14 18411409627602047851
25019877 29 17203315672652774798
3004659 81 18190458461720809797
3298306 158 18196089065699142095
340366 18 17826508061586182277
373842 8 18410011048542270730
4573279 73 17909259527370551167
469060 322 17900833639317073922
5265222 85 17758126173237037812

> <PUBCHEM_SHAPE_MULTIPOLES>
675.99
12.57
6.94
1.53
16.56
2.52
-0.18
7.97
-1.29
-9.69
-0.17
-0.63
-1.57
-1.2

> <PUBCHEM_SHAPE_SELFOVERLAP>
1476.435

> <PUBCHEM_SHAPE_VOLUME>
365.5

> <PUBCHEM_COORDINATE_TYPE>
2
5
10

$$$$
