45139991
  -OEChem-10062122033D

 57 61  0     0  0  0  0  0  0999 V2000
    4.9525    1.2831   -2.2248 O   0  0  0  0  0  0  0  0  0  0  0  0
   -7.9398    0.8231    0.0810 O   0  0  0  0  0  0  0  0  0  0  0  0
    3.7408    0.0010   -0.6899 N   0  0  0  0  0  0  0  0  0  0  0  0
    0.6704   -1.4896    0.4879 N   0  0  0  0  0  0  0  0  0  0  0  0
   -1.4841   -0.6565    0.2785 N   0  0  0  0  0  0  0  0  0  0  0  0
   -3.5272    1.4885    0.1006 N   0  0  0  0  0  0  0  0  0  0  0  0
   -1.0218   -3.0161    0.0451 N   0  0  0  0  0  0  0  0  0  0  0  0
   -4.6702    2.2040    0.0930 N   0  0  0  0  0  0  0  0  0  0  0  0
   -7.3107    3.0282    0.0869 N   0  0  0  0  0  0  0  0  0  0  0  0
    1.2152   -0.1687    0.7368 C   0  0  0  0  0  0  0  0  0  0  0  0
    2.5660   -0.2819    1.4562 C   0  0  0  0  0  0  0  0  0  0  0  0
    1.3568    0.6007   -0.5833 C   0  0  0  0  0  0  0  0  0  0  0  0
    3.6694   -0.8039    0.5358 C   0  0  0  0  0  0  0  0  0  0  0  0
    2.4945    0.0632   -1.4524 C   0  0  0  0  0  0  0  0  0  0  0  0
   -5.7146   -1.3891    0.0747 C   0  0  0  0  0  0  0  0  0  0  0  0
   -4.7449   -2.4576   -0.4986 C   0  0  0  0  0  0  0  0  0  0  0  0
   -3.7348    0.1438    0.0760 C   0  0  0  0  0  0  0  0  0  0  0  0
   -0.6716   -1.7306    0.2611 C   0  0  0  0  0  0  0  0  0  0  0  0
   -5.1003   -0.0348    0.0618 C   0  0  0  0  0  0  0  0  0  0  0  0
   -2.7809   -0.9414    0.0565 C   0  0  0  0  0  0  0  0  0  0  0  0
   -3.2850   -2.2240   -0.1723 C   0  0  0  0  0  0  0  0  0  0  0  0
    4.8817    0.6429   -1.1768 C   0  0  0  0  0  0  0  0  0  0  0  0
   -5.6268    1.2674    0.0733 C   0  0  0  0  0  0  0  0  0  0  0  0
   -2.3376   -3.2291   -0.1768 C   0  0  0  0  0  0  0  0  0  0  0  0
    6.1112    0.5706   -0.3775 C   0  0  0  0  0  0  0  0  0  0  0  0
   -2.2688    2.1980    0.1093 C   0  0  0  0  0  0  0  0  0  0  0  0
   -7.0070    1.6607    0.0744 C   0  0  0  0  0  0  0  0  0  0  0  0
    7.0147   -0.4726   -0.5799 C   0  0  0  0  0  0  0  0  0  0  0  0
    6.3762    1.5463    0.5833 C   0  0  0  0  0  0  0  0  0  0  0  0
    8.1834   -0.5402    0.1786 C   0  0  0  0  0  0  0  0  0  0  0  0
    7.5449    1.4789    1.3417 C   0  0  0  0  0  0  0  0  0  0  0  0
    8.4485    0.4356    1.1395 C   0  0  0  0  0  0  0  0  0  0  0  0
    0.5425    0.3831    1.4060 H   0  0  0  0  0  0  0  0  0  0  0  0
    2.8539    0.7132    1.8196 H   0  0  0  0  0  0  0  0  0  0  0  0
    2.4813   -0.9339    2.3337 H   0  0  0  0  0  0  0  0  0  0  0  0
    0.4271    0.5881   -1.1617 H   0  0  0  0  0  0  0  0  0  0  0  0
    1.5674    1.6522   -0.3474 H   0  0  0  0  0  0  0  0  0  0  0  0
    4.6175   -0.8015    1.0776 H   0  0  0  0  0  0  0  0  0  0  0  0
    3.4786   -1.8402    0.2350 H   0  0  0  0  0  0  0  0  0  0  0  0
    2.6124    0.6978   -2.3366 H   0  0  0  0  0  0  0  0  0  0  0  0
    2.2716   -0.9503   -1.8058 H   0  0  0  0  0  0  0  0  0  0  0  0
    1.2917   -2.2885    0.4420 H   0  0  0  0  0  0  0  0  0  0  0  0
   -6.6512   -1.4129   -0.4917 H   0  0  0  0  0  0  0  0  0  0  0  0
   -5.9538   -1.6466    1.1144 H   0  0  0  0  0  0  0  0  0  0  0  0
   -5.0591   -3.4460   -0.1428 H   0  0  0  0  0  0  0  0  0  0  0  0
   -4.8349   -2.4624   -1.5930 H   0  0  0  0  0  0  0  0  0  0  0  0
   -2.6084   -4.2618   -0.3699 H   0  0  0  0  0  0  0  0  0  0  0  0
   -1.6985    1.9057   -0.7752 H   0  0  0  0  0  0  0  0  0  0  0  0
   -2.4571    3.2748    0.0792 H   0  0  0  0  0  0  0  0  0  0  0  0
   -1.7341    1.9481    1.0285 H   0  0  0  0  0  0  0  0  0  0  0  0
    6.8176   -1.2382   -1.3259 H   0  0  0  0  0  0  0  0  0  0  0  0
    5.6784    2.3629    0.7495 H   0  0  0  0  0  0  0  0  0  0  0  0
    8.8868   -1.3525    0.0213 H   0  0  0  0  0  0  0  0  0  0  0  0
    7.7512    2.2385    2.0901 H   0  0  0  0  0  0  0  0  0  0  0  0
   -6.5868    3.7398    0.0893 H   0  0  0  0  0  0  0  0  0  0  0  0
   -8.2734    3.3484    0.0942 H   0  0  0  0  0  0  0  0  0  0  0  0
    9.3583    0.3831    1.7302 H   0  0  0  0  0  0  0  0  0  0  0  0
  1 22  2  0  0  0  0
  2 27  2  0  0  0  0
  3 13  1  0  0  0  0
  3 14  1  0  0  0  0
  3 22  1  0  0  0  0
  4 10  1  0  0  0  0
  4 18  1  0  0  0  0
  4 42  1  0  0  0  0
  5 18  1  0  0  0  0
  5 20  2  0  0  0  0
  6  8  1  0  0  0  0
  6 17  1  0  0  0  0
  6 26  1  0  0  0  0
  7 18  2  0  0  0  0
  7 24  1  0  0  0  0
  8 23  2  0  0  0  0
  9 27  1  0  0  0  0
  9 55  1  0  0  0  0
  9 56  1  0  0  0  0
 10 11  1  0  0  0  0
 10 12  1  0  0  0  0
 10 33  1  0  0  0  0
 11 13  1  0  0  0  0
 11 34  1  0  0  0  0
 11 35  1  0  0  0  0
 12 14  1  0  0  0  0
 12 36  1  0  0  0  0
 12 37  1  0  0  0  0
 13 38  1  0  0  0  0
 13 39  1  0  0  0  0
 14 40  1  0  0  0  0
 14 41  1  0  0  0  0
 15 16  1  0  0  0  0
 15 19  1  0  0  0  0
 15 43  1  0  0  0  0
 15 44  1  0  0  0  0
 16 21  1  0  0  0  0
 16 45  1  0  0  0  0
 16 46  1  0  0  0  0
 17 19  2  0  0  0  0
 17 20  1  0  0  0  0
 19 23  1  0  0  0  0
 20 21  1  0  0  0  0
 21 24  2  0  0  0  0
 22 25  1  0  0  0  0
 23 27  1  0  0  0  0
 24 47  1  0  0  0  0
 25 28  2  0  0  0  0
 25 29  1  0  0  0  0
 26 48  1  0  0  0  0
 26 49  1  0  0  0  0
 26 50  1  0  0  0  0
 28 30  1  0  0  0  0
 28 51  1  0  0  0  0
 29 31  2  0  0  0  0
 29 52  1  0  0  0  0
 30 32  2  0  0  0  0
 30 53  1  0  0  0  0
 31 32  1  0  0  0  0
 31 54  1  0  0  0  0
 32 57  1  0  0  0  0
M  END
> <PUBCHEM_COMPOUND_CID>
45139991

> <PUBCHEM_CONFORMER_RMSD>
0.8

> <PUBCHEM_CONFORMER_DIVERSEORDER>
1
136
34
90
133
64
60
139
124
74
70
111
119
61
22
117
50
95
108
51
67
149
76
83
86
56
125
47
46
3
24
12
129
16
84
122
134
91
99
21
97
127
112
115
102
104
113
41
32
35
92
48
82
52
40
55
140
105
120
72
141
68
146
14
87
58
62
109
59
39
89
54
13
79
98
138
53
137
147
123
132
93
63
116
148
37
4
57
28
96
101
5
106
77
20
100
42
8
10
15
130
88
25
27
110
143
126
45
69
135
145
17
11
33
118
9
121
65
85
80
142
18
144
43
6
30
107
31
26
44
29
36
114
49
7
19
75
23
94
38
81
128
2
78
71
73
103
66
131

> <PUBCHEM_MMFF94_PARTIAL_CHARGES>
39
1 -0.57
10 0.37
13 0.3
14 0.3
15 0.18
16 0.14
17 -0.2
18 0.72
19 -0.18
2 -0.57
20 0.36
21 -0.14
22 0.54
23 0.2
24 0.16
25 0.09
26 0.26
27 0.72
28 -0.15
29 -0.15
3 -0.66
30 -0.15
31 -0.15
32 -0.15
4 -0.87
42 0.4
47 0.15
5 -0.62
51 0.15
52 0.15
53 0.15
54 0.15
55 0.37
56 0.37
57 0.15
6 0.31
7 -0.62
8 -0.71
9 -0.8

> <PUBCHEM_EFFECTIVE_ROTOR_COUNT>
6.6

> <PUBCHEM_PHARMACOPHORE_FEATURES>
12
1 1 acceptor
1 2 acceptor
1 4 donor
1 5 acceptor
1 8 acceptor
1 9 donor
4 4 5 7 18 cation
5 6 8 17 19 23 rings
6 15 16 17 19 20 21 rings
6 25 28 29 30 31 32 rings
6 3 10 11 12 13 14 rings
6 5 7 18 20 21 24 rings

> <PUBCHEM_HEAVY_ATOM_COUNT>
32

> <PUBCHEM_ATOM_DEF_STEREO_COUNT>
0

> <PUBCHEM_ATOM_UDEF_STEREO_COUNT>
0

> <PUBCHEM_BOND_DEF_STEREO_COUNT>
0

> <PUBCHEM_BOND_UDEF_STEREO_COUNT>
0

> <PUBCHEM_ISOTOPIC_ATOM_COUNT>
0

> <PUBCHEM_COMPONENT_COUNT>
1

> <PUBCHEM_CACTVS_TAUTO_COUNT>
12

> <PUBCHEM_CONFORMER_ID>
02B0C81700000001

> <PUBCHEM_MMFF94_ENERGY>
83.8432

> <PUBCHEM_FEATURE_SELFOVERLAP>
61.008

> <PUBCHEM_SHAPE_FINGERPRINT>
10 15 18259985947117991779
10165383 225 18340487777767749801
10411042 1 17907856555503617959
10670039 82 18410005555458349567
10730089 173 18410294718109839995
10835480 77 17989489632649534200
11135926 11 18187640285149426375
11136131 41 17970907757091284435
11475781 23 18130797745911925884
12144603 126 17967817181093961740
12236239 1 17967535696155958734
12539745 222 16515971488878066467
12838862 33 18335972100486952549
14257110 125 18335422357567885533
14294032 229 18114742621315777660
14394314 77 18409167680285265937
150020 25 17918277558927625880
15021287 119 17167865283347693876
15131766 46 15287924790575493078
15183329 4 17676483982627986854
15297060 5 18343868797197239515
15328829 1 17894343376612447584
15439362 3 18267868294059076271
15461852 350 17775276201626074815
1577012 14 18333724702365775835
18608769 82 18341898553954697867
20554085 129 17988350508454595658
21033648 29 17845919836769339762
21150785 3 12607403300130130744
21756936 100 18412821400521381047
23522609 53 17386588962829678596
23559900 14 18059850722499430737
23569943 247 16444163393368105778
24771293 8 18041837459080198156
3918712 181 18269551638045645033
4073 2 18187930642477558770
4403749 210 17130414895758002542
44280117 145 18058163011122297015
58083652 198 16298660693946384700
6299153 45 18187925041634197050
99344 41 18410012113240563775

> <PUBCHEM_SHAPE_MULTIPOLES>
611.94
24.92
2.82
1.11
20.52
0.73
0.25
-12.32
-2.35
-5.91
-0.03
2.2
-0.22
-0.14

> <PUBCHEM_SHAPE_SELFOVERLAP>
1343.699

> <PUBCHEM_SHAPE_VOLUME>
327.2

> <PUBCHEM_COORDINATE_TYPE>
2
5
10

$$$$
