9935079
  -OEChem-10062121593D

 63 68  0     0  0  0  0  0  0999 V2000
    2.6965   -2.2456    1.4547 O   0  0  0  0  0  0  0  0  0  0  0  0
    2.6982    2.2439   -1.4547 O   0  0  0  0  0  0  0  0  0  0  0  0
   -4.5460   -2.2938    0.0047 O   0  0  0  0  0  0  0  0  0  0  0  0
   -4.5458    2.2947   -0.0043 O   0  0  0  0  0  0  0  0  0  0  0  0
    3.6177   -0.0006    0.0011 O   0  0  0  0  0  0  0  0  0  0  0  0
   -0.0553   -2.9061    0.6658 N   0  0  0  0  0  0  0  0  0  0  0  0
   -0.0549    2.9053   -0.6676 N   0  0  0  0  0  0  0  0  0  0  0  0
   -4.9485    0.0005    0.0017 N   0  0  0  0  0  0  0  0  0  0  0  0
   -1.6579   -1.5402   -0.0315 C   0  0  0  0  0  0  0  0  0  0  0  0
   -1.6579    1.5408    0.0319 C   0  0  0  0  0  0  0  0  0  0  0  0
   -2.7764   -0.6709   -0.0023 C   0  0  0  0  0  0  0  0  0  0  0  0
   -2.7764    0.6717    0.0040 C   0  0  0  0  0  0  0  0  0  0  0  0
   -0.7416   -1.7316   -1.1068 C   0  0  0  0  0  0  0  0  0  0  0  0
   -0.7408    1.7329    1.1065 C   0  0  0  0  0  0  0  0  0  0  0  0
    0.2524   -2.6035   -0.6467 C   0  0  0  0  0  0  0  0  0  0  0  0
    0.2533    2.6040    0.6451 C   0  0  0  0  0  0  0  0  0  0  0  0
   -1.2335   -2.3045    1.0306 C   0  0  0  0  0  0  0  0  0  0  0  0
   -1.2338    2.3041   -1.0310 C   0  0  0  0  0  0  0  0  0  0  0  0
    0.7743   -3.6802    1.5814 C   0  0  0  0  0  0  0  0  0  0  0  0
    0.7751    3.6769   -1.5849 C   0  0  0  0  0  0  0  0  0  0  0  0
   -4.1817   -1.1305    0.0043 C   0  0  0  0  0  0  0  0  0  0  0  0
   -4.1817    1.1313   -0.0023 C   0  0  0  0  0  0  0  0  0  0  0  0
   -0.6524   -1.2339   -2.4252 C   0  0  0  0  0  0  0  0  0  0  0  0
   -0.6509    1.2362    2.4254 C   0  0  0  0  0  0  0  0  0  0  0  0
    1.3288   -2.9937   -1.4603 C   0  0  0  0  0  0  0  0  0  0  0  0
    1.3302    2.9946    1.4579 C   0  0  0  0  0  0  0  0  0  0  0  0
    1.7345   -2.7849    2.3599 C   0  0  0  0  0  0  0  0  0  0  0  0
    1.7350    2.7795   -2.3610 C   0  0  0  0  0  0  0  0  0  0  0  0
    0.4161   -1.6205   -3.2392 C   0  0  0  0  0  0  0  0  0  0  0  0
    0.4179    1.6233    3.2385 C   0  0  0  0  0  0  0  0  0  0  0  0
    1.3915   -2.4886   -2.7615 C   0  0  0  0  0  0  0  0  0  0  0  0
    1.3935    2.4908    2.7595 C   0  0  0  0  0  0  0  0  0  0  0  0
    3.4913   -1.2243    2.0534 C   0  0  0  0  0  0  0  0  0  0  0  0
    3.4951    1.2231   -2.0514 C   0  0  0  0  0  0  0  0  0  0  0  0
    4.4163   -0.6536    0.9895 C   0  0  0  0  0  0  0  0  0  0  0  0
    4.4181    0.6535   -0.9852 C   0  0  0  0  0  0  0  0  0  0  0  0
   -1.6341   -2.4254    2.0290 H   0  0  0  0  0  0  0  0  0  0  0  0
   -1.6349    2.4242   -2.0293 H   0  0  0  0  0  0  0  0  0  0  0  0
    1.3126   -4.4298    0.9926 H   0  0  0  0  0  0  0  0  0  0  0  0
    0.0988   -4.2061    2.2652 H   0  0  0  0  0  0  0  0  0  0  0  0
    1.3134    4.4277   -0.9976 H   0  0  0  0  0  0  0  0  0  0  0  0
    0.0998    4.2014   -2.2700 H   0  0  0  0  0  0  0  0  0  0  0  0
   -1.4048   -0.5534   -2.8144 H   0  0  0  0  0  0  0  0  0  0  0  0
   -1.4033    0.5563    2.8155 H   0  0  0  0  0  0  0  0  0  0  0  0
   -5.9623    0.0005    0.0017 H   0  0  0  0  0  0  0  0  0  0  0  0
    2.1015   -3.6634   -1.0974 H   0  0  0  0  0  0  0  0  0  0  0  0
    2.1029    3.6638    1.0939 H   0  0  0  0  0  0  0  0  0  0  0  0
    1.1866   -1.9748    2.8560 H   0  0  0  0  0  0  0  0  0  0  0  0
    2.2591   -3.3748    3.1192 H   0  0  0  0  0  0  0  0  0  0  0  0
    1.1873    1.9673   -2.8539 H   0  0  0  0  0  0  0  0  0  0  0  0
    2.2586    3.3671   -3.1227 H   0  0  0  0  0  0  0  0  0  0  0  0
    0.4848   -1.2360   -4.2532 H   0  0  0  0  0  0  0  0  0  0  0  0
    0.4871    1.2398    4.2527 H   0  0  0  0  0  0  0  0  0  0  0  0
    2.2177   -2.7759   -3.4066 H   0  0  0  0  0  0  0  0  0  0  0  0
    2.2200    2.7783    3.4040 H   0  0  0  0  0  0  0  0  0  0  0  0
    4.0758   -1.6537    2.8737 H   0  0  0  0  0  0  0  0  0  0  0  0
    2.8361   -0.4362    2.4398 H   0  0  0  0  0  0  0  0  0  0  0  0
    4.0810    1.6529   -2.8705 H   0  0  0  0  0  0  0  0  0  0  0  0
    2.8415    0.4343   -2.4391 H   0  0  0  0  0  0  0  0  0  0  0  0
    5.1030    0.0687    1.4439 H   0  0  0  0  0  0  0  0  0  0  0  0
    4.9872   -1.4559    0.5091 H   0  0  0  0  0  0  0  0  0  0  0  0
    5.1067   -0.0681   -1.4379 H   0  0  0  0  0  0  0  0  0  0  0  0
    4.9868    1.4563   -0.5033 H   0  0  0  0  0  0  0  0  0  0  0  0
  1 27  1  0  0  0  0
  1 33  1  0  0  0  0
  2 28  1  0  0  0  0
  2 34  1  0  0  0  0
  3 21  2  0  0  0  0
  4 22  2  0  0  0  0
  5 35  1  0  0  0  0
  5 36  1  0  0  0  0
  6 15  1  0  0  0  0
  6 17  1  0  0  0  0
  6 19  1  0  0  0  0
  7 16  1  0  0  0  0
  7 18  1  0  0  0  0
  7 20  1  0  0  0  0
  8 21  1  0  0  0  0
  8 22  1  0  0  0  0
  8 45  1  0  0  0  0
  9 11  1  0  0  0  0
  9 13  1  0  0  0  0
  9 17  2  0  0  0  0
 10 12  1  0  0  0  0
 10 14  1  0  0  0  0
 10 18  2  0  0  0  0
 11 12  2  0  0  0  0
 11 21  1  0  0  0  0
 12 22  1  0  0  0  0
 13 15  1  0  0  0  0
 13 23  2  0  0  0  0
 14 16  1  0  0  0  0
 14 24  2  0  0  0  0
 15 25  2  0  0  0  0
 16 26  2  0  0  0  0
 17 37  1  0  0  0  0
 18 38  1  0  0  0  0
 19 27  1  0  0  0  0
 19 39  1  0  0  0  0
 19 40  1  0  0  0  0
 20 28  1  0  0  0  0
 20 41  1  0  0  0  0
 20 42  1  0  0  0  0
 23 29  1  0  0  0  0
 23 43  1  0  0  0  0
 24 30  1  0  0  0  0
 24 44  1  0  0  0  0
 25 31  1  0  0  0  0
 25 46  1  0  0  0  0
 26 32  1  0  0  0  0
 26 47  1  0  0  0  0
 27 48  1  0  0  0  0
 27 49  1  0  0  0  0
 28 50  1  0  0  0  0
 28 51  1  0  0  0  0
 29 31  2  0  0  0  0
 29 52  1  0  0  0  0
 30 32  2  0  0  0  0
 30 53  1  0  0  0  0
 31 54  1  0  0  0  0
 32 55  1  0  0  0  0
 33 35  1  0  0  0  0
 33 56  1  0  0  0  0
 33 57  1  0  0  0  0
 34 36  1  0  0  0  0
 34 58  1  0  0  0  0
 34 59  1  0  0  0  0
 35 60  1  0  0  0  0
 35 61  1  0  0  0  0
 36 62  1  0  0  0  0
 36 63  1  0  0  0  0
M  END
> <PUBCHEM_COMPOUND_CID>
9935079

> <PUBCHEM_CONFORMER_RMSD>
0.8

> <PUBCHEM_CONFORMER_DIVERSEORDER>
1
13
3
5
2
6
11
10
7
8
4
9
12

> <PUBCHEM_MMFF94_PARTIAL_CHARGES>
45
1 -0.56
10 -0.05
11 0.06
12 0.06
15 -0.15
16 -0.15
17 -0.3
18 -0.3
19 0.26
2 -0.56
20 0.26
21 0.62
22 0.62
23 -0.15
24 -0.15
25 -0.15
26 -0.15
27 0.28
28 0.28
29 -0.15
3 -0.57
30 -0.15
31 -0.15
32 -0.15
33 0.28
34 0.28
35 0.28
36 0.28
37 0.15
38 0.15
4 -0.57
43 0.15
44 0.15
45 0.37
46 0.15
47 0.15
5 -0.56
52 0.15
53 0.15
54 0.15
55 0.15
6 0.05
7 0.05
8 -0.49
9 -0.05

> <PUBCHEM_EFFECTIVE_ROTOR_COUNT>
2.4

> <PUBCHEM_PHARMACOPHORE_FEATURES>
13
1 1 acceptor
1 2 acceptor
1 3 acceptor
1 4 acceptor
1 5 acceptor
1 6 cation
1 7 cation
1 8 donor
5 6 9 13 15 17 rings
5 7 10 14 16 18 rings
5 8 11 12 21 22 rings
6 13 15 23 25 29 31 rings
6 14 16 24 26 30 32 rings

> <PUBCHEM_HEAVY_ATOM_COUNT>
36

> <PUBCHEM_ATOM_DEF_STEREO_COUNT>
0

> <PUBCHEM_ATOM_UDEF_STEREO_COUNT>
0

> <PUBCHEM_BOND_DEF_STEREO_COUNT>
0

> <PUBCHEM_BOND_UDEF_STEREO_COUNT>
0

> <PUBCHEM_ISOTOPIC_ATOM_COUNT>
0

> <PUBCHEM_COMPONENT_COUNT>
1

> <PUBCHEM_CACTVS_TAUTO_COUNT>
2

> <PUBCHEM_CONFORMER_ID>
009798E700000001

> <PUBCHEM_MMFF94_ENERGY>
72.3999

> <PUBCHEM_FEATURE_SELFOVERLAP>
66.156

> <PUBCHEM_SHAPE_FINGERPRINT>
107951 10 17611761393192184503
11578080 2 17677038037645752943
12156800 1 17343747556835635110
12786520 15 14978529691293202083
19315092 285 16879889873492936035
19930381 70 17895189970063148698
20600515 1 17908135483020220715
20642791 239 17902829308650743093
20715895 44 17684638832300305925
20764821 26 16965185970181665682
20905425 154 18197494026267768887
23559900 14 18053952744808055655
35225 105 17986372427043386108
469060 322 17040935166036182337
57527306 92 18411696595862645798
57527452 28 18410858750832934808
57527585 103 17399014539039871726
57527585 21 16407841932333784312

> <PUBCHEM_SHAPE_MULTIPOLES>
696.57
6.72
5.06
3.19
3.25
0
0
0
0
-1.32
0
-2.75
0
-0.9

> <PUBCHEM_SHAPE_SELFOVERLAP>
1547.463

> <PUBCHEM_SHAPE_VOLUME>
374.3

> <PUBCHEM_COORDINATE_TYPE>
2
5
10

$$$$
