25207521
  -OEChem-10062122023D

 39 41  0     1  0  0  0  0  0999 V2000
   -0.1499   -3.9655   -1.5433 O   0  0  0  0  0  0  0  0  0  0  0  0
    2.6047   -2.8551   -0.8378 O   0  0  0  0  0  0  0  0  0  0  0  0
   -4.3501   -1.4751    0.8079 O   0  0  0  0  0  0  0  0  0  0  0  0
   -0.5322    4.0256   -0.1775 O   0  0  0  0  0  0  0  0  0  0  0  0
   -1.6703   -1.6490    0.0808 N   0  0  0  0  0  0  0  0  0  0  0  0
    1.3622   -0.4283    0.8593 N   0  0  0  0  0  0  0  0  0  0  0  0
   -3.7299   -0.2142    2.6251 N   0  0  0  0  0  0  0  0  0  0  0  0
    5.0203    1.5490    0.1535 N   0  0  0  0  0  0  0  0  0  0  0  0
   -2.1288   -0.4831    0.8231 C   0  0  1  0  0  0  0  0  0  0  0  0
   -0.4053   -1.9053   -0.1215 C   0  0  0  0  0  0  0  0  0  0  0  0
    0.8198   -1.4120    0.1931 C   0  0  0  0  0  0  0  0  0  0  0  0
   -2.1315    0.7385   -0.0318 C   0  0  0  0  0  0  0  0  0  0  0  0
    0.1697   -3.0064   -0.8910 C   0  0  0  0  0  0  0  0  0  0  0  0
    1.5022   -2.4695   -0.5493 C   0  0  0  0  0  0  0  0  0  0  0  0
   -3.5103   -0.7961    1.3947 C   0  0  0  0  0  0  0  0  0  0  0  0
   -1.3209    1.8241    0.2998 C   0  0  0  0  0  0  0  0  0  0  0  0
   -2.9448    0.7954   -1.1637 C   0  0  0  0  0  0  0  0  0  0  0  0
    2.5958    0.2385    0.6211 C   0  0  0  0  0  0  0  0  0  0  0  0
   -1.3235    2.9666   -0.5005 C   0  0  0  0  0  0  0  0  0  0  0  0
   -2.9474    1.9378   -1.9639 C   0  0  0  0  0  0  0  0  0  0  0  0
   -2.1368    3.0233   -1.6323 C   0  0  0  0  0  0  0  0  0  0  0  0
    3.3107    0.7835    1.6820 C   0  0  0  0  0  0  0  0  0  0  0  0
    3.0918    0.3480   -0.6733 C   0  0  0  0  0  0  0  0  0  0  0  0
    4.5066    1.4227    1.3977 C   0  0  0  0  0  0  0  0  0  0  0  0
    4.2976    1.0067   -0.8522 C   0  0  0  0  0  0  0  0  0  0  0  0
   -1.4654   -0.3392    1.6873 H   0  0  0  0  0  0  0  0  0  0  0  0
   -2.4015   -2.2233   -0.3333 H   0  0  0  0  0  0  0  0  0  0  0  0
    0.8332    0.0454    1.5888 H   0  0  0  0  0  0  0  0  0  0  0  0
   -0.6924    1.7890    1.1858 H   0  0  0  0  0  0  0  0  0  0  0  0
   -3.5799   -0.0409   -1.4431 H   0  0  0  0  0  0  0  0  0  0  0  0
   -3.5795    1.9817   -2.8460 H   0  0  0  0  0  0  0  0  0  0  0  0
   -2.1428    3.9103   -2.2600 H   0  0  0  0  0  0  0  0  0  0  0  0
   -3.0344    0.3604    3.0903 H   0  0  0  0  0  0  0  0  0  0  0  0
   -4.6127   -0.3395    3.1094 H   0  0  0  0  0  0  0  0  0  0  0  0
    2.9526    0.7154    2.7038 H   0  0  0  0  0  0  0  0  0  0  0  0
    2.5632   -0.0393   -1.5374 H   0  0  0  0  0  0  0  0  0  0  0  0
    5.1022    1.8646    2.1898 H   0  0  0  0  0  0  0  0  0  0  0  0
    4.7249    1.1240   -1.8427 H   0  0  0  0  0  0  0  0  0  0  0  0
   -0.0345    3.8130    0.6306 H   0  0  0  0  0  0  0  0  0  0  0  0
  1 13  2  0  0  0  0
  2 14  2  0  0  0  0
  3 15  2  0  0  0  0
  4 19  1  0  0  0  0
  4 39  1  0  0  0  0
  5  9  1  0  0  0  0
  5 10  1  0  0  0  0
  5 27  1  0  0  0  0
  6 11  1  0  0  0  0
  6 18  1  0  0  0  0
  6 28  1  0  0  0  0
  7 15  1  0  0  0  0
  7 33  1  0  0  0  0
  7 34  1  0  0  0  0
  8 24  2  0  0  0  0
  8 25  1  0  0  0  0
  9 12  1  0  0  0  0
  9 15  1  0  0  0  0
  9 26  1  0  0  0  0
 10 11  2  0  0  0  0
 10 13  1  0  0  0  0
 11 14  1  0  0  0  0
 12 16  2  0  0  0  0
 12 17  1  0  0  0  0
 13 14  1  0  0  0  0
 16 19  1  0  0  0  0
 16 29  1  0  0  0  0
 17 20  2  0  0  0  0
 17 30  1  0  0  0  0
 18 22  2  0  0  0  0
 18 23  1  0  0  0  0
 19 21  2  0  0  0  0
 20 21  1  0  0  0  0
 20 31  1  0  0  0  0
 21 32  1  0  0  0  0
 22 24  1  0  0  0  0
 22 35  1  0  0  0  0
 23 25  2  0  0  0  0
 23 36  1  0  0  0  0
 24 37  1  0  0  0  0
 25 38  1  0  0  0  0
M  END
> <PUBCHEM_COMPOUND_CID>
25207521

> <PUBCHEM_CONFORMER_RMSD>
1

> <PUBCHEM_CONFORMER_DIVERSEORDER>
1
60
293
80
236
265
294
13
175
124
99
289
162
115
100
227
62
54
19
186
270
83
256
266
233
31
126
159
129
208
154
148
152
123
30
142
75
135
178
247
102
201
15
27
210
193
121
262
36
90
172
234
288
271
183
202
48
33
259
196
53
103
163
51
174
258
245
237
223
110
150
219
146
106
253
246
235
153
267
280
242
43
217
185
230
168
72
213
149
188
52
130
203
226
76
18
112
250
21
81
287
11
156
147
192
282
77
137
180
215
286
204
218
105
69
119
117
78
195
244
107
12
131
91
57
87
40
207
169
165
29
49
25
157
37
179
268
239
144
254
181
95
145
68
138
28
231
50
108
45
274
14
158
56
221
2
243
182
251
209
114
10
128
214
281
212
67
249
241
191
187
8
118
298
238
134
211
139
216
79
89
279
151
155
9
199
297
292
16
261
122
206
111
225
32
132
173
222
260
98
170
86
189
200
97
283
74
296
63
248
161
6
127
140
113
184
164
228
252
220
44
38
263
4
273
41
171
197
295
125
166
194
70
65
73
47
177
136
42
24
291
277
257
71
232
39
176
34
93
229
276
55
35
58
264
190
143
5
167
269
66
284
272
23
85
88
141
92
61
240
82
7
205
255
64
84
59
104
160
22
275
133
224
198
109
101
116
26
278
96
120
94
3
285
46
20
290
17

> <PUBCHEM_MMFF94_PARTIAL_CHARGES>
38
1 -0.57
10 0.03
11 0.03
12 -0.14
13 0.64
14 0.64
15 0.57
16 -0.15
17 -0.15
18 0.1
19 0.08
2 -0.57
20 -0.15
21 -0.15
22 -0.15
23 -0.15
24 0.16
25 0.16
27 0.4
28 0.4
29 0.15
3 -0.57
30 0.15
31 0.15
32 0.15
33 0.37
34 0.37
35 0.15
36 0.15
37 0.15
38 0.15
39 0.45
4 -0.53
5 -0.87
6 -0.6
7 -0.8
8 -0.62
9 0.57

> <PUBCHEM_EFFECTIVE_ROTOR_COUNT>
6

> <PUBCHEM_PHARMACOPHORE_FEATURES>
13
1 1 acceptor
1 2 acceptor
1 3 acceptor
1 4 donor
1 5 cation
1 5 donor
1 6 cation
1 6 donor
1 7 donor
1 8 acceptor
4 10 11 13 14 rings
6 12 16 17 19 20 21 rings
6 8 18 22 23 24 25 rings

> <PUBCHEM_HEAVY_ATOM_COUNT>
25

> <PUBCHEM_ATOM_DEF_STEREO_COUNT>
0

> <PUBCHEM_ATOM_UDEF_STEREO_COUNT>
1

> <PUBCHEM_BOND_DEF_STEREO_COUNT>
0

> <PUBCHEM_BOND_UDEF_STEREO_COUNT>
0

> <PUBCHEM_ISOTOPIC_ATOM_COUNT>
0

> <PUBCHEM_COMPONENT_COUNT>
1

> <PUBCHEM_CACTVS_TAUTO_COUNT>
66

> <PUBCHEM_CONFORMER_ID>
0180A2E100000001

> <PUBCHEM_MMFF94_ENERGY>
74.6533

> <PUBCHEM_FEATURE_SELFOVERLAP>
65.973

> <PUBCHEM_SHAPE_FINGERPRINT>
10165383 225 18129677394828523058
10498660 4 18410845586241292396
10670039 82 18260561030444007108
10906281 52 18259989245748294533
11221954 11 18118956997343612549
12035758 1 18040725762492910665
12160290 23 17699823397028100462
13140716 1 17977386362573551050
13544592 271 18335687322332036525
14223421 5 18264775359027105111
14250199 8 17765137381235762909
14468879 13 18262508192031743173
14840074 17 18044669829874241045
15575132 122 18042129906796276804
17492 54 18048279445507918967
18981168 100 18190749639112258958
20715895 44 17461418266615205853
22182313 1 18337113362963921894
22749437 52 18191011323180785076
23536364 44 17481737181661895670
23557571 272 18041009392804263749
23558518 356 17833256533228983009
23559900 14 18047463431227474902
238 59 18056176000057263484
2748010 2 18337955567227117671
3187 122 17894915139649219685
3380486 145 18335993034309962283
350125 39 18268442256360729314
469060 322 18194671790657865887
5252454 2 18201162147846128330
6049 1 18192445068968181363
621550 34 18339373967803767059
633830 44 17346605187904377608
81228 2 17765983279392697562
9709674 26 18193266395490180133
9862522 239 18337656599291657046
9925002 15 17834114529949296006
9981440 41 18122316052568904353

> <PUBCHEM_SHAPE_MULTIPOLES>
471.09
7.92
4.34
1.75
5.58
0.4
-0.45
-3.37
-2.19
-0.91
2.28
-1.09
-0.03
2.31

> <PUBCHEM_SHAPE_SELFOVERLAP>
1031.653

> <PUBCHEM_SHAPE_VOLUME>
249.7

> <PUBCHEM_COORDINATE_TYPE>
2
5
10

$$$$
