46837054
  -OEChem-10062121533D

 60 65  0     0  0  0  0  0  0999 V2000
   -1.7153    0.3601   -0.2626 S   0  0  0  0  0  0  0  0  0  0  0  0
    5.2082   -1.5288    1.6081 S   0  0  0  0  0  0  0  0  0  0  0  0
    2.9364    0.8051   -1.7446 O   0  0  0  0  0  0  0  0  0  0  0  0
   -5.6030    3.1027    0.5509 O   0  0  0  0  0  0  0  0  0  0  0  0
   -6.2384    0.9214    0.4825 O   0  0  0  0  0  0  0  0  0  0  0  0
   -7.3045   -4.7577   -0.1346 O   0  0  0  0  0  0  0  0  0  0  0  0
   -0.6883    2.8451   -0.2375 N   0  0  0  0  0  0  0  0  0  0  0  0
   -3.0400    2.5486    0.1097 N   0  0  0  0  0  0  0  0  0  0  0  0
    4.0179    0.4565    0.3084 N   0  0  0  0  0  0  0  0  0  0  0  0
    4.1521   -1.7561   -0.7340 N   0  0  0  0  0  0  0  0  0  0  0  0
   -0.7902    4.2709   -0.5557 C   0  0  0  0  0  0  0  0  0  0  0  0
    0.2127    5.0427    0.2974 C   0  0  0  0  0  0  0  0  0  0  0  0
    0.6124    2.2119   -0.4884 C   0  0  0  0  0  0  0  0  0  0  0  0
    1.7829    3.1244   -0.1894 C   0  0  0  0  0  0  0  0  0  0  0  0
    1.5995    4.4717    0.1672 C   0  0  0  0  0  0  0  0  0  0  0  0
    3.0853    2.6115   -0.2856 C   0  0  0  0  0  0  0  0  0  0  0  0
   -1.8382    2.0654   -0.1146 C   0  0  0  0  0  0  0  0  0  0  0  0
    2.7139    5.2728    0.4515 C   0  0  0  0  0  0  0  0  0  0  0  0
    4.1886    3.4204   -0.0145 C   0  0  0  0  0  0  0  0  0  0  0  0
    4.0029    4.7494    0.3567 C   0  0  0  0  0  0  0  0  0  0  0  0
    3.3411    1.2217   -0.6492 C   0  0  0  0  0  0  0  0  0  0  0  0
   -3.4070    0.2407   -0.0074 C   0  0  0  0  0  0  0  0  0  0  0  0
   -3.9380    1.5009    0.1709 C   0  0  0  0  0  0  0  0  0  0  0  0
   -4.0344   -1.0584   -0.0091 C   0  0  0  0  0  0  0  0  0  0  0  0
   -4.5221   -1.5956   -1.2003 C   0  0  0  0  0  0  0  0  0  0  0  0
   -4.1528   -1.7775    1.1803 C   0  0  0  0  0  0  0  0  0  0  0  0
   -5.3303    1.7701    0.4069 C   0  0  0  0  0  0  0  0  0  0  0  0
    4.3790   -0.9119    0.2453 C   0  0  0  0  0  0  0  0  0  0  0  0
   -5.2471   -3.5707   -0.0130 C   0  0  0  0  0  0  0  0  0  0  0  0
   -5.1286   -2.8517   -1.2024 C   0  0  0  0  0  0  0  0  0  0  0  0
   -4.7593   -3.0336    1.1784 C   0  0  0  0  0  0  0  0  0  0  0  0
    5.2870   -3.0744    0.8481 C   0  0  0  0  0  0  0  0  0  0  0  0
    4.6671   -3.0009   -0.4029 C   0  0  0  0  0  0  0  0  0  0  0  0
   -5.8959   -4.9136   -0.0152 C   0  0  0  0  0  0  0  0  0  0  0  0
    5.8562   -4.2663    1.3247 C   0  0  0  0  0  0  0  0  0  0  0  0
    4.6166   -4.1627   -1.2034 C   0  0  0  0  0  0  0  0  0  0  0  0
    5.7926   -5.4015    0.5128 C   0  0  0  0  0  0  0  0  0  0  0  0
    5.1813   -5.3526   -0.7352 C   0  0  0  0  0  0  0  0  0  0  0  0
   -1.7935    4.6670   -0.3606 H   0  0  0  0  0  0  0  0  0  0  0  0
   -0.5875    4.4188   -1.6242 H   0  0  0  0  0  0  0  0  0  0  0  0
    0.2050    6.0947   -0.0107 H   0  0  0  0  0  0  0  0  0  0  0  0
   -0.0804    4.9974    1.3536 H   0  0  0  0  0  0  0  0  0  0  0  0
    0.7396    1.3366    0.1591 H   0  0  0  0  0  0  0  0  0  0  0  0
    0.6541    1.9102   -1.5417 H   0  0  0  0  0  0  0  0  0  0  0  0
    2.5827    6.3109    0.7464 H   0  0  0  0  0  0  0  0  0  0  0  0
    5.2011    3.0312   -0.0882 H   0  0  0  0  0  0  0  0  0  0  0  0
    4.8613    5.3786    0.5728 H   0  0  0  0  0  0  0  0  0  0  0  0
    4.2925    0.9085    1.1775 H   0  0  0  0  0  0  0  0  0  0  0  0
   -4.4389   -1.0477   -2.1361 H   0  0  0  0  0  0  0  0  0  0  0  0
   -3.7792   -1.3726    2.1179 H   0  0  0  0  0  0  0  0  0  0  0  0
   -5.5057   -3.2601   -2.1363 H   0  0  0  0  0  0  0  0  0  0  0  0
   -4.8466   -3.5817    2.1127 H   0  0  0  0  0  0  0  0  0  0  0  0
   -5.6833   -5.4654    0.9068 H   0  0  0  0  0  0  0  0  0  0  0  0
   -5.5310   -5.5145   -0.8556 H   0  0  0  0  0  0  0  0  0  0  0  0
    6.3351   -4.3119    2.2980 H   0  0  0  0  0  0  0  0  0  0  0  0
    4.1415   -4.1358   -2.1800 H   0  0  0  0  0  0  0  0  0  0  0  0
   -6.5577    3.2623    0.7109 H   0  0  0  0  0  0  0  0  0  0  0  0
    6.2270   -6.3342    0.8629 H   0  0  0  0  0  0  0  0  0  0  0  0
    5.1413   -6.2457   -1.3528 H   0  0  0  0  0  0  0  0  0  0  0  0
   -7.6903   -5.6503   -0.1429 H   0  0  0  0  0  0  0  0  0  0  0  0
  1 17  1  0  0  0  0
  1 22  1  0  0  0  0
  2 28  1  0  0  0  0
  2 32  1  0  0  0  0
  3 21  2  0  0  0  0
  4 27  1  0  0  0  0
  4 57  1  0  0  0  0
  5 27  2  0  0  0  0
  6 34  1  0  0  0  0
  6 60  1  0  0  0  0
  7 11  1  0  0  0  0
  7 13  1  0  0  0  0
  7 17  1  0  0  0  0
  8 17  2  0  0  0  0
  8 23  1  0  0  0  0
  9 21  1  0  0  0  0
  9 28  1  0  0  0  0
  9 48  1  0  0  0  0
 10 28  2  0  0  0  0
 10 33  1  0  0  0  0
 11 12  1  0  0  0  0
 11 39  1  0  0  0  0
 11 40  1  0  0  0  0
 12 15  1  0  0  0  0
 12 41  1  0  0  0  0
 12 42  1  0  0  0  0
 13 14  1  0  0  0  0
 13 43  1  0  0  0  0
 13 44  1  0  0  0  0
 14 15  2  0  0  0  0
 14 16  1  0  0  0  0
 15 18  1  0  0  0  0
 16 19  2  0  0  0  0
 16 21  1  0  0  0  0
 18 20  2  0  0  0  0
 18 45  1  0  0  0  0
 19 20  1  0  0  0  0
 19 46  1  0  0  0  0
 20 47  1  0  0  0  0
 22 23  2  0  0  0  0
 22 24  1  0  0  0  0
 23 27  1  0  0  0  0
 24 25  2  0  0  0  0
 24 26  1  0  0  0  0
 25 30  1  0  0  0  0
 25 49  1  0  0  0  0
 26 31  2  0  0  0  0
 26 50  1  0  0  0  0
 29 30  2  0  0  0  0
 29 31  1  0  0  0  0
 29 34  1  0  0  0  0
 30 51  1  0  0  0  0
 31 52  1  0  0  0  0
 32 33  1  0  0  0  0
 32 35  2  0  0  0  0
 33 36  2  0  0  0  0
 34 53  1  0  0  0  0
 34 54  1  0  0  0  0
 35 37  1  0  0  0  0
 35 55  1  0  0  0  0
 36 38  1  0  0  0  0
 36 56  1  0  0  0  0
 37 38  2  0  0  0  0
 37 58  1  0  0  0  0
 38 59  1  0  0  0  0
M  END
> <PUBCHEM_COMPOUND_CID>
46837054

> <PUBCHEM_CONFORMER_RMSD>
1

> <PUBCHEM_CONFORMER_DIVERSEORDER>
1
104
52
60
93
67
113
26
36
42
80
23
77
11
58
75
96
14
30
49
17
10
81
19
57
8
56
99
50
43
21
13
47
72
55
59
92
46
61
68
74
84
20
27
88
44
110
64
71
108
70
28
87
32
48
62
65
69
18
39
54
89
78
12
109
82
53
15
29
34
63
85
103
90
6
105
106
7
100
2
40
22
31
114
83
102
76
4
35
37
38
116
25
97
41
5
115
91
98
94
24
101
16
66
51
73
86
111
33
79
9
95
3
112
107
45

> <PUBCHEM_MMFF94_PARTIAL_CHARGES>
52
1 -0.08
10 -0.57
11 0.37
12 0.14
13 0.51
14 -0.14
15 -0.14
16 0.09
17 0.46
18 -0.15
19 -0.15
2 -0.08
20 -0.15
21 0.54
22 -0.01
23 0.14
24 0.05
25 -0.15
26 -0.15
27 0.81
28 0.44
29 -0.14
3 -0.57
30 -0.15
31 -0.15
32 0.04
33 0.23
34 0.42
35 -0.15
36 -0.15
37 -0.15
38 -0.15
4 -0.65
45 0.15
46 0.15
47 0.15
48 0.37
49 0.15
5 -0.57
50 0.15
51 0.15
52 0.15
55 0.15
56 0.15
57 0.5
58 0.15
59 0.15
6 -0.68
60 0.4
7 -0.82
8 -0.57
9 -0.49

> <PUBCHEM_EFFECTIVE_ROTOR_COUNT>
7.8

> <PUBCHEM_PHARMACOPHORE_FEATURES>
14
1 3 acceptor
1 4 acceptor
1 5 acceptor
1 6 acceptor
1 6 donor
1 9 donor
3 4 5 27 anion
3 7 8 17 cation
5 1 8 17 22 23 rings
5 2 10 28 32 33 rings
6 14 15 16 18 19 20 rings
6 24 25 26 29 30 31 rings
6 32 33 35 36 37 38 rings
6 7 11 12 13 14 15 rings

> <PUBCHEM_HEAVY_ATOM_COUNT>
38

> <PUBCHEM_ATOM_DEF_STEREO_COUNT>
0

> <PUBCHEM_ATOM_UDEF_STEREO_COUNT>
0

> <PUBCHEM_BOND_DEF_STEREO_COUNT>
0

> <PUBCHEM_BOND_UDEF_STEREO_COUNT>
0

> <PUBCHEM_ISOTOPIC_ATOM_COUNT>
0

> <PUBCHEM_COMPONENT_COUNT>
1

> <PUBCHEM_CACTVS_TAUTO_COUNT>
3

> <PUBCHEM_CONFORMER_ID>
02CAAD3E00000001

> <PUBCHEM_MMFF94_ENERGY>
104.2922

> <PUBCHEM_FEATURE_SELFOVERLAP>
71.2

> <PUBCHEM_SHAPE_FINGERPRINT>
10050765 1 18411138082710849833
10100884 174 17899980431322371170
10254770 206 18120930612236468307
10622 236 18270950354221544119
10838868 229 18337121159110396779
11093857 51 17536052282837440172
11136131 41 18264761229297117936
11331860 1 18410856525402838615
117089 54 18410295830232927098
11963148 33 18409445904261084860
12107183 9 18270409274189580569
12202916 173 17479998814554568220
12608794 3 17983034262297235249
131258 38 18333447630352970974
13553639 21 18189902087478766890
15160629 178 18056200413765750087
15320291 9 18262799708342136586
15320294 125 17322965438989033516
15320467 1 18122627412049853694
15399243 27 18336837475529491882
15538507 19 18193269699117544906
17492 89 18410855490214051363
19301676 85 18265889169228978215
19301679 30 18051983812336205475
19303781 99 17822577097337552058
19311894 1 18193555571259090635
19315092 285 18058735839384298992
20609170 109 17103629521257792504
23569914 152 18051096304536601775
25222932 49 18268435822478731988
3044373 233 18044116741297594435
32027 91 18338509747079392933
3383291 50 17834109745335363025
4017518 198 17038943941698298364
437795 96 17910391680432986174
463206 1 18263369092203039872
4756088 132 18337660936787646306
49967989 163 17836096572454619318
50009960 94 18115565146112475178
56633871 153 18340489946024796169
6441014 3 18266455408790510858
7970288 3 18193274096867584786
9831232 110 17901102242435411887

> <PUBCHEM_SHAPE_MULTIPOLES>
746.32
18.25
10.88
1.11
10.82
1.81
0.01
27.96
2.29
-8.76
0.32
-0.58
0.83
-0.74

> <PUBCHEM_SHAPE_SELFOVERLAP>
1636.426

> <PUBCHEM_SHAPE_VOLUME>
404.4

> <PUBCHEM_COORDINATE_TYPE>
2
5
10

$$$$
