20135774
  -OEChem-10062121523D

 17 18  0     0  0  0  0  0  0999 V2000
   -2.7092   -1.7605    0.0000 Cl  0  0  0  0  0  0  0  0  0  0  0  0
    0.5366   -1.6756    0.0000 N   0  0  0  0  0  0  0  0  0  0  0  0
    1.8539   -1.4110    0.0001 N   0  0  0  0  0  0  0  0  0  0  0  0
    3.0342    0.6719    0.0002 N   0  0  0  0  0  0  0  0  0  0  0  0
    0.6189    0.5157   -0.0002 C   0  0  0  0  0  0  0  0  0  0  0  0
   -0.2595   -0.5622   -0.0001 C   0  0  0  0  0  0  0  0  0  0  0  0
    1.8999   -0.0769   -0.0001 C   0  0  0  0  0  0  0  0  0  0  0  0
    0.1042    1.8228   -0.0001 C   0  0  0  0  0  0  0  0  0  0  0  0
   -1.6481   -0.4131    0.0000 C   0  0  0  0  0  0  0  0  0  0  0  0
   -1.2857    1.9946    0.0001 C   0  0  0  0  0  0  0  0  0  0  0  0
   -2.1452    0.8943    0.0001 C   0  0  0  0  0  0  0  0  0  0  0  0
    0.7589    2.6890   -0.0002 H   0  0  0  0  0  0  0  0  0  0  0  0
    0.2439   -2.6447    0.0000 H   0  0  0  0  0  0  0  0  0  0  0  0
   -1.7000    2.9995    0.0002 H   0  0  0  0  0  0  0  0  0  0  0  0
   -3.2190    1.0703    0.0002 H   0  0  0  0  0  0  0  0  0  0  0  0
    3.0281    1.6874    0.0000 H   0  0  0  0  0  0  0  0  0  0  0  0
    3.9559    0.2464    0.0003 H   0  0  0  0  0  0  0  0  0  0  0  0
  1  9  1  0  0  0  0
  2  3  1  0  0  0  0
  2  6  1  0  0  0  0
  2 13  1  0  0  0  0
  3  7  2  0  0  0  0
  4  7  1  0  0  0  0
  4 16  1  0  0  0  0
  4 17  1  0  0  0  0
  5  6  2  0  0  0  0
  5  7  1  0  0  0  0
  5  8  1  0  0  0  0
  6  9  1  0  0  0  0
  8 10  2  0  0  0  0
  8 12  1  0  0  0  0
  9 11  2  0  0  0  0
 10 11  1  0  0  0  0
 10 14  1  0  0  0  0
 11 15  1  0  0  0  0
M  END
> <PUBCHEM_COMPOUND_CID>
20135774

> <PUBCHEM_CONFORMER_RMSD>
0.4

> <PUBCHEM_CONFORMER_DIVERSEORDER>
1

> <PUBCHEM_MMFF94_PARTIAL_CHARGES>
16
1 -0.18
10 -0.15
11 -0.15
12 0.15
13 0.27
14 0.15
15 0.15
16 0.4
17 0.4
2 0.3
3 -0.71
4 -0.88
6 -0.15
7 0.37
8 -0.15
9 0.18

> <PUBCHEM_EFFECTIVE_ROTOR_COUNT>
0

> <PUBCHEM_PHARMACOPHORE_FEATURES>
5
1 2 donor
1 4 donor
3 3 4 7 cation
5 2 3 5 6 7 rings
6 5 6 8 9 10 11 rings

> <PUBCHEM_HEAVY_ATOM_COUNT>
11

> <PUBCHEM_ATOM_DEF_STEREO_COUNT>
0

> <PUBCHEM_ATOM_UDEF_STEREO_COUNT>
0

> <PUBCHEM_BOND_DEF_STEREO_COUNT>
0

> <PUBCHEM_BOND_UDEF_STEREO_COUNT>
0

> <PUBCHEM_ISOTOPIC_ATOM_COUNT>
0

> <PUBCHEM_COMPONENT_COUNT>
1

> <PUBCHEM_CACTVS_TAUTO_COUNT>
5

> <PUBCHEM_CONFORMER_ID>
01333F5E00000001

> <PUBCHEM_MMFF94_ENERGY>
17.7498

> <PUBCHEM_FEATURE_SELFOVERLAP>
25.463

> <PUBCHEM_SHAPE_FINGERPRINT>
10857977 72 18339913921942622849
11206711 2 18336827588672090277
12423570 1 11684817240210355184
12524768 44 18196376918222154847
12897270 3 18411418388691181796
13380535 21 18269851821292208788
16945 1 18050285873280651206
18185500 45 18410293605602410583
193761 8 18266459793545217031
19973954 147 18339081467286798100
20871998 184 18201720652212999263
21040471 1 18050285864648674496
21501502 16 18338796706596899978
23552423 10 18261116214426481086
23559900 14 17983582893420229878
241688 4 18410291458213916313
2748010 2 18411982433782246278
369184 2 16370728097505207288
5084963 1 18058172893498627280
528886 8 18411414012172313161

> <PUBCHEM_SHAPE_MULTIPOLES>
213.3
3.56
2.16
0.6
0.54
0.3
0
-0.92
0
-0.76
0
-0.05
0.02
0

> <PUBCHEM_SHAPE_SELFOVERLAP>
461.458

> <PUBCHEM_SHAPE_VOLUME>
118.7

> <PUBCHEM_COORDINATE_TYPE>
2
5
10

$$$$
