46232443
  -OEChem-10062122033D

 34 36  0     1  0  0  0  0  0999 V2000
   -1.0290   -1.7478   -1.7560 Cl  0  0  0  0  0  0  0  0  0  0  0  0
   -3.2649    2.4698    0.8742 Cl  0  0  0  0  0  0  0  0  0  0  0  0
   -3.0260   -3.2748   -0.2436 F   0  0  0  0  0  0  0  0  0  0  0  0
   -0.4334    1.8415   -0.1015 O   0  0  0  0  0  0  0  0  0  0  0  0
    4.2351   -0.7787    1.2776 N   0  0  0  0  0  0  0  0  0  0  0  0
   -1.2699    1.2188   -1.0761 C   0  0  1  0  0  0  0  0  0  0  0  0
   -2.2282    0.2800   -0.3830 C   0  0  0  0  0  0  0  0  0  0  0  0
   -1.9980    2.2907   -1.8796 C   0  0  0  0  0  0  0  0  0  0  0  0
    0.7181    1.1975    0.2288 C   0  0  0  0  0  0  0  0  0  0  0  0
    2.8691    0.2706   -0.4079 C   0  0  0  0  0  0  0  0  0  0  0  0
   -2.1761   -1.0892   -0.6447 C   0  0  0  0  0  0  0  0  0  0  0  0
   -3.1661    0.7825    0.5191 C   0  0  0  0  0  0  0  0  0  0  0  0
    1.6780    0.9358   -0.7448 C   0  0  0  0  0  0  0  0  0  0  0  0
    3.1051   -0.1392    0.9211 C   0  0  0  0  0  0  0  0  0  0  0  0
    0.9440    0.7970    1.5398 C   0  0  0  0  0  0  0  0  0  0  0  0
    2.1282    0.1356    1.8744 C   0  0  0  0  0  0  0  0  0  0  0  0
   -3.0620   -1.9559   -0.0042 C   0  0  0  0  0  0  0  0  0  0  0  0
   -4.0519   -0.0842    1.1595 C   0  0  0  0  0  0  0  0  0  0  0  0
    3.8519   -0.0059   -1.3679 C   0  0  0  0  0  0  0  0  0  0  0  0
   -4.0000   -1.4533    0.8976 C   0  0  0  0  0  0  0  0  0  0  0  0
    5.0175   -0.6645   -1.0036 C   0  0  0  0  0  0  0  0  0  0  0  0
    5.1586   -1.0264    0.3207 C   0  0  0  0  0  0  0  0  0  0  0  0
   -0.6579    0.7040   -1.8185 H   0  0  0  0  0  0  0  0  0  0  0  0
   -1.3436    2.6123   -2.7011 H   0  0  0  0  0  0  0  0  0  0  0  0
   -2.9210    1.9230   -2.3399 H   0  0  0  0  0  0  0  0  0  0  0  0
   -2.1904    3.2155   -1.3315 H   0  0  0  0  0  0  0  0  0  0  0  0
    1.5188    1.2652   -1.7697 H   0  0  0  0  0  0  0  0  0  0  0  0
    0.2032    0.9939    2.3100 H   0  0  0  0  0  0  0  0  0  0  0  0
    2.2808   -0.1682    2.9084 H   0  0  0  0  0  0  0  0  0  0  0  0
   -4.7886    0.2911    1.8653 H   0  0  0  0  0  0  0  0  0  0  0  0
    3.7145    0.2905   -2.4053 H   0  0  0  0  0  0  0  0  0  0  0  0
   -4.6895   -2.1282    1.3961 H   0  0  0  0  0  0  0  0  0  0  0  0
    5.7877   -0.8863   -1.7329 H   0  0  0  0  0  0  0  0  0  0  0  0
    6.0485   -1.5438    0.6638 H   0  0  0  0  0  0  0  0  0  0  0  0
  1 11  1  0  0  0  0
  2 12  1  0  0  0  0
  3 17  1  0  0  0  0
  4  6  1  0  0  0  0
  4  9  1  0  0  0  0
  5 14  1  0  0  0  0
  5 22  2  0  0  0  0
  6  7  1  0  0  0  0
  6  8  1  0  0  0  0
  6 23  1  0  0  0  0
  7 11  1  0  0  0  0
  7 12  2  0  0  0  0
  8 24  1  0  0  0  0
  8 25  1  0  0  0  0
  8 26  1  0  0  0  0
  9 13  2  0  0  0  0
  9 15  1  0  0  0  0
 10 13  1  0  0  0  0
 10 14  2  0  0  0  0
 10 19  1  0  0  0  0
 11 17  2  0  0  0  0
 12 18  1  0  0  0  0
 13 27  1  0  0  0  0
 14 16  1  0  0  0  0
 15 16  2  0  0  0  0
 15 28  1  0  0  0  0
 16 29  1  0  0  0  0
 17 20  1  0  0  0  0
 18 20  2  0  0  0  0
 18 30  1  0  0  0  0
 19 21  2  0  0  0  0
 19 31  1  0  0  0  0
 20 32  1  0  0  0  0
 21 22  1  0  0  0  0
 21 33  1  0  0  0  0
 22 34  1  0  0  0  0
M  END
> <PUBCHEM_COMPOUND_CID>
46232443

> <PUBCHEM_CONFORMER_RMSD>
0.6

> <PUBCHEM_CONFORMER_DIVERSEORDER>
13
41
19
42
47
32
45
49
40
18
44
48
16
27
34
12
46
20
38
26
22
35
24
28
31
43
21
9
37
6
7
11
14
2
33
30
25
29
4
5
39
15
10
3
8
1
36
17
23

> <PUBCHEM_MMFF94_PARTIAL_CHARGES>
28
1 -0.18
11 0.18
12 0.18
13 -0.15
14 0.31
15 -0.15
16 -0.15
17 0.19
18 -0.15
19 -0.15
2 -0.18
20 -0.15
21 -0.15
22 0.16
27 0.15
28 0.15
29 0.15
3 -0.19
30 0.15
31 0.15
32 0.15
33 0.15
34 0.15
4 -0.36
5 -0.62
6 0.42
7 -0.14
9 0.08

> <PUBCHEM_EFFECTIVE_ROTOR_COUNT>
3

> <PUBCHEM_PHARMACOPHORE_FEATURES>
5
1 4 acceptor
1 5 acceptor
6 5 10 14 19 21 22 rings
6 7 11 12 17 18 20 rings
6 9 10 13 14 15 16 rings

> <PUBCHEM_HEAVY_ATOM_COUNT>
22

> <PUBCHEM_ATOM_DEF_STEREO_COUNT>
1

> <PUBCHEM_ATOM_UDEF_STEREO_COUNT>
0

> <PUBCHEM_BOND_DEF_STEREO_COUNT>
0

> <PUBCHEM_BOND_UDEF_STEREO_COUNT>
0

> <PUBCHEM_ISOTOPIC_ATOM_COUNT>
0

> <PUBCHEM_COMPONENT_COUNT>
1

> <PUBCHEM_CACTVS_TAUTO_COUNT>
1

> <PUBCHEM_CONFORMER_ID>
02C1737B0000000D

> <PUBCHEM_MMFF94_ENERGY>
76.3416

> <PUBCHEM_FEATURE_SELFOVERLAP>
25.403

> <PUBCHEM_SHAPE_FINGERPRINT>
10369192 42 17769362062009961200
11046707 91 18334294275279748785
11089746 13 11239707557972129050
11370993 144 17275388698581146498
11796584 16 18198626536878710614
12011746 2 18342174436983507805
121448 382 9655574106594606797
12553582 1 17967808396772816747
12633257 1 17059791038511321843
12670546 177 15719396139953375738
12714826 92 18408317770169765317
12788726 201 17604694578985094085
128620 24 16225766333026377380
13004483 165 15838710885487193767
13224815 77 17385715915836915816
13675066 3 17346882230353642552
13726171 33 17983050917911363764
13911987 19 14562830871081703614
14251751 93 17968656008505372198
14251764 30 17895488040910276923
15209289 33 18334297590820714235
15238133 3 16629984169032773264
15295992 7 16917068880164849433
15537594 2 18041005041723156475
16752209 62 18115847677560806733
17349148 13 11743830357140345944
17804303 29 18272376403443363569
1813 80 18113910397991269813
19422 9 18260274069981688413
200 152 16515407365084535496
20291156 8 18114742736756810357
21033648 29 16988553555298011401
21634736 98 17896043298560919892
21731516 1 18115578387279863501
22950370 63 17968669310061428939
23402539 116 16877944902290338228
23503958 8 18412546547798593819
23559900 14 18272085045483719609
23566358 27 18118132591187930372
23598288 3 17605265194890603997
2838139 119 14835573406417470785
3268164 11 11097862903613479209
465052 167 18190194553998596899
59755656 215 18130504129347518885
602551 16 18342176661507626242
6328613 192 11887675109402252706
6786 2 16377167761363463061
7970288 3 18042690679196465627
9981440 41 9655580699111203525

> <PUBCHEM_SHAPE_MULTIPOLES>
438.37
9.66
2.43
1.72
8.31
0.62
0.1
3.29
-1.45
-3.45
0.5
0.32
-0.25
0.08

> <PUBCHEM_SHAPE_SELFOVERLAP>
947.482

> <PUBCHEM_SHAPE_VOLUME>
242.7

> <PUBCHEM_COORDINATE_TYPE>
2
5
10

$$$$
