49830615
  -OEChem-10052115193D

 57 60  0     0  0  0  0  0  0999 V2000
   -0.1760   -2.3578    1.7353 F   0  0  0  0  0  0  0  0  0  0  0  0
    2.7953   -4.8655   -0.9562 F   0  0  0  0  0  0  0  0  0  0  0  0
    5.4661    2.3614    2.2455 O   0  0  0  0  0  0  0  0  0  0  0  0
   -4.8978   -0.4159    0.6800 O   0  0  0  0  0  0  0  0  0  0  0  0
   -1.8948    1.1759   -0.4601 N   0  0  0  0  0  0  0  0  0  0  0  0
    3.7694    1.6645    0.0305 N   0  0  0  0  0  0  0  0  0  0  0  0
   -2.2344   -0.9896   -0.0298 N   0  0  0  0  0  0  0  0  0  0  0  0
    1.5446    1.1237   -0.3602 N   0  0  0  0  0  0  0  0  0  0  0  0
   -4.5232    1.8377    0.2243 N   0  0  0  0  0  0  0  0  0  0  0  0
    2.7941    2.4756   -1.9154 N   0  0  0  0  0  0  0  0  0  0  0  0
    5.1753    0.9948    1.9412 C   0  0  0  0  0  0  0  0  0  0  0  0
    3.7904    0.9347    1.2788 C   0  0  0  0  0  0  0  0  0  0  0  0
   -0.7061    0.5564   -0.7210 C   0  0  0  0  0  0  0  0  0  0  0  0
   -0.9403   -0.7762   -0.4487 C   0  0  0  0  0  0  0  0  0  0  0  0
   -2.7750    0.2046   -0.0498 C   0  0  0  0  0  0  0  0  0  0  0  0
    5.1460    0.2190    3.2619 C   0  0  0  0  0  0  0  0  0  0  0  0
    6.2807    0.4453    1.0355 C   0  0  0  0  0  0  0  0  0  0  0  0
    0.4770    1.2363   -1.1774 C   0  0  0  0  0  0  0  0  0  0  0  0
    0.0215   -1.8303   -0.5754 C   0  0  0  0  0  0  0  0  0  0  0  0
   -4.1076    0.6057    0.2873 C   0  0  0  0  0  0  0  0  0  0  0  0
    2.6539    1.7588   -0.7839 C   0  0  0  0  0  0  0  0  0  0  0  0
   -2.3126    2.4940   -0.5356 C   0  0  0  0  0  0  0  0  0  0  0  0
    0.4902    1.9416   -2.3634 C   0  0  0  0  0  0  0  0  0  0  0  0
   -6.2187   -0.0205    1.0144 C   0  0  0  0  0  0  0  0  0  0  0  0
   -3.5874    2.7773   -0.1979 C   0  0  0  0  0  0  0  0  0  0  0  0
    0.3752   -2.5954    0.5361 C   0  0  0  0  0  0  0  0  0  0  0  0
    0.6049   -2.0907   -1.8155 C   0  0  0  0  0  0  0  0  0  0  0  0
    1.6881    2.5468   -2.6849 C   0  0  0  0  0  0  0  0  0  0  0  0
   -7.1786   -1.1542    0.6873 C   0  0  0  0  0  0  0  0  0  0  0  0
   -6.2704    0.3590    2.4864 C   0  0  0  0  0  0  0  0  0  0  0  0
    1.3123   -3.6206    0.4075 C   0  0  0  0  0  0  0  0  0  0  0  0
    1.5422   -3.1157   -1.9440 C   0  0  0  0  0  0  0  0  0  0  0  0
    1.8959   -3.8808   -0.8325 C   0  0  0  0  0  0  0  0  0  0  0  0
    3.0462    1.3751    1.9546 H   0  0  0  0  0  0  0  0  0  0  0  0
    3.5116   -0.1115    1.1009 H   0  0  0  0  0  0  0  0  0  0  0  0
    6.1089    0.2908    3.7807 H   0  0  0  0  0  0  0  0  0  0  0  0
    4.9176   -0.8399    3.1026 H   0  0  0  0  0  0  0  0  0  0  0  0
    4.3971    0.6380    3.9438 H   0  0  0  0  0  0  0  0  0  0  0  0
    6.0680   -0.5817    0.7215 H   0  0  0  0  0  0  0  0  0  0  0  0
    7.2455    0.4508    1.5562 H   0  0  0  0  0  0  0  0  0  0  0  0
    6.4212    1.0634    0.1428 H   0  0  0  0  0  0  0  0  0  0  0  0
    4.5867    2.1881   -0.2599 H   0  0  0  0  0  0  0  0  0  0  0  0
   -1.6117    3.2549   -0.8528 H   0  0  0  0  0  0  0  0  0  0  0  0
   -0.3702    2.0199   -3.0164 H   0  0  0  0  0  0  0  0  0  0  0  0
    6.3417    2.3954    2.6674 H   0  0  0  0  0  0  0  0  0  0  0  0
   -6.5636    0.8289    0.4109 H   0  0  0  0  0  0  0  0  0  0  0  0
   -3.9453    3.8003   -0.2432 H   0  0  0  0  0  0  0  0  0  0  0  0
    0.3377   -1.5135   -2.6976 H   0  0  0  0  0  0  0  0  0  0  0  0
    1.7954    3.1214   -3.5986 H   0  0  0  0  0  0  0  0  0  0  0  0
   -7.1221   -1.4069   -0.3771 H   0  0  0  0  0  0  0  0  0  0  0  0
   -6.9133   -2.0623    1.2401 H   0  0  0  0  0  0  0  0  0  0  0  0
   -8.2118   -0.8867    0.9289 H   0  0  0  0  0  0  0  0  0  0  0  0
   -5.5999    1.1960    2.7063 H   0  0  0  0  0  0  0  0  0  0  0  0
   -7.2837    0.6437    2.7866 H   0  0  0  0  0  0  0  0  0  0  0  0
   -5.9437   -0.4769    3.1150 H   0  0  0  0  0  0  0  0  0  0  0  0
    1.5879   -4.2161    1.2727 H   0  0  0  0  0  0  0  0  0  0  0  0
    1.9954   -3.3199   -2.9096 H   0  0  0  0  0  0  0  0  0  0  0  0
  1 26  1  0  0  0  0
  2 33  1  0  0  0  0
  3 11  1  0  0  0  0
  3 45  1  0  0  0  0
  4 20  1  0  0  0  0
  4 24  1  0  0  0  0
  5 13  1  0  0  0  0
  5 15  1  0  0  0  0
  5 22  1  0  0  0  0
  6 12  1  0  0  0  0
  6 21  1  0  0  0  0
  6 42  1  0  0  0  0
  7 14  1  0  0  0  0
  7 15  2  0  0  0  0
  8 18  2  0  0  0  0
  8 21  1  0  0  0  0
  9 20  2  0  0  0  0
  9 25  1  0  0  0  0
 10 21  2  0  0  0  0
 10 28  1  0  0  0  0
 11 12  1  0  0  0  0
 11 16  1  0  0  0  0
 11 17  1  0  0  0  0
 12 34  1  0  0  0  0
 12 35  1  0  0  0  0
 13 14  2  0  0  0  0
 13 18  1  0  0  0  0
 14 19  1  0  0  0  0
 15 20  1  0  0  0  0
 16 36  1  0  0  0  0
 16 37  1  0  0  0  0
 16 38  1  0  0  0  0
 17 39  1  0  0  0  0
 17 40  1  0  0  0  0
 17 41  1  0  0  0  0
 18 23  1  0  0  0  0
 19 26  2  0  0  0  0
 19 27  1  0  0  0  0
 22 25  2  0  0  0  0
 22 43  1  0  0  0  0
 23 28  2  0  0  0  0
 23 44  1  0  0  0  0
 24 29  1  0  0  0  0
 24 30  1  0  0  0  0
 24 46  1  0  0  0  0
 25 47  1  0  0  0  0
 26 31  1  0  0  0  0
 27 32  2  0  0  0  0
 27 48  1  0  0  0  0
 28 49  1  0  0  0  0
 29 50  1  0  0  0  0
 29 51  1  0  0  0  0
 29 52  1  0  0  0  0
 30 53  1  0  0  0  0
 30 54  1  0  0  0  0
 30 55  1  0  0  0  0
 31 33  2  0  0  0  0
 31 56  1  0  0  0  0
 32 33  1  0  0  0  0
 32 57  1  0  0  0  0
M  END
> <PUBCHEM_COMPOUND_CID>
49830615

> <PUBCHEM_CONFORMER_RMSD>
1

> <PUBCHEM_CONFORMER_DIVERSEORDER>
1
35
55
53
40
54
29
50
34
19
8
12
30
51
41
43
24
56
45
21
42
3
10
13
52
49
25
17
44
31
46
20
38
4
11
48
18
33
2
26
6
32
9
22
47
39
36
23
7
5
15
37
28
27
14
16

> <PUBCHEM_MMFF94_PARTIAL_CHARGES>
38
1 -0.19
10 -0.62
11 0.28
12 0.37
13 -0.2
14 0.17
15 0.1
18 0.36
19 0.05
2 -0.19
20 0.69
21 0.72
22 -0.18
23 -0.15
24 0.28
25 0.02
26 0.19
27 -0.15
28 0.16
3 -0.68
31 -0.15
32 -0.15
33 0.19
4 -0.43
42 0.4
43 0.15
44 0.15
45 0.4
47 0.15
48 0.15
49 0.15
5 0.33
56 0.15
57 0.15
6 -0.87
7 -0.57
8 -0.62
9 -0.62

> <PUBCHEM_EFFECTIVE_ROTOR_COUNT>
7

> <PUBCHEM_PHARMACOPHORE_FEATURES>
12
1 3 acceptor
1 3 donor
1 6 donor
1 8 acceptor
3 11 16 17 hydrophobe
3 24 29 30 hydrophobe
3 5 7 15 cation
4 6 8 10 21 cation
5 5 7 13 14 15 rings
6 19 26 27 31 32 33 rings
6 5 9 15 20 22 25 rings
6 8 10 18 21 23 28 rings

> <PUBCHEM_HEAVY_ATOM_COUNT>
33

> <PUBCHEM_ATOM_DEF_STEREO_COUNT>
0

> <PUBCHEM_ATOM_UDEF_STEREO_COUNT>
0

> <PUBCHEM_BOND_DEF_STEREO_COUNT>
0

> <PUBCHEM_BOND_UDEF_STEREO_COUNT>
0

> <PUBCHEM_ISOTOPIC_ATOM_COUNT>
0

> <PUBCHEM_COMPONENT_COUNT>
1

> <PUBCHEM_CACTVS_TAUTO_COUNT>
3

> <PUBCHEM_CONFORMER_ID>
02F85AD700000001

> <PUBCHEM_MMFF94_ENERGY>
91.5707

> <PUBCHEM_FEATURE_SELFOVERLAP>
61.014

> <PUBCHEM_SHAPE_FINGERPRINT>
11445158 3 17896598573497987885
11607047 141 16986341312977497647
12422481 6 18191286218451675594
12741549 16 16765610895451108626
12788726 201 17544764889921636806
12839892 36 18336828692700127095
13140716 1 18051426355493416557
13540713 4 18192149292251476853
13692114 37 18269557307228291663
14020679 6 17559095778586331664
14028597 1 17561091275820062971
14739800 52 17346044364049582017
15064986 96 18195791995580297850
15775530 1 17396676715568808212
16110190 28 18114168788352649168
16728300 4 17822833321626367097
16994733 274 15913330212657771377
17913733 40 18202283589392165147
1979834 28 18409732850356204594
20505436 4 17462867693644873604
20554085 129 18060426849423136568
20771845 140 18270690878257454723
21033648 29 18059000813813686858
21304304 249 17821728355590520195
21781055 127 18128842835771371568
22182313 1 18188487944152872965
22956985 138 17971470702681374202
23559900 14 18117569422987170941
23728640 28 18123456444328659354
2838139 119 15769769169847631336
3411729 13 18268986501304010008
465052 167 17313390057957063209
5104073 3 18197511627930114753
5171179 24 17547269130785924332
5265222 85 18339928220938998588
5385378 56 18201445744167522098
59755656 215 18336565866634953135
6679774 75 18260274070858070450

> <PUBCHEM_SHAPE_MULTIPOLES>
622.95
13.25
4.59
2.53
11.15
5.05
0.71
-4.71
13.17
-3.91
-2.34
-3.06
-0.88
1.47

> <PUBCHEM_SHAPE_SELFOVERLAP>
1360.177

> <PUBCHEM_SHAPE_VOLUME>
341.5

> <PUBCHEM_COORDINATE_TYPE>
2
5
10

$$$$
