24905305
  -OEChem-10052115143D

 41 44  0     1  0  0  0  0  0999 V2000
    6.2063    1.6338   -0.1095 Cl  0  0  0  0  0  0  0  0  0  0  0  0
    4.1010    1.9613    2.0114 O   0  0  0  0  0  0  0  0  0  0  0  0
   -4.6251    1.8515    1.5681 N   0  0  0  0  0  0  0  0  0  0  0  0
   -1.5211   -0.0631   -0.8968 N   0  0  0  0  0  0  0  0  0  0  0  0
   -0.3900    0.6636   -0.9612 N   0  0  0  0  0  0  0  0  0  0  0  0
   -2.2763   -2.2540   -0.1950 N   0  0  0  0  0  0  0  0  0  0  0  0
   -0.4413   -3.6038    0.6773 N   0  0  0  0  0  0  0  0  0  0  0  0
    1.8042   -2.8037    0.7989 N   0  0  0  0  0  0  0  0  0  0  0  0
   -3.3964    1.5156   -0.3692 C   0  0  1  0  0  0  0  0  0  0  0  0
   -4.7363    2.1112   -0.7967 C   0  0  0  0  0  0  0  0  0  0  0  0
   -3.7079    0.8802    0.9769 C   0  0  0  0  0  0  0  0  0  0  0  0
   -2.8179    0.5365   -1.3762 C   0  0  0  0  0  0  0  0  0  0  0  0
   -5.5402    2.2358    0.4938 C   0  0  0  0  0  0  0  0  0  0  0  0
   -1.3385   -1.3112   -0.3798 C   0  0  0  0  0  0  0  0  0  0  0  0
    0.0099   -1.4087   -0.0844 C   0  0  0  0  0  0  0  0  0  0  0  0
    0.5387   -0.1612   -0.4651 C   0  0  0  0  0  0  0  0  0  0  0  0
    1.9088    0.2759   -0.3723 C   0  0  0  0  0  0  0  0  0  0  0  0
    0.4522   -2.6082    0.4636 C   0  0  0  0  0  0  0  0  0  0  0  0
   -1.7316   -3.3682    0.3396 C   0  0  0  0  0  0  0  0  0  0  0  0
    2.3604    0.9158    0.7820 C   0  0  0  0  0  0  0  0  0  0  0  0
    2.7836    0.0589   -1.4369 C   0  0  0  0  0  0  0  0  0  0  0  0
    3.6866    1.3387    0.8717 C   0  0  0  0  0  0  0  0  0  0  0  0
    4.1098    0.4816   -1.3473 C   0  0  0  0  0  0  0  0  0  0  0  0
    4.5612    1.1215   -0.1930 C   0  0  0  0  0  0  0  0  0  0  0  0
   -2.6833    2.3382   -0.2134 H   0  0  0  0  0  0  0  0  0  0  0  0
   -5.2633    1.4646   -1.5075 H   0  0  0  0  0  0  0  0  0  0  0  0
   -4.5881    3.0860   -1.2741 H   0  0  0  0  0  0  0  0  0  0  0  0
   -4.2044   -0.0918    0.8743 H   0  0  0  0  0  0  0  0  0  0  0  0
   -2.8167    0.7509    1.5986 H   0  0  0  0  0  0  0  0  0  0  0  0
   -2.5807    1.0236   -2.3286 H   0  0  0  0  0  0  0  0  0  0  0  0
   -3.4902   -0.3051   -1.5753 H   0  0  0  0  0  0  0  0  0  0  0  0
   -5.9220    3.2509    0.6414 H   0  0  0  0  0  0  0  0  0  0  0  0
   -6.3992    1.5558    0.4758 H   0  0  0  0  0  0  0  0  0  0  0  0
   -4.0895    2.6750    1.8462 H   0  0  0  0  0  0  0  0  0  0  0  0
    1.6788    1.0851    1.6132 H   0  0  0  0  0  0  0  0  0  0  0  0
   -2.4201   -4.1858    0.5243 H   0  0  0  0  0  0  0  0  0  0  0  0
    2.4473   -0.4391   -2.3433 H   0  0  0  0  0  0  0  0  0  0  0  0
    2.4926   -2.0805    0.6510 H   0  0  0  0  0  0  0  0  0  0  0  0
    2.0833   -3.6912    1.1949 H   0  0  0  0  0  0  0  0  0  0  0  0
    4.7791    0.3050   -2.1854 H   0  0  0  0  0  0  0  0  0  0  0  0
    3.3553    2.0199    2.6331 H   0  0  0  0  0  0  0  0  0  0  0  0
  1 24  1  0  0  0  0
  2 22  1  0  0  0  0
  2 41  1  0  0  0  0
  3 11  1  0  0  0  0
  3 13  1  0  0  0  0
  3 34  1  0  0  0  0
  4  5  1  0  0  0  0
  4 12  1  0  0  0  0
  4 14  1  0  0  0  0
  5 16  2  0  0  0  0
  6 14  2  0  0  0  0
  6 19  1  0  0  0  0
  7 18  1  0  0  0  0
  7 19  2  0  0  0  0
  8 18  1  0  0  0  0
  8 38  1  0  0  0  0
  8 39  1  0  0  0  0
  9 10  1  0  0  0  0
  9 11  1  0  0  0  0
  9 12  1  0  0  0  0
  9 25  1  0  0  0  0
 10 13  1  0  0  0  0
 10 26  1  0  0  0  0
 10 27  1  0  0  0  0
 11 28  1  0  0  0  0
 11 29  1  0  0  0  0
 12 30  1  0  0  0  0
 12 31  1  0  0  0  0
 13 32  1  0  0  0  0
 13 33  1  0  0  0  0
 14 15  1  0  0  0  0
 15 16  1  0  0  0  0
 15 18  2  0  0  0  0
 16 17  1  0  0  0  0
 17 20  2  0  0  0  0
 17 21  1  0  0  0  0
 19 36  1  0  0  0  0
 20 22  1  0  0  0  0
 20 35  1  0  0  0  0
 21 23  2  0  0  0  0
 21 37  1  0  0  0  0
 22 24  2  0  0  0  0
 23 24  1  0  0  0  0
 23 40  1  0  0  0  0
M  END
> <PUBCHEM_COMPOUND_CID>
24905305

> <PUBCHEM_CONFORMER_RMSD>
0.8

> <PUBCHEM_CONFORMER_DIVERSEORDER>
1
6
24
25
30
18
9
23
20
8
29
17
31
26
13
4
27
21
28
2
7
22
15
12
5
14
16
19
3
10
11

> <PUBCHEM_MMFF94_PARTIAL_CHARGES>
29
1 -0.18
11 0.27
12 0.26
13 0.27
14 0.11
16 0.23
17 0.05
18 0.41
19 0.47
2 -0.53
20 -0.15
21 -0.15
22 0.08
23 -0.15
24 0.18
3 -0.9
34 0.36
35 0.15
36 0.15
37 0.15
38 0.4
39 0.4
4 0.31
40 0.15
41 0.45
5 -0.71
6 -0.57
7 -0.62
8 -0.9

> <PUBCHEM_EFFECTIVE_ROTOR_COUNT>
4

> <PUBCHEM_PHARMACOPHORE_FEATURES>
12
1 2 donor
1 3 cation
1 3 donor
1 5 acceptor
1 8 cation
1 8 donor
3 4 6 14 cation
3 6 7 19 cation
5 3 9 10 11 13 rings
5 4 5 14 15 16 rings
6 17 20 21 22 23 24 rings
6 6 7 14 15 18 19 rings

> <PUBCHEM_HEAVY_ATOM_COUNT>
24

> <PUBCHEM_ATOM_DEF_STEREO_COUNT>
0

> <PUBCHEM_ATOM_UDEF_STEREO_COUNT>
1

> <PUBCHEM_BOND_DEF_STEREO_COUNT>
0

> <PUBCHEM_BOND_UDEF_STEREO_COUNT>
0

> <PUBCHEM_ISOTOPIC_ATOM_COUNT>
0

> <PUBCHEM_COMPONENT_COUNT>
1

> <PUBCHEM_CACTVS_TAUTO_COUNT>
15

> <PUBCHEM_CONFORMER_ID>
017C065900000001

> <PUBCHEM_MMFF94_ENERGY>
54.9122

> <PUBCHEM_FEATURE_SELFOVERLAP>
61.177

> <PUBCHEM_SHAPE_FINGERPRINT>
10165383 225 18335710407422602133
10493431 412 18335707139226491077
1100329 8 18264765450638650746
11796584 16 18411140252070163758
12107183 9 18261379011381439888
12390115 104 18411145761304935309
12403259 118 17313109644222572685
12422481 6 17750219336445490098
12623949 98 13118285824151461304
12633257 1 18263064643958543700
12788726 201 17757001359993467063
13140716 1 18261950735289161867
13540713 5 18265313080549248167
13878862 14 17758100511704444445
13965767 371 18042106700892641172
14178342 30 18262234542269252510
16992727 255 12534251601670381203
17913733 40 18337968787558318507
18785283 64 18043252344685087122
19784866 34 18411981321723404573
204376 136 18335704910360023437
20510252 161 18122341551742287059
20739085 24 17899147022238709957
21033648 29 18337382756092971893
21756936 100 18342454863349998709
21796203 349 17400385355652724043
22079108 93 18342744018345503825
22182937 141 18341895250776109409
22224240 67 18408893923691424505
23557571 272 18269560610136510276
23558518 356 17900265504647224972
23559900 14 18411984681199947460
23845131 108 18334579006506711187
25147074 1 18336528461491192647
283562 15 18120365716753000139
2838139 119 17418372476065116976
3380486 145 17119720112735287559
38570 142 18130239150760235433
427121 178 18337118869000991703
458136 41 18263087613142494895
469060 322 18187652466024583875
495365 180 18117835496037026141
5104073 3 18333449828743197938
5265222 85 18049456022493321318
57527295 17 17917705825391414814
57527585 21 17624683948906170268
58807428 26 18187356615001413162
59755656 520 18411136930820468054
633830 44 18273209781322322541
6442390 28 18336838536791958927
7226269 152 18201718449243306432
7808743 9 18262523705564730772
81228 2 17972315393513979719
9658208 31 18338532883809409487
9862522 239 17894619349509192317

> <PUBCHEM_SHAPE_MULTIPOLES>
460.02
11.26
3.59
1.35
2.32
3.87
-0.15
-12.84
-1.34
-2.39
-1.18
0.3
-0.56
0.17

> <PUBCHEM_SHAPE_SELFOVERLAP>
1003.76

> <PUBCHEM_SHAPE_VOLUME>
252.5

> <PUBCHEM_COORDINATE_TYPE>
2
5
10

$$$$
