9885748
  -OEChem-10062121593D

 38 40  0     0  0  0  0  0  0999 V2000
   -3.5782   -2.0448   -0.8309 F   0  0  0  0  0  0  0  0  0  0  0  0
    3.5408   -2.0616   -0.7542 F   0  0  0  0  0  0  0  0  0  0  0  0
    0.0002    1.2017   -2.0937 O   0  0  0  0  0  0  0  0  0  0  0  0
    0.0028   -0.6171    1.6063 N   0  0  0  0  0  0  0  0  0  0  0  0
   -1.1932    0.1542    1.2662 C   0  0  0  0  0  0  0  0  0  0  0  0
    1.1986    0.1535    1.2643 C   0  0  0  0  0  0  0  0  0  0  0  0
   -1.2631    0.4871   -0.1964 C   0  0  0  0  0  0  0  0  0  0  0  0
    1.2661    0.4865   -0.1986 C   0  0  0  0  0  0  0  0  0  0  0  0
    0.0010    0.7707   -0.9451 C   0  0  0  0  0  0  0  0  0  0  0  0
   -2.4191    0.5195   -0.8750 C   0  0  0  0  0  0  0  0  0  0  0  0
    2.4209    0.5173   -0.8794 C   0  0  0  0  0  0  0  0  0  0  0  0
   -3.7531    0.2681   -0.3089 C   0  0  0  0  0  0  0  0  0  0  0  0
    3.7557    0.2652   -0.3156 C   0  0  0  0  0  0  0  0  0  0  0  0
   -4.2708   -1.0185   -0.3157 C   0  0  0  0  0  0  0  0  0  0  0  0
    4.2539   -1.0288   -0.2820 C   0  0  0  0  0  0  0  0  0  0  0  0
   -4.4723    1.3277    0.2243 C   0  0  0  0  0  0  0  0  0  0  0  0
    4.4956    1.3314    0.1741 C   0  0  0  0  0  0  0  0  0  0  0  0
   -5.5363   -1.2510    0.2228 C   0  0  0  0  0  0  0  0  0  0  0  0
    5.5206   -1.2619    0.2535 C   0  0  0  0  0  0  0  0  0  0  0  0
   -5.7378    1.0952    0.7628 C   0  0  0  0  0  0  0  0  0  0  0  0
    5.7623    1.0983    0.7096 C   0  0  0  0  0  0  0  0  0  0  0  0
   -6.2698   -0.1942    0.7621 C   0  0  0  0  0  0  0  0  0  0  0  0
    6.2748   -0.1984    0.7494 C   0  0  0  0  0  0  0  0  0  0  0  0
   -1.2201    1.0819    1.8523 H   0  0  0  0  0  0  0  0  0  0  0  0
   -2.0527   -0.4433    1.5859 H   0  0  0  0  0  0  0  0  0  0  0  0
    2.0582   -0.4439    1.5835 H   0  0  0  0  0  0  0  0  0  0  0  0
    1.2266    1.0814    1.8500 H   0  0  0  0  0  0  0  0  0  0  0  0
    0.0036   -0.8086    2.6081 H   0  0  0  0  0  0  0  0  0  0  0  0
   -2.4388    0.7491   -1.9381 H   0  0  0  0  0  0  0  0  0  0  0  0
    2.4391    0.7492   -1.9420 H   0  0  0  0  0  0  0  0  0  0  0  0
   -4.0693    2.3371    0.2310 H   0  0  0  0  0  0  0  0  0  0  0  0
    4.1079    2.3465    0.1490 H   0  0  0  0  0  0  0  0  0  0  0  0
   -5.9504   -2.2550    0.2221 H   0  0  0  0  0  0  0  0  0  0  0  0
    5.9193   -2.2715    0.2846 H   0  0  0  0  0  0  0  0  0  0  0  0
   -6.3089    1.9180    1.1828 H   0  0  0  0  0  0  0  0  0  0  0  0
    6.3495    1.9263    1.0958 H   0  0  0  0  0  0  0  0  0  0  0  0
   -7.2551   -0.3754    1.1814 H   0  0  0  0  0  0  0  0  0  0  0  0
    7.2610   -0.3800    1.1663 H   0  0  0  0  0  0  0  0  0  0  0  0
  1 14  1  0  0  0  0
  2 15  1  0  0  0  0
  3  9  2  0  0  0  0
  4  5  1  0  0  0  0
  4  6  1  0  0  0  0
  4 28  1  0  0  0  0
  5  7  1  0  0  0  0
  5 24  1  0  0  0  0
  5 25  1  0  0  0  0
  6  8  1  0  0  0  0
  6 26  1  0  0  0  0
  6 27  1  0  0  0  0
  7  9  1  0  0  0  0
  7 10  2  0  0  0  0
  8  9  1  0  0  0  0
  8 11  2  0  0  0  0
 10 12  1  0  0  0  0
 10 29  1  0  0  0  0
 11 13  1  0  0  0  0
 11 30  1  0  0  0  0
 12 14  1  0  0  0  0
 12 16  2  0  0  0  0
 13 15  1  0  0  0  0
 13 17  2  0  0  0  0
 14 18  2  0  0  0  0
 15 19  2  0  0  0  0
 16 20  1  0  0  0  0
 16 31  1  0  0  0  0
 17 21  1  0  0  0  0
 17 32  1  0  0  0  0
 18 22  1  0  0  0  0
 18 33  1  0  0  0  0
 19 23  1  0  0  0  0
 19 34  1  0  0  0  0
 20 22  2  0  0  0  0
 20 35  1  0  0  0  0
 21 23  2  0  0  0  0
 21 36  1  0  0  0  0
 22 37  1  0  0  0  0
 23 38  1  0  0  0  0
M  END
> <PUBCHEM_COMPOUND_CID>
9885748

> <PUBCHEM_CONFORMER_RMSD>
0.6

> <PUBCHEM_CONFORMER_DIVERSEORDER>
1
7
2
6
8
3
4
5

> <PUBCHEM_MMFF94_PARTIAL_CHARGES>
34
1 -0.19
10 -0.18
11 -0.18
12 0.03
13 0.03
14 0.19
15 0.19
16 -0.15
17 -0.15
18 -0.15
19 -0.15
2 -0.19
20 -0.15
21 -0.15
22 -0.15
23 -0.15
28 0.36
29 0.15
3 -0.57
30 0.15
31 0.15
32 0.15
33 0.15
34 0.15
35 0.15
36 0.15
37 0.15
38 0.15
4 -0.9
5 0.41
6 0.41
7 -0.12
8 -0.12
9 0.54

> <PUBCHEM_EFFECTIVE_ROTOR_COUNT>
2.6

> <PUBCHEM_PHARMACOPHORE_FEATURES>
6
1 3 acceptor
1 4 cation
1 4 donor
6 12 14 16 18 20 22 rings
6 13 15 17 19 21 23 rings
6 4 5 6 7 8 9 rings

> <PUBCHEM_HEAVY_ATOM_COUNT>
23

> <PUBCHEM_ATOM_DEF_STEREO_COUNT>
0

> <PUBCHEM_ATOM_UDEF_STEREO_COUNT>
0

> <PUBCHEM_BOND_DEF_STEREO_COUNT>
2

> <PUBCHEM_BOND_UDEF_STEREO_COUNT>
0

> <PUBCHEM_ISOTOPIC_ATOM_COUNT>
0

> <PUBCHEM_COMPONENT_COUNT>
1

> <PUBCHEM_CACTVS_TAUTO_COUNT>
1

> <PUBCHEM_CONFORMER_ID>
0096D83400000001

> <PUBCHEM_MMFF94_ENERGY>
62.8999

> <PUBCHEM_FEATURE_SELFOVERLAP>
30.446

> <PUBCHEM_SHAPE_FINGERPRINT>
11089746 13 10231756686676992294
11287383 113 18413107273143377128
11315181 36 18410574016049944865
11646440 116 17531254954016793121
11796584 16 18060703879166926335
12107183 9 17552086095268425120
12166972 35 14418138413346579782
12236239 1 18260551134575514781
12507557 5 14476957917951735599
12516196 113 18260830410181011700
12596602 18 17704071806645970746
12616971 3 17676491674233510045
12788726 201 16200159754860804922
12916748 109 17167863054280986316
13533116 47 17989208106144168102
13583140 156 17774709892417520340
13668630 136 14996003224802758640
13862211 1 16732982033076667273
1420 363 16950002534502904393
14251764 18 17060620010623538459
14294032 229 15431707694000491165
14341114 176 18202287991401600033
14528608 73 9871747983613710660
14849402 71 18191873525039278948
15142383 8 17917991633573531992
15183329 4 18409730651333130819
15348495 7 17917424380062529346
15788980 27 18410015442124651873
17349148 13 16443066080019610196
17844677 252 18341900683667509521
1813 80 17603311431441871885
19141452 34 18334296495635656382
21150785 3 14056726746884765798
21267235 1 16950287294971366809
21781051 124 15430620371363215752
220451 1 18411985771314583758
23035841 295 17458065971773166323
23402539 116 17748821908352870429
23522609 53 17678768677153529524
23536379 177 18342176652469285841
23559900 14 18201994464825674664
23569914 2 17550893296894555976
23569943 247 17678450853631073450
239999 70 17989495095974880070
3004659 81 18343306942439470174
4072396 5 15769776801650542373
4073 2 18334579096321170842
4340502 62 18131070437596314822
5104073 3 18270674248017211608
59755656 215 16226044466581927082
7226269 152 16702305637693230867
7495541 125 17917427678476346737

> <PUBCHEM_SHAPE_MULTIPOLES>
447.93
16.44
1.51
1.26
0.03
0.44
0.05
2.04
-3.53
0.02
0.26
-0.04
-0.13
-0.06

> <PUBCHEM_SHAPE_SELFOVERLAP>
977.995

> <PUBCHEM_SHAPE_VOLUME>
243.2

> <PUBCHEM_COORDINATE_TYPE>
2
5
10

$$$$
