456214
  -OEChem-10052120443D

 52 54  0     1  0  0  0  0  0999 V2000
    5.0070    0.0791    1.4119 Cl  0  0  0  0  0  0  0  0  0  0  0  0
    0.7312   -4.1659    2.0653 O   0  0  0  0  0  0  0  0  0  0  0  0
   -0.3296   -2.4450    0.1355 N   0  0  0  0  0  0  0  0  0  0  0  0
   -3.8266    0.7687    0.0266 N   0  0  0  0  0  0  0  0  0  0  0  0
   -2.1868   -1.0224    0.0855 N   0  0  0  0  0  0  0  0  0  0  0  0
    0.0891   -0.1415    0.0618 N   0  0  0  0  0  0  0  0  0  0  0  0
   -2.4646    2.5327   -0.0272 N   0  0  0  0  0  0  0  0  0  0  0  0
    0.5584    2.2041   -0.0101 N   0  0  0  0  0  0  0  0  0  0  0  0
    1.0892   -2.7534    0.1460 C   0  0  2  0  0  0  0  0  0  0  0  0
    1.6806   -2.6346   -1.2782 C   0  0  0  0  0  0  0  0  0  0  0  0
    1.2953   -4.1414    0.7577 C   0  0  0  0  0  0  0  0  0  0  0  0
    3.1909   -2.8971   -1.2794 C   0  0  0  0  0  0  0  0  0  0  0  0
    0.9957   -3.5358   -2.3106 C   0  0  0  0  0  0  0  0  0  0  0  0
   -5.0555    0.0129    0.0473 C   0  0  0  0  0  0  0  0  0  0  0  0
   -2.5565    0.2664    0.0445 C   0  0  0  0  0  0  0  0  0  0  0  0
   -0.8282   -1.1577    0.0920 C   0  0  0  0  0  0  0  0  0  0  0  0
   -1.7271    1.3760    0.0110 C   0  0  0  0  0  0  0  0  0  0  0  0
   -0.3566    1.1373    0.0212 C   0  0  0  0  0  0  0  0  0  0  0  0
   -3.7193    2.1334   -0.0172 C   0  0  0  0  0  0  0  0  0  0  0  0
   -5.8754    0.2181   -1.2281 C   0  0  0  0  0  0  0  0  0  0  0  0
   -5.8829    0.2998    1.3016 C   0  0  0  0  0  0  0  0  0  0  0  0
    1.9690    2.2573   -0.0099 C   0  0  0  0  0  0  0  0  0  0  0  0
    2.7042    1.2585    0.6272 C   0  0  0  0  0  0  0  0  0  0  0  0
    2.6254    3.3099   -0.6466 C   0  0  0  0  0  0  0  0  0  0  0  0
    4.0980    1.3122    0.6276 C   0  0  0  0  0  0  0  0  0  0  0  0
    4.0192    3.3637   -0.6461 C   0  0  0  0  0  0  0  0  0  0  0  0
    4.7555    2.3647   -0.0091 C   0  0  0  0  0  0  0  0  0  0  0  0
    1.6000   -2.0441    0.8114 H   0  0  0  0  0  0  0  0  0  0  0  0
    1.5415   -1.6011   -1.6211 H   0  0  0  0  0  0  0  0  0  0  0  0
   -1.0024   -3.2027    0.1124 H   0  0  0  0  0  0  0  0  0  0  0  0
    2.3565   -4.3873    0.8525 H   0  0  0  0  0  0  0  0  0  0  0  0
    0.8000   -4.9220    0.1720 H   0  0  0  0  0  0  0  0  0  0  0  0
   -4.7767   -1.0479    0.0824 H   0  0  0  0  0  0  0  0  0  0  0  0
    3.6214   -2.6317   -2.2514 H   0  0  0  0  0  0  0  0  0  0  0  0
    3.4261   -3.9502   -1.0967 H   0  0  0  0  0  0  0  0  0  0  0  0
    3.6945   -2.2918   -0.5191 H   0  0  0  0  0  0  0  0  0  0  0  0
   -0.0790   -3.3379   -2.3676 H   0  0  0  0  0  0  0  0  0  0  0  0
    1.4124   -3.3560   -3.3080 H   0  0  0  0  0  0  0  0  0  0  0  0
    1.1378   -4.5969   -2.0835 H   0  0  0  0  0  0  0  0  0  0  0  0
   -4.5818    2.7856   -0.0400 H   0  0  0  0  0  0  0  0  0  0  0  0
   -6.2288    1.2510   -1.3194 H   0  0  0  0  0  0  0  0  0  0  0  0
   -6.7521   -0.4380   -1.2335 H   0  0  0  0  0  0  0  0  0  0  0  0
   -5.2778   -0.0095   -2.1178 H   0  0  0  0  0  0  0  0  0  0  0  0
   -5.2908    0.1303    2.2077 H   0  0  0  0  0  0  0  0  0  0  0  0
   -6.7597   -0.3549    1.3441 H   0  0  0  0  0  0  0  0  0  0  0  0
   -6.2368    1.3363    1.3240 H   0  0  0  0  0  0  0  0  0  0  0  0
    0.8797   -5.0579    2.4231 H   0  0  0  0  0  0  0  0  0  0  0  0
    0.1197    3.1064   -0.1733 H   0  0  0  0  0  0  0  0  0  0  0  0
    2.2145    0.4486    1.1593 H   0  0  0  0  0  0  0  0  0  0  0  0
    2.0633    4.0940   -1.1474 H   0  0  0  0  0  0  0  0  0  0  0  0
    4.5313    4.1831   -1.1422 H   0  0  0  0  0  0  0  0  0  0  0  0
    5.8411    2.4194   -0.0172 H   0  0  0  0  0  0  0  0  0  0  0  0
  1 25  1  0  0  0  0
  2 11  1  0  0  0  0
  2 47  1  0  0  0  0
  3  9  1  0  0  0  0
  3 16  1  0  0  0  0
  3 30  1  0  0  0  0
  4 14  1  0  0  0  0
  4 15  1  0  0  0  0
  4 19  1  0  0  0  0
  5 15  2  0  0  0  0
  5 16  1  0  0  0  0
  6 16  2  0  0  0  0
  6 18  1  0  0  0  0
  7 17  1  0  0  0  0
  7 19  2  0  0  0  0
  8 18  1  0  0  0  0
  8 22  1  0  0  0  0
  8 48  1  0  0  0  0
  9 10  1  0  0  0  0
  9 11  1  0  0  0  0
  9 28  1  0  0  0  0
 10 12  1  0  0  0  0
 10 13  1  0  0  0  0
 10 29  1  0  0  0  0
 11 31  1  0  0  0  0
 11 32  1  0  0  0  0
 12 34  1  0  0  0  0
 12 35  1  0  0  0  0
 12 36  1  0  0  0  0
 13 37  1  0  0  0  0
 13 38  1  0  0  0  0
 13 39  1  0  0  0  0
 14 20  1  0  0  0  0
 14 21  1  0  0  0  0
 14 33  1  0  0  0  0
 15 17  1  0  0  0  0
 17 18  2  0  0  0  0
 19 40  1  0  0  0  0
 20 41  1  0  0  0  0
 20 42  1  0  0  0  0
 20 43  1  0  0  0  0
 21 44  1  0  0  0  0
 21 45  1  0  0  0  0
 21 46  1  0  0  0  0
 22 23  2  0  0  0  0
 22 24  1  0  0  0  0
 23 25  1  0  0  0  0
 23 49  1  0  0  0  0
 24 26  2  0  0  0  0
 24 50  1  0  0  0  0
 25 27  2  0  0  0  0
 26 27  1  0  0  0  0
 26 51  1  0  0  0  0
 27 52  1  0  0  0  0
M  END
> <PUBCHEM_COMPOUND_CID>
456214

> <PUBCHEM_CONFORMER_RMSD>
0.8

> <PUBCHEM_CONFORMER_DIVERSEORDER>
1
306
283
87
241
141
175
278
223
232
33
215
298
282
135
277
233
260
45
292
216
134
59
75
269
92
303
112
211
146
7
174
226
206
305
218
143
302
99
36
153
96
296
185
257
251
179
167
187
71
300
289
155
205
183
69
236
308
181
194
150
234
190
212
309
106
162
265
111
242
139
273
164
157
132
168
101
266
182
213
160
220
186
38
204
268
129
224
184
12
197
148
116
110
307
235
152
180
24
40
263
169
255
258
86
118
275
74
231
249
271
259
76
119
193
237
173
248
94
209
68
125
133
159
214
207
161
222
225
30
55
65
43
243
83
102
107
170
254
210
117
39
21
104
41
131
113
53
105
202
165
98
80
85
270
52
244
109
89
22
228
172
130
229
195
238
279
301
239
124
188
250
82
208
287
267
73
61
200
79
32
29
127
294
171
286
44
140
100
20
120
57
217
264
189
97
62
25
253
58
11
115
166
246
122
17
203
128
67
304
240
90
156
63
227
247
126
13
151
2
142
192
16
196
288
158
28
291
121
178
201
35
54
37
10
64
252
47
31
138
145
230
290
297
154
274
198
15
295
103
4
26
245
221
14
285
280
163
95
88
123
72
261
284
177
256
49
219
299
191
48
56
176
27
91
199
77
70
262
60
293
3
6
137
144
84
51
19
272
147
8
114
149
42
81
93
23
276
78
9
66
108
46
18
136
281
50
34
5

> <PUBCHEM_MMFF94_PARTIAL_CHARGES>
30
1 -0.18
11 0.28
14 0.26
15 0.11
16 0.72
17 0.23
18 0.41
19 0.04
2 -0.68
22 0.1
23 -0.15
24 -0.15
25 0.18
26 -0.15
27 -0.15
3 -0.87
30 0.4
4 0.05
40 0.15
47 0.4
48 0.4
49 0.15
5 -0.57
50 0.15
51 0.15
52 0.15
6 -0.62
7 -0.57
8 -0.6
9 0.37

> <PUBCHEM_EFFECTIVE_ROTOR_COUNT>
7

> <PUBCHEM_PHARMACOPHORE_FEATURES>
12
1 2 acceptor
1 2 donor
1 3 donor
1 8 cation
1 8 donor
3 10 12 13 hydrophobe
3 14 20 21 hydrophobe
3 4 7 19 cation
4 3 5 6 16 cation
5 4 7 15 17 19 rings
6 22 23 24 25 26 27 rings
6 5 6 15 16 17 18 rings

> <PUBCHEM_HEAVY_ATOM_COUNT>
27

> <PUBCHEM_ATOM_DEF_STEREO_COUNT>
1

> <PUBCHEM_ATOM_UDEF_STEREO_COUNT>
0

> <PUBCHEM_BOND_DEF_STEREO_COUNT>
0

> <PUBCHEM_BOND_UDEF_STEREO_COUNT>
0

> <PUBCHEM_ISOTOPIC_ATOM_COUNT>
0

> <PUBCHEM_COMPONENT_COUNT>
1

> <PUBCHEM_CACTVS_TAUTO_COUNT>
9

> <PUBCHEM_CONFORMER_ID>
0006F61600000001

> <PUBCHEM_MMFF94_ENERGY>
66.0478

> <PUBCHEM_FEATURE_SELFOVERLAP>
61.03

> <PUBCHEM_SHAPE_FINGERPRINT>
10050765 1 18266177241708484969
10090160 65 18410567414231562845
10616163 171 17976824512896804040
12592029 89 18410295804499312905
12788726 201 17693086783652106814
13140716 1 18267022954521774433
133893 2 18127711343178104912
13402501 40 18270120094510395934
138480 1 18049440344876344074
14790565 3 18265618860903889009
15403338 16 17387388191529070506
15664445 248 17983589502420083751
15927050 60 18340774844154031183
20028762 73 18055914535897784695
20642791 35 17981611459373442228
21197605 99 18267869565268928651
21781055 127 17988099841415670232
22182313 1 18114177472544426389
22956985 138 18116424835008249834
23366157 5 18189620440908006913
23559900 14 18269835302948546621
23598288 3 17615417291029758292
3298306 158 18341336668836050892
3411729 13 18340775862398253785
352729 6 18265905846085984217
4017518 198 18059858398761231182
469060 322 12830876967942768400
5265222 85 18194694884971700068
532947 4 18339928121341925644
59755656 215 18335979792440797389
6376802 90 17822000992579310493

> <PUBCHEM_SHAPE_MULTIPOLES>
521.76
10.72
5.52
1.35
10.32
4.93
-0.11
-7.59
1.08
-6.21
-0.69
-0.47
1.5
0.12

> <PUBCHEM_SHAPE_SELFOVERLAP>
1093.922

> <PUBCHEM_SHAPE_VOLUME>
296.2

> <PUBCHEM_COORDINATE_TYPE>
2
5
10

$$$$
