10286133
  -OEChem-10052115173D

 29 30  0     0  0  0  0  0  0999 V2000
    3.0943   -0.9279   -0.8402 S   0  0  0  0  0  0  0  0  0  0  0  0
   -0.6387    0.2269    1.6661 O   0  0  0  0  0  0  0  0  0  0  0  0
    6.2947    1.1168   -0.0784 O   0  5  0  0  0  0  0  0  0  0  0  0
    5.9030   -0.5164   -1.4986 O   0  0  0  0  0  0  0  0  0  0  0  0
   -1.5743   -1.4621    0.3985 N   0  0  0  0  0  0  0  0  0  0  0  0
    0.6364   -0.9388    0.0694 N   0  0  0  0  0  0  0  0  0  0  0  0
    2.1943    0.6446    1.0038 N   0  0  0  0  0  0  0  0  0  0  0  0
    5.5073    0.2728   -0.5938 N   0  3  0  0  0  0  0  0  0  0  0  0
   -2.8947   -1.3833    0.9700 C   0  0  0  0  0  0  0  0  0  0  0  0
   -3.7754   -0.4314    0.2334 C   0  0  0  0  0  0  0  0  0  0  0  0
   -3.8210    0.9110    0.6104 C   0  0  0  0  0  0  0  0  0  0  0  0
   -4.5532   -0.8830   -0.8328 C   0  0  0  0  0  0  0  0  0  0  0  0
   -0.5168   -0.6321    0.7963 C   0  0  0  0  0  0  0  0  0  0  0  0
   -4.6445    1.8014   -0.0785 C   0  0  0  0  0  0  0  0  0  0  0  0
   -5.3766    0.0077   -1.5218 C   0  0  0  0  0  0  0  0  0  0  0  0
    1.8827   -0.3214    0.1940 C   0  0  0  0  0  0  0  0  0  0  0  0
   -5.4221    1.3499   -1.1446 C   0  0  0  0  0  0  0  0  0  0  0  0
    4.1794    0.2106   -0.1563 C   0  0  0  0  0  0  0  0  0  0  0  0
    3.5251    0.9547    0.8031 C   0  0  0  0  0  0  0  0  0  0  0  0
   -2.8185   -1.0965    2.0257 H   0  0  0  0  0  0  0  0  0  0  0  0
   -3.3190   -2.3938    0.9519 H   0  0  0  0  0  0  0  0  0  0  0  0
   -1.4106   -2.1360   -0.3431 H   0  0  0  0  0  0  0  0  0  0  0  0
   -3.2242    1.2772    1.4412 H   0  0  0  0  0  0  0  0  0  0  0  0
   -4.5254   -1.9258   -1.1379 H   0  0  0  0  0  0  0  0  0  0  0  0
   -4.6807    2.8462    0.2157 H   0  0  0  0  0  0  0  0  0  0  0  0
   -5.9819   -0.3437   -2.3524 H   0  0  0  0  0  0  0  0  0  0  0  0
    0.5871   -1.6806   -0.6231 H   0  0  0  0  0  0  0  0  0  0  0  0
   -6.0632    2.0432   -1.6810 H   0  0  0  0  0  0  0  0  0  0  0  0
    3.9691    1.7449    1.3948 H   0  0  0  0  0  0  0  0  0  0  0  0
  1 16  1  0  0  0  0
  1 18  1  0  0  0  0
  2 13  2  0  0  0  0
  3  8  1  0  0  0  0
  4  8  2  0  0  0  0
  5  9  1  0  0  0  0
  5 13  1  0  0  0  0
  5 22  1  0  0  0  0
  6 13  1  0  0  0  0
  6 16  1  0  0  0  0
  6 27  1  0  0  0  0
  7 16  2  0  0  0  0
  7 19  1  0  0  0  0
  8 18  1  0  0  0  0
  9 10  1  0  0  0  0
  9 20  1  0  0  0  0
  9 21  1  0  0  0  0
 10 11  2  0  0  0  0
 10 12  1  0  0  0  0
 11 14  1  0  0  0  0
 11 23  1  0  0  0  0
 12 15  2  0  0  0  0
 12 24  1  0  0  0  0
 14 17  2  0  0  0  0
 14 25  1  0  0  0  0
 15 17  1  0  0  0  0
 15 26  1  0  0  0  0
 17 28  1  0  0  0  0
 18 19  2  0  0  0  0
 19 29  1  0  0  0  0
M  CHG  2   3  -1   8   1
M  END
> <PUBCHEM_COMPOUND_CID>
10286133

> <PUBCHEM_CONFORMER_RMSD>
0.8

> <PUBCHEM_CONFORMER_DIVERSEORDER>
1
14
11
16
6
15
19
21
4
10
13
3
17
20
12
9
5
7
8
18
2

> <PUBCHEM_MMFF94_PARTIAL_CHARGES>
27
1 -0.08
10 -0.14
11 -0.15
12 -0.15
13 0.69
14 -0.15
15 -0.15
16 0.44
17 -0.15
18 0.12
19 0.08
2 -0.57
22 0.37
23 0.15
24 0.15
25 0.15
26 0.15
27 0.37
28 0.15
29 0.15
3 -0.52
4 -0.52
5 -0.73
6 -0.49
7 -0.57
8 0.96
9 0.44

> <PUBCHEM_EFFECTIVE_ROTOR_COUNT>
6

> <PUBCHEM_PHARMACOPHORE_FEATURES>
8
1 2 acceptor
1 3 acceptor
1 3 anion
1 4 acceptor
1 5 donor
1 6 donor
5 1 7 16 18 19 rings
6 10 11 12 14 15 17 rings

> <PUBCHEM_HEAVY_ATOM_COUNT>
19

> <PUBCHEM_ATOM_DEF_STEREO_COUNT>
0

> <PUBCHEM_ATOM_UDEF_STEREO_COUNT>
0

> <PUBCHEM_BOND_DEF_STEREO_COUNT>
0

> <PUBCHEM_BOND_UDEF_STEREO_COUNT>
0

> <PUBCHEM_ISOTOPIC_ATOM_COUNT>
0

> <PUBCHEM_COMPONENT_COUNT>
1

> <PUBCHEM_CACTVS_TAUTO_COUNT>
5

> <PUBCHEM_CONFORMER_ID>
009CF43500000001

> <PUBCHEM_MMFF94_ENERGY>
34.9649

> <PUBCHEM_FEATURE_SELFOVERLAP>
40.727

> <PUBCHEM_SHAPE_FINGERPRINT>
10354089 29 14201399378544313006
10447042 23 16988847164211317414
105312 117 18259705601401798591
11046707 91 12391509793927539123
11089746 13 17895188939513811700
11370993 144 12324505503717259649
117890 112 17821727239120276572
12236239 1 16153426164484247842
12555020 224 17275107236231251790
12596602 18 13695589944670047989
12616971 3 14548743949291304227
12670543 26 18343305838421716118
13288520 33 14261350267692885755
13668630 136 15841552989536790165
14123255 352 17749106690681018157
1420 363 10879994666169556092
14251752 14 18334293137509067170
14251764 18 12901553446627156665
14341114 176 12468631703625207646
14573314 32 18412266125162509286
15183329 4 18410856517143979154
15188451 53 9078818690002812201
15348495 7 11819285463609019956
15716309 27 10952050060957375214
15880784 105 9799399045154544903
16079462 125 18342450483084873592
167882 2 18265331712001502547
17349148 13 14692575437338816462
17780758 139 8214144071269717663
17834072 8 18343300370606562345
1813 80 12607403334204831827
18222031 100 15051727573573378074
18927931 339 11815900063518473761
193927 3 12679178362434071345
19489759 90 18410574002558290723
200 152 16415484843663729082
20281389 69 17385721400325380460
20645477 56 18260833704911304579
20645477 70 17704081663907301062
21054139 6 14979955869933544892
21150785 3 15626223555049744952
21403212 168 9655308077317169151
21637258 2 13470679344029616493
221357 26 17917703605020033633
22289505 5 18341895178136205132
22393880 68 17988633121265154551
23081809 10 16081087130177715250
23198884 109 18408602556945816071
23402539 116 18410572881392471860
23402655 69 18201439146960358331
23559900 14 17774716558311928002
270888 7 17605264083380408485
2767999 5 17603863403369291165
2838139 119 18186796976378223325
29717793 49 15985109608631419584
300161 21 17894344493093025650
312425 54 7997695345960301349
351380 3 13470683763577273229
3545911 37 18408325493016692859
4028521 119 18409159992482989009
441001 317 18333450950019415753
49783359 22 10807935955218656549
531348 171 17988645134351855383
542803 24 16370445574904493082
5924683 9 13046240389814580161
7062679 6 17385443206624491549
7471813 234 15339120156292775594
7495541 125 10735873963683194538

> <PUBCHEM_SHAPE_MULTIPOLES>
357.33
15.81
1.45
1.31
9.23
0.15
-0.12
5.21
-6.78
-1.3
0.07
-0.32
-0.04
0.82

> <PUBCHEM_SHAPE_SELFOVERLAP>
744.174

> <PUBCHEM_SHAPE_VOLUME>
203.6

> <PUBCHEM_COORDINATE_TYPE>
2
5
10

$$$$
