49831023
  -OEChem-10052115183D

 36 38  0     0  0  0  0  0  0999 V2000
    0.0702   -0.5060    0.2290 O   0  0  0  0  0  0  0  0  0  0  0  0
    0.3726    4.1366   -0.5929 O   0  0  0  0  0  0  0  0  0  0  0  0
    1.5008    3.3312   -0.4346 N   0  0  0  0  0  0  0  0  0  0  0  0
    1.4259   -0.2938    0.2119 C   0  0  0  0  0  0  0  0  0  0  0  0
    2.0023    0.9613   -0.0012 C   0  0  0  0  0  0  0  0  0  0  0  0
    2.2298   -1.4171    0.4216 C   0  0  0  0  0  0  0  0  0  0  0  0
   -0.7707    0.5758    0.0378 C   0  0  0  0  0  0  0  0  0  0  0  0
    1.1052    2.1169   -0.2196 C   0  0  0  0  0  0  0  0  0  0  0  0
    1.6292   -2.7658    0.6500 C   0  0  0  0  0  0  0  0  0  0  0  0
    3.3962    1.0841   -0.0018 C   0  0  0  0  0  0  0  0  0  0  0  0
    3.6167   -1.2892    0.4200 C   0  0  0  0  0  0  0  0  0  0  0  0
   -0.3467    1.8287   -0.1835 C   0  0  0  0  0  0  0  0  0  0  0  0
   -2.2070    0.2343    0.0747 C   0  0  0  0  0  0  0  0  0  0  0  0
    4.1980   -0.0408    0.2088 C   0  0  0  0  0  0  0  0  0  0  0  0
   -3.0435    0.8383    1.0131 C   0  0  0  0  0  0  0  0  0  0  0  0
   -2.7268   -0.6924   -0.8289 C   0  0  0  0  0  0  0  0  0  0  0  0
    1.1088   -3.3988   -0.6132 C   0  0  0  0  0  0  0  0  0  0  0  0
   -4.4003    0.5158    1.0480 C   0  0  0  0  0  0  0  0  0  0  0  0
   -4.0834   -1.0150   -0.7941 C   0  0  0  0  0  0  0  0  0  0  0  0
   -4.9201   -0.4110    0.1444 C   0  0  0  0  0  0  0  0  0  0  0  0
   -0.1574   -3.7931   -0.7892 C   0  0  0  0  0  0  0  0  0  0  0  0
    2.3765   -3.4445    1.0818 H   0  0  0  0  0  0  0  0  0  0  0  0
    0.8418   -2.6920    1.4117 H   0  0  0  0  0  0  0  0  0  0  0  0
    3.8723    2.0472   -0.1648 H   0  0  0  0  0  0  0  0  0  0  0  0
    4.2590   -2.1511    0.5794 H   0  0  0  0  0  0  0  0  0  0  0  0
   -1.0928    2.6002   -0.3361 H   0  0  0  0  0  0  0  0  0  0  0  0
    5.2797    0.0594    0.2069 H   0  0  0  0  0  0  0  0  0  0  0  0
   -2.6563    1.5592    1.7292 H   0  0  0  0  0  0  0  0  0  0  0  0
   -2.0892   -1.1696   -1.5692 H   0  0  0  0  0  0  0  0  0  0  0  0
    1.8181   -3.5585   -1.4219 H   0  0  0  0  0  0  0  0  0  0  0  0
   -5.0516    0.9852    1.7794 H   0  0  0  0  0  0  0  0  0  0  0  0
   -4.4884   -1.7361   -1.4981 H   0  0  0  0  0  0  0  0  0  0  0  0
   -5.9763   -0.6623    0.1716 H   0  0  0  0  0  0  0  0  0  0  0  0
   -0.4660   -4.2505   -1.7228 H   0  0  0  0  0  0  0  0  0  0  0  0
   -0.9037   -3.6654   -0.0130 H   0  0  0  0  0  0  0  0  0  0  0  0
    0.7743    5.0085   -0.7460 H   0  0  0  0  0  0  0  0  0  0  0  0
  1  4  1  0  0  0  0
  1  7  1  0  0  0  0
  2  3  1  0  0  0  0
  2 36  1  0  0  0  0
  3  8  2  3  0  0  0
  4  5  1  0  0  0  0
  4  6  2  0  0  0  0
  5  8  1  0  0  0  0
  5 10  2  0  0  0  0
  6  9  1  0  0  0  0
  6 11  1  0  0  0  0
  7 12  2  0  0  0  0
  7 13  1  0  0  0  0
  8 12  1  0  0  0  0
  9 17  1  0  0  0  0
  9 22  1  0  0  0  0
  9 23  1  0  0  0  0
 10 14  1  0  0  0  0
 10 24  1  0  0  0  0
 11 14  2  0  0  0  0
 11 25  1  0  0  0  0
 12 26  1  0  0  0  0
 13 15  2  0  0  0  0
 13 16  1  0  0  0  0
 14 27  1  0  0  0  0
 15 18  1  0  0  0  0
 15 28  1  0  0  0  0
 16 19  2  0  0  0  0
 16 29  1  0  0  0  0
 17 21  2  0  0  0  0
 17 30  1  0  0  0  0
 18 20  2  0  0  0  0
 18 31  1  0  0  0  0
 19 20  1  0  0  0  0
 19 32  1  0  0  0  0
 20 33  1  0  0  0  0
 21 34  1  0  0  0  0
 21 35  1  0  0  0  0
M  END
> <PUBCHEM_COMPOUND_CID>
49831023

> <PUBCHEM_CONFORMER_RMSD>
0.6

> <PUBCHEM_CONFORMER_DIVERSEORDER>
1
7
9
6
8
4
2
5
3

> <PUBCHEM_MMFF94_PARTIAL_CHARGES>
34
1 -0.16
10 -0.15
11 -0.15
12 -0.14
13 0.03
14 -0.15
15 -0.15
16 -0.15
17 -0.29
18 -0.15
19 -0.15
2 -0.34
20 -0.15
21 -0.3
24 0.15
25 0.15
26 0.15
27 0.15
28 0.15
29 0.15
3 -0.51
30 0.15
31 0.15
32 0.15
33 0.15
34 0.15
35 0.15
36 0.4
4 0.08
5 0.09
6 -0.14
7 0.05
8 0.35
9 0.28

> <PUBCHEM_EFFECTIVE_ROTOR_COUNT>
3

> <PUBCHEM_PHARMACOPHORE_FEATURES>
7
1 1 acceptor
1 2 anion
1 21 hydrophobe
1 3 acceptor
6 1 4 5 7 8 12 rings
6 13 15 16 18 19 20 rings
6 4 5 6 10 11 14 rings

> <PUBCHEM_HEAVY_ATOM_COUNT>
21

> <PUBCHEM_ATOM_DEF_STEREO_COUNT>
0

> <PUBCHEM_ATOM_UDEF_STEREO_COUNT>
0

> <PUBCHEM_BOND_DEF_STEREO_COUNT>
0

> <PUBCHEM_BOND_UDEF_STEREO_COUNT>
1

> <PUBCHEM_ISOTOPIC_ATOM_COUNT>
0

> <PUBCHEM_COMPONENT_COUNT>
1

> <PUBCHEM_CACTVS_TAUTO_COUNT>
2

> <PUBCHEM_CONFORMER_ID>
02F85C6F00000001

> <PUBCHEM_MMFF94_ENERGY>
66.6129

> <PUBCHEM_FEATURE_SELFOVERLAP>
35.549

> <PUBCHEM_SHAPE_FINGERPRINT>
10493431 412 18341609386500967440
10967382 1 18410008849444973450
1100329 8 18194398025368757192
11578080 2 17771874239303580409
116883 192 17762048844282678925
12236239 1 18131071554509175865
12553582 1 18337388236401838067
13140716 1 18192146225264882960
13836976 161 18336264638629192935
13965767 371 17340159683233888665
14117953 113 18125426528341699335
14178342 30 17908692939573476866
14223421 5 17978790108494633890
14790565 3 18337966670150906572
14844126 61 16389017069053757563
14863182 85 18336840709961092910
15664445 248 18269576969519390972
17138139 8 17411311610651067247
17818456 19 17557156008415732513
1813 80 18339373967239005092
19591789 44 18411698764568098062
20028762 73 18130219458093091046
20645477 70 18335693915307172567
20739085 24 18337402547338473984
21197605 99 17975992165473660411
21267235 1 18411145714107982202
21421861 104 17900825937739274834
21641784 216 17749969756170779164
221490 88 18117282668920763963
2255824 54 18337958994679741021
23184049 29 17759237397514494290
23558518 356 17615118223972511058
23559900 14 18337945788298669977
2748010 2 18192136115070207892
3060560 45 18410009970357513430
350125 39 17903646524298227867
474 4 18192992840539054609
484985 159 14283251173234131674
6443956 14 18335703784720012781
7097593 13 18199477575847046873
81228 2 17684094577912054464
8272917 22 18411987927625711903
9981440 41 17259051321587584945

> <PUBCHEM_SHAPE_MULTIPOLES>
415.45
7.67
4.12
0.89
6.39
0.21
0.04
0.85
1.26
-2.5
-1.28
0.46
0.14
-0.82

> <PUBCHEM_SHAPE_SELFOVERLAP>
909.033

> <PUBCHEM_SHAPE_VOLUME>
224.5

> <PUBCHEM_COORDINATE_TYPE>
2
5
10

$$$$
