46232555
  -OEChem-10062122033D

 42 44  0     1  0  0  0  0  0999 V2000
    2.0494   -1.1959    2.2600 Cl  0  0  0  0  0  0  0  0  0  0  0  0
    4.8778    0.7766   -1.9607 Cl  0  0  0  0  0  0  0  0  0  0  0  0
    3.1209   -3.7554    1.3073 F   0  0  0  0  0  0  0  0  0  0  0  0
    2.2573    1.5851   -0.6032 O   0  0  0  0  0  0  0  0  0  0  0  0
   -7.0056   -2.0504   -0.4076 O   0  0  0  0  0  0  0  0  0  0  0  0
   -2.9806    2.9309    0.5431 N   0  0  0  0  0  0  0  0  0  0  0  0
   -5.5269   -3.8110   -0.3285 N   0  0  0  0  0  0  0  0  0  0  0  0
    3.0446    1.0675    0.4690 C   0  0  1  0  0  0  0  0  0  0  0  0
    3.5022   -0.3290    0.1215 C   0  0  0  0  0  0  0  0  0  0  0  0
    0.9659    1.9074   -0.3240 C   0  0  0  0  0  0  0  0  0  0  0  0
   -1.3758    1.2851   -0.1801 C   0  0  0  0  0  0  0  0  0  0  0  0
    4.2169    2.0048    0.7367 C   0  0  0  0  0  0  0  0  0  0  0  0
   -0.0403    0.9565   -0.4682 C   0  0  0  0  0  0  0  0  0  0  0  0
   -1.7113    2.5831    0.2587 C   0  0  0  0  0  0  0  0  0  0  0  0
    0.6426    3.1877    0.1077 C   0  0  0  0  0  0  0  0  0  0  0  0
    3.0869   -1.4126    0.8957 C   0  0  0  0  0  0  0  0  0  0  0  0
    4.3407   -0.5351   -0.9740 C   0  0  0  0  0  0  0  0  0  0  0  0
   -0.6852    3.5142    0.3943 C   0  0  0  0  0  0  0  0  0  0  0  0
   -2.4083    0.3475   -0.3167 C   0  0  0  0  0  0  0  0  0  0  0  0
   -3.7171    0.7030   -0.0244 C   0  0  0  0  0  0  0  0  0  0  0  0
    3.5104   -2.7023    0.5744 C   0  0  0  0  0  0  0  0  0  0  0  0
    4.7642   -1.8249   -1.2953 C   0  0  0  0  0  0  0  0  0  0  0  0
    4.3492   -2.9084   -0.5209 C   0  0  0  0  0  0  0  0  0  0  0  0
   -3.9477    1.9964    0.3982 C   0  0  0  0  0  0  0  0  0  0  0  0
   -4.8038   -0.2492   -0.1584 C   0  0  0  0  0  0  0  0  0  0  0  0
   -4.6670   -1.5959   -0.1864 C   0  0  0  0  0  0  0  0  0  0  0  0
   -5.8592   -2.4757   -0.3180 C   0  0  0  0  0  0  0  0  0  0  0  0
    2.4529    1.0876    1.3883 H   0  0  0  0  0  0  0  0  0  0  0  0
    5.0595    1.5029    1.2238 H   0  0  0  0  0  0  0  0  0  0  0  0
    3.8814    2.7921    1.4251 H   0  0  0  0  0  0  0  0  0  0  0  0
    4.5610    2.5605   -0.1384 H   0  0  0  0  0  0  0  0  0  0  0  0
    0.2170   -0.0450   -0.8076 H   0  0  0  0  0  0  0  0  0  0  0  0
    1.4169    3.9411    0.2249 H   0  0  0  0  0  0  0  0  0  0  0  0
   -0.9123    4.5241    0.7309 H   0  0  0  0  0  0  0  0  0  0  0  0
   -2.1572   -0.6493   -0.6719 H   0  0  0  0  0  0  0  0  0  0  0  0
    5.4175   -2.0029   -2.1458 H   0  0  0  0  0  0  0  0  0  0  0  0
    4.6787   -3.9125   -0.7708 H   0  0  0  0  0  0  0  0  0  0  0  0
   -4.9456    2.3467    0.6461 H   0  0  0  0  0  0  0  0  0  0  0  0
   -5.7986    0.1861   -0.2265 H   0  0  0  0  0  0  0  0  0  0  0  0
   -3.7019   -2.0822   -0.0968 H   0  0  0  0  0  0  0  0  0  0  0  0
   -6.2454   -4.5225   -0.4135 H   0  0  0  0  0  0  0  0  0  0  0  0
   -4.5707   -4.1439   -0.2538 H   0  0  0  0  0  0  0  0  0  0  0  0
  1 16  1  0  0  0  0
  2 17  1  0  0  0  0
  3 21  1  0  0  0  0
  4  8  1  0  0  0  0
  4 10  1  0  0  0  0
  5 27  2  0  0  0  0
  6 14  2  0  0  0  0
  6 24  1  0  0  0  0
  7 27  1  0  0  0  0
  7 41  1  0  0  0  0
  7 42  1  0  0  0  0
  8  9  1  0  0  0  0
  8 12  1  0  0  0  0
  8 28  1  0  0  0  0
  9 16  1  0  0  0  0
  9 17  2  0  0  0  0
 10 13  2  0  0  0  0
 10 15  1  0  0  0  0
 11 13  1  0  0  0  0
 11 14  1  0  0  0  0
 11 19  2  0  0  0  0
 12 29  1  0  0  0  0
 12 30  1  0  0  0  0
 12 31  1  0  0  0  0
 13 32  1  0  0  0  0
 14 18  1  0  0  0  0
 15 18  2  0  0  0  0
 15 33  1  0  0  0  0
 16 21  2  0  0  0  0
 17 22  1  0  0  0  0
 18 34  1  0  0  0  0
 19 20  1  0  0  0  0
 19 35  1  0  0  0  0
 20 24  2  0  0  0  0
 20 25  1  0  0  0  0
 21 23  1  0  0  0  0
 22 23  2  0  0  0  0
 22 36  1  0  0  0  0
 23 37  1  0  0  0  0
 24 38  1  0  0  0  0
 25 26  2  0  0  0  0
 25 39  1  0  0  0  0
 26 27  1  0  0  0  0
 26 40  1  0  0  0  0
M  END
> <PUBCHEM_COMPOUND_CID>
46232555

> <PUBCHEM_CONFORMER_RMSD>
0.8

> <PUBCHEM_CONFORMER_DIVERSEORDER>
14
48
76
16
91
74
70
60
43
57
77
9
86
93
83
46
58
89
33
94
66
92
71
85
79
78
53
6
17
39
12
22
65
13
35
41
61
50
95
24
51
96
18
20
10
75
11
88
2
49
38
36
32
37
8
69
80
40
84
27
59
73
63
25
28
4
67
44
31
68
56
7
23
30
45
26
47
62
90
55
29
21
82
5
34
81
72
87
54
1
42
52
3
19
15
64

> <PUBCHEM_MMFF94_PARTIAL_CHARGES>
36
1 -0.18
10 0.08
13 -0.15
14 0.31
15 -0.15
16 0.18
17 0.18
18 -0.15
19 -0.15
2 -0.18
20 0.03
21 0.19
22 -0.15
23 -0.15
24 0.16
25 -0.18
26 -0.14
27 0.62
3 -0.19
32 0.15
33 0.15
34 0.15
35 0.15
36 0.15
37 0.15
38 0.15
39 0.15
4 -0.36
40 0.15
41 0.37
42 0.37
5 -0.57
6 -0.62
7 -0.8
8 0.42
9 -0.14

> <PUBCHEM_EFFECTIVE_ROTOR_COUNT>
5

> <PUBCHEM_PHARMACOPHORE_FEATURES>
7
1 4 acceptor
1 5 acceptor
1 6 acceptor
1 7 donor
6 10 11 13 14 15 18 rings
6 6 11 14 19 20 24 rings
6 9 16 17 21 22 23 rings

> <PUBCHEM_HEAVY_ATOM_COUNT>
27

> <PUBCHEM_ATOM_DEF_STEREO_COUNT>
1

> <PUBCHEM_ATOM_UDEF_STEREO_COUNT>
0

> <PUBCHEM_BOND_DEF_STEREO_COUNT>
1

> <PUBCHEM_BOND_UDEF_STEREO_COUNT>
0

> <PUBCHEM_ISOTOPIC_ATOM_COUNT>
0

> <PUBCHEM_COMPONENT_COUNT>
1

> <PUBCHEM_CACTVS_TAUTO_COUNT>
2

> <PUBCHEM_CONFORMER_ID>
02C173EB0000000E

> <PUBCHEM_MMFF94_ENERGY>
91.5261

> <PUBCHEM_FEATURE_SELFOVERLAP>
35.554

> <PUBCHEM_SHAPE_FINGERPRINT>
10042902 136 18339085886792321852
10369192 42 17414681506658442928
10462674 125 14326879119881732239
10622 236 17970337114318783387
10928967 22 18119822308668121898
11186622 123 18335701594281410578
11315621 136 18335423478169280180
11443803 9 17970629826222579212
117089 54 18271257014328232070
11796584 16 18198069066791791500
12403259 118 10015579489353172397
12422481 6 17060345128221421471
12596602 18 17632306725803497161
13383661 66 17559699264562938110
13533116 47 18340769364091622705
1361 2 18338795736172363235
13631057 29 18411425012037589588
13965767 371 11167942420688684936
14251740 57 18343580754693384250
14931854 50 18186524314669096862
15001296 14 18335977606270652241
150020 26 17199665173952932678
15003188 105 18114731694712806722
15250474 111 18191023408986439418
15537594 2 18336279950319595249
17138139 8 18260838081213940690
17492 89 18413106143266200453
17909252 39 18342181059575483362
20715895 44 8646501699358806207
21033648 29 15553591873485796800
21054139 6 18260836982087116556
21703447 108 18270108162653885105
22950370 63 18411987922887782365
23379529 103 17692819181826392206
235170 7 15647346181908272944
23559900 14 18198052595687565840
25222932 49 18270960279416088430
444735 86 18334573572491996443
463206 1 18120653789047235035
4756261 7 18046590553231070410
5104073 3 17988926652188743793
7970288 3 18412262818112064151

> <PUBCHEM_SHAPE_MULTIPOLES>
530.41
14.1
4.83
1.28
14.84
1.37
0.21
13.54
-3.36
2.19
0.64
-1.96
0.44
-1.35

> <PUBCHEM_SHAPE_SELFOVERLAP>
1140.39

> <PUBCHEM_SHAPE_VOLUME>
294.3

> <PUBCHEM_COORDINATE_TYPE>
2
5
10

$$$$
