49830814
  -OEChem-10062121533D

 45 49  0     0  0  0  0  0  0999 V2000
    0.8443    1.8790   -0.1079 S   0  0  0  0  0  0  0  0  0  0  0  0
    1.3194   -2.5681   -0.3514 N   0  0  0  0  0  0  0  0  0  0  0  0
   -5.0408   -1.0995    0.5593 N   0  0  0  0  0  0  0  0  0  0  0  0
   -4.5298    0.8164   -0.4448 N   0  0  0  0  0  0  0  0  0  0  0  0
    3.6587   -2.2847   -0.1700 N   0  0  0  0  0  0  0  0  0  0  0  0
    8.7492    0.3709    0.3551 N   0  0  0  0  0  0  0  0  0  0  0  0
    2.1800   -0.3340   -0.1521 C   0  0  0  0  0  0  0  0  0  0  0  0
    3.1311    0.7323   -0.0193 C   0  0  0  0  0  0  0  0  0  0  0  0
    0.8735    0.1589   -0.2130 C   0  0  0  0  0  0  0  0  0  0  0  0
   -0.2229   -0.7018   -0.3434 C   0  0  0  0  0  0  0  0  0  0  0  0
    4.5672    0.6405    0.0768 C   0  0  0  0  0  0  0  0  0  0  0  0
    2.3673   -1.7235   -0.2254 C   0  0  0  0  0  0  0  0  0  0  0  0
    2.5417    1.9738    0.0167 C   0  0  0  0  0  0  0  0  0  0  0  0
   -1.6026   -0.1874   -0.4028 C   0  0  0  0  0  0  0  0  0  0  0  0
    0.0763   -2.0514   -0.4065 C   0  0  0  0  0  0  0  0  0  0  0  0
   -4.0555   -0.3140    0.0289 C   0  0  0  0  0  0  0  0  0  0  0  0
   -6.2301   -0.4315    0.4185 C   0  0  0  0  0  0  0  0  0  0  0  0
    5.1770    0.5209    1.3256 C   0  0  0  0  0  0  0  0  0  0  0  0
    5.3465    0.6706   -1.0798 C   0  0  0  0  0  0  0  0  0  0  0  0
   -5.8846    0.7613   -0.2108 C   0  0  0  0  0  0  0  0  0  0  0  0
   -2.7420   -0.8120    0.0706 C   0  0  0  0  0  0  0  0  0  0  0  0
    6.5658    0.4316    1.4180 C   0  0  0  0  0  0  0  0  0  0  0  0
    6.7354    0.5814   -0.9874 C   0  0  0  0  0  0  0  0  0  0  0  0
    7.3450    0.4619    0.2614 C   0  0  0  0  0  0  0  0  0  0  0  0
   -7.5384   -0.7583    0.7766 C   0  0  0  0  0  0  0  0  0  0  0  0
   -6.8914    1.6952   -0.5082 C   0  0  0  0  0  0  0  0  0  0  0  0
   -8.5278    0.1828    0.4731 C   0  0  0  0  0  0  0  0  0  0  0  0
   -8.2123    1.3884   -0.1578 C   0  0  0  0  0  0  0  0  0  0  0  0
    3.0193    2.9402    0.1104 H   0  0  0  0  0  0  0  0  0  0  0  0
   -1.7243    0.7887   -0.8679 H   0  0  0  0  0  0  0  0  0  0  0  0
   -0.7021   -2.8013   -0.5174 H   0  0  0  0  0  0  0  0  0  0  0  0
    4.5840    0.4945    2.2368 H   0  0  0  0  0  0  0  0  0  0  0  0
    4.8869    0.7620   -2.0612 H   0  0  0  0  0  0  0  0  0  0  0  0
   -2.6040   -1.7843    0.5425 H   0  0  0  0  0  0  0  0  0  0  0  0
   -4.9253   -2.0114    0.9825 H   0  0  0  0  0  0  0  0  0  0  0  0
    7.0291    0.3382    2.3969 H   0  0  0  0  0  0  0  0  0  0  0  0
    7.3317    0.6056   -1.8960 H   0  0  0  0  0  0  0  0  0  0  0  0
   -7.7809   -1.6947    1.2661 H   0  0  0  0  0  0  0  0  0  0  0  0
    3.7380   -3.2919   -0.2272 H   0  0  0  0  0  0  0  0  0  0  0  0
    4.4965   -1.7366   -0.0773 H   0  0  0  0  0  0  0  0  0  0  0  0
   -6.6565    2.6347   -0.9982 H   0  0  0  0  0  0  0  0  0  0  0  0
   -9.5618   -0.0290    0.7338 H   0  0  0  0  0  0  0  0  0  0  0  0
   -9.0031    2.1001   -0.3808 H   0  0  0  0  0  0  0  0  0  0  0  0
    9.3150    0.3940   -0.4828 H   0  0  0  0  0  0  0  0  0  0  0  0
    9.1917    0.2854    1.2604 H   0  0  0  0  0  0  0  0  0  0  0  0
  1  9  1  0  0  0  0
  1 13  1  0  0  0  0
  2 12  2  0  0  0  0
  2 15  1  0  0  0  0
  3 16  1  0  0  0  0
  3 17  1  0  0  0  0
  3 35  1  0  0  0  0
  4 16  2  0  0  0  0
  4 20  1  0  0  0  0
  5 12  1  0  0  0  0
  5 39  1  0  0  0  0
  5 40  1  0  0  0  0
  6 24  1  0  0  0  0
  6 44  1  0  0  0  0
  6 45  1  0  0  0  0
  7  8  1  0  0  0  0
  7  9  2  0  0  0  0
  7 12  1  0  0  0  0
  8 11  1  0  0  0  0
  8 13  2  0  0  0  0
  9 10  1  0  0  0  0
 10 14  1  0  0  0  0
 10 15  2  0  0  0  0
 11 18  2  0  0  0  0
 11 19  1  0  0  0  0
 13 29  1  0  0  0  0
 14 21  2  3  0  0  0
 14 30  1  0  0  0  0
 15 31  1  0  0  0  0
 16 21  1  0  0  0  0
 17 20  1  0  0  0  0
 17 25  2  0  0  0  0
 18 22  1  0  0  0  0
 18 32  1  0  0  0  0
 19 23  2  0  0  0  0
 19 33  1  0  0  0  0
 20 26  2  0  0  0  0
 21 34  1  0  0  0  0
 22 24  2  0  0  0  0
 22 36  1  0  0  0  0
 23 24  1  0  0  0  0
 23 37  1  0  0  0  0
 25 27  1  0  0  0  0
 25 38  1  0  0  0  0
 26 28  1  0  0  0  0
 26 41  1  0  0  0  0
 27 28  2  0  0  0  0
 27 42  1  0  0  0  0
 28 43  1  0  0  0  0
M  END
> <PUBCHEM_COMPOUND_CID>
49830814

> <PUBCHEM_CONFORMER_RMSD>
0.8

> <PUBCHEM_CONFORMER_DIVERSEORDER>
1
2

> <PUBCHEM_MMFF94_PARTIAL_CHARGES>
44
1 -0.08
10 0.03
11 0.05
12 0.41
13 -0.11
14 -0.18
15 0.16
16 0.14
17 -0.15
18 -0.15
19 -0.15
2 -0.62
20 0.23
21 -0.11
22 -0.15
23 -0.15
24 0.1
25 -0.15
26 -0.15
27 -0.15
28 -0.15
29 0.15
3 0.03
30 0.15
31 0.15
32 0.15
33 0.15
34 0.15
35 0.27
36 0.15
37 0.15
38 0.15
39 0.4
4 -0.57
40 0.4
41 0.15
42 0.15
43 0.15
44 0.4
45 0.4
5 -0.9
6 -0.9
8 -0.05
9 0.04

> <PUBCHEM_EFFECTIVE_ROTOR_COUNT>
3

> <PUBCHEM_PHARMACOPHORE_FEATURES>
11
1 3 donor
1 5 donor
1 6 cation
1 6 donor
3 2 5 12 cation
3 3 4 16 cation
5 1 7 8 9 13 rings
5 3 4 16 17 20 rings
6 11 18 19 22 23 24 rings
6 17 20 25 26 27 28 rings
6 2 7 9 10 12 15 rings

> <PUBCHEM_HEAVY_ATOM_COUNT>
28

> <PUBCHEM_ATOM_DEF_STEREO_COUNT>
0

> <PUBCHEM_ATOM_UDEF_STEREO_COUNT>
0

> <PUBCHEM_BOND_DEF_STEREO_COUNT>
0

> <PUBCHEM_BOND_UDEF_STEREO_COUNT>
1

> <PUBCHEM_ISOTOPIC_ATOM_COUNT>
0

> <PUBCHEM_COMPONENT_COUNT>
1

> <PUBCHEM_CACTVS_TAUTO_COUNT>
6

> <PUBCHEM_CONFORMER_ID>
02F85B9E00000001

> <PUBCHEM_MMFF94_ENERGY>
90.7083

> <PUBCHEM_FEATURE_SELFOVERLAP>
55.996

> <PUBCHEM_SHAPE_FINGERPRINT>
10 15 18260546719349076211
10050765 1 18122626046144394756
10162869 55 18339071684227102135
10299344 5 17095521807369697792
10319688 140 17202215018874713654
10411042 1 17835805197288783542
10670039 82 14692578689446848067
10816530 90 18335712671693300388
10835480 77 18337388237499194629
11135609 127 14261054533635795434
11135926 11 18411127035538162927
11315181 36 9799694810062364543
11646440 116 18060425741416559272
11719270 70 18411418397429355034
12664476 115 18334292068642998501
12838862 33 18270948103057430280
13617811 41 18335432253558060956
13673619 4 9655574111111438283
13685833 64 8142086463682236279
14118638 360 18059577932500428297
14170010 4 18412829083552793364
14251764 18 17894910741665570153
14251764 46 18410575093258301248
14394314 77 17916596332635015121
14933364 13 18408608054878455717
15131766 46 17026298896881264620
15183329 4 18411141325147459977
15289351 153 18201434719329156880
15419008 145 18188198806538553920
15419008 47 17917705799327005081
15461852 350 17560794477196449389
15840311 113 17603873338594258396
15849732 13 17917712417691512484
16087824 20 18410293584075645188
18608769 82 18335701659038157885
19611394 137 17823714147364188401
19841028 212 17822566106922515026
20771845 171 17821740412413370854
21033648 29 17915724561488788122
21150785 3 14189575238967734217
21298829 104 18272655606625591705
21403212 168 18272649052473459298
21792934 111 18341040814757323434
22224240 67 18410289237473276331
22956985 138 17827066313505037834
24771293 8 18057026107962993896
24893992 56 18272085046089939371
249057 3 15841548608907660972
3178227 256 18408321107834114448
335352 9 18412545448861751804
335507 130 18339645637992535783
3545911 37 18412265047584517285
4073 2 18040443208994365331
4093350 32 17560805390038890310
5104073 3 18261118410109389739
5385378 56 18410572851787188770
5758199 1 18343584044854682355
58260988 647 15213846109983544872
59755656 215 18342178851798347028
9962374 69 12685383997497834699

> <PUBCHEM_SHAPE_MULTIPOLES>
555.17
26.39
1.93
0.92
21.4
0.62
0.13
-8.1
4.1
-0.02
-0.25
-0.94
-0.08
0.8

> <PUBCHEM_SHAPE_SELFOVERLAP>
1243.308

> <PUBCHEM_SHAPE_VOLUME>
297.4

> <PUBCHEM_COORDINATE_TYPE>
2
5
10

$$$$
