49806721
  -OEChem-10052115173D

 64 69  0     0  0  0  0  0  0999 V2000
   -8.7469   -2.0717    0.2415 O   0  0  0  0  0  0  0  0  0  0  0  0
    2.5205    2.6219    0.1997 O   0  0  0  0  0  0  0  0  0  0  0  0
   -6.1381   -0.5326    0.0519 N   0  0  0  0  0  0  0  0  0  0  0  0
   -3.4067    0.2896    0.0119 N   0  0  0  0  0  0  0  0  0  0  0  0
    3.7785   -1.7522   -0.0876 N   0  0  0  0  0  0  0  0  0  0  0  0
    9.7421   -1.0214   -0.0187 N   0  0  0  0  0  0  0  0  0  0  0  0
   -7.5891   -0.3039   -0.0589 C   0  0  0  0  0  0  0  0  0  0  0  0
    1.2455   -1.4380   -0.0773 C   0  0  0  0  0  0  0  0  0  0  0  0
   -5.5984    0.2919    1.1397 C   0  0  0  0  0  0  0  0  0  0  0  0
   -5.4921   -0.1730   -1.2158 C   0  0  0  0  0  0  0  0  0  0  0  0
   -4.0917    0.0716    1.2928 C   0  0  0  0  0  0  0  0  0  0  0  0
   -3.9812   -0.4077   -1.1435 C   0  0  0  0  0  0  0  0  0  0  0  0
    0.2690   -0.2447   -0.0032 C   0  0  0  0  0  0  0  0  0  0  0  0
   -2.0369    0.5753    0.0389 C   0  0  0  0  0  0  0  0  0  0  0  0
   -8.1925   -1.4093   -0.9179 C   0  0  0  0  0  0  0  0  0  0  0  0
   -8.2835   -1.0065    1.1023 C   0  0  0  0  0  0  0  0  0  0  0  0
    2.6699   -0.9478   -0.0387 C   0  0  0  0  0  0  0  0  0  0  0  0
    0.7098    1.0979    0.0879 C   0  0  0  0  0  0  0  0  0  0  0  0
   -1.1213   -0.4765   -0.0257 C   0  0  0  0  0  0  0  0  0  0  0  0
    3.0971    0.3577    0.0499 C   0  0  0  0  0  0  0  0  0  0  0  0
   -1.5854    1.8863    0.1278 C   0  0  0  0  0  0  0  0  0  0  0  0
    1.0079   -2.3766    1.1265 C   0  0  0  0  0  0  0  0  0  0  0  0
    1.0196   -2.2116   -1.3953 C   0  0  0  0  0  0  0  0  0  0  0  0
    2.1596    1.4545    0.1193 C   0  0  0  0  0  0  0  0  0  0  0  0
   -0.2179    2.1498    0.1525 C   0  0  0  0  0  0  0  0  0  0  0  0
    4.5236    0.3487    0.0546 C   0  0  0  0  0  0  0  0  0  0  0  0
    4.9217   -0.9880   -0.0328 C   0  0  0  0  0  0  0  0  0  0  0  0
   -2.5430    3.0312    0.1969 C   0  0  0  0  0  0  0  0  0  0  0  0
    5.5220    1.3431    0.1238 C   0  0  0  0  0  0  0  0  0  0  0  0
    6.2655   -1.3788   -0.0541 C   0  0  0  0  0  0  0  0  0  0  0  0
   -3.1500    3.3600   -1.1635 C   0  0  0  0  0  0  0  0  0  0  0  0
    6.8700    0.9669    0.1032 C   0  0  0  0  0  0  0  0  0  0  0  0
    7.2340   -0.3744    0.0154 C   0  0  0  0  0  0  0  0  0  0  0  0
    8.6185   -0.7315   -0.0034 C   0  0  0  0  0  0  0  0  0  0  0  0
   -7.9227    0.7150   -0.2769 H   0  0  0  0  0  0  0  0  0  0  0  0
   -5.7924    1.3567    0.9496 H   0  0  0  0  0  0  0  0  0  0  0  0
   -6.0649    0.0509    2.1008 H   0  0  0  0  0  0  0  0  0  0  0  0
   -5.6867    0.8800   -1.4619 H   0  0  0  0  0  0  0  0  0  0  0  0
   -5.8773   -0.7690   -2.0499 H   0  0  0  0  0  0  0  0  0  0  0  0
   -3.8931   -0.9504    1.6410 H   0  0  0  0  0  0  0  0  0  0  0  0
   -3.7111    0.7555    2.0610 H   0  0  0  0  0  0  0  0  0  0  0  0
   -3.5236   -0.0452   -2.0722 H   0  0  0  0  0  0  0  0  0  0  0  0
   -3.7736   -1.4828   -1.0695 H   0  0  0  0  0  0  0  0  0  0  0  0
   -7.5285   -2.0856   -1.4639 H   0  0  0  0  0  0  0  0  0  0  0  0
   -8.9893   -1.0776   -1.5921 H   0  0  0  0  0  0  0  0  0  0  0  0
   -9.1297   -0.4558    1.5265 H   0  0  0  0  0  0  0  0  0  0  0  0
   -7.6813   -1.4112    1.9209 H   0  0  0  0  0  0  0  0  0  0  0  0
   -1.4939   -1.4969   -0.0882 H   0  0  0  0  0  0  0  0  0  0  0  0
    1.1475   -1.8467    2.0770 H   0  0  0  0  0  0  0  0  0  0  0  0
   -0.0041   -2.7961    1.1304 H   0  0  0  0  0  0  0  0  0  0  0  0
    1.7026   -3.2250    1.1201 H   0  0  0  0  0  0  0  0  0  0  0  0
    0.0074   -2.6253   -1.4635 H   0  0  0  0  0  0  0  0  0  0  0  0
    1.1685   -1.5625   -2.2673 H   0  0  0  0  0  0  0  0  0  0  0  0
    1.7139   -3.0546   -1.4928 H   0  0  0  0  0  0  0  0  0  0  0  0
    0.1236    3.1803    0.2194 H   0  0  0  0  0  0  0  0  0  0  0  0
    3.7634   -2.7605   -0.1547 H   0  0  0  0  0  0  0  0  0  0  0  0
   -3.3390    2.8299    0.9222 H   0  0  0  0  0  0  0  0  0  0  0  0
   -2.0345    3.9265    0.5772 H   0  0  0  0  0  0  0  0  0  0  0  0
    5.2590    2.3947    0.1925 H   0  0  0  0  0  0  0  0  0  0  0  0
    6.5359   -2.4285   -0.1228 H   0  0  0  0  0  0  0  0  0  0  0  0
   -2.3700    3.6019   -1.8937 H   0  0  0  0  0  0  0  0  0  0  0  0
   -3.8120    4.2277   -1.0773 H   0  0  0  0  0  0  0  0  0  0  0  0
   -3.7391    2.5323   -1.5664 H   0  0  0  0  0  0  0  0  0  0  0  0
    7.6291    1.7447    0.1572 H   0  0  0  0  0  0  0  0  0  0  0  0
  1 15  1  0  0  0  0
  1 16  1  0  0  0  0
  2 24  2  0  0  0  0
  3  7  1  0  0  0  0
  3  9  1  0  0  0  0
  3 10  1  0  0  0  0
  4 11  1  0  0  0  0
  4 12  1  0  0  0  0
  4 14  1  0  0  0  0
  5 17  1  0  0  0  0
  5 27  1  0  0  0  0
  5 56  1  0  0  0  0
  6 34  3  0  0  0  0
  7 15  1  0  0  0  0
  7 16  1  0  0  0  0
  7 35  1  0  0  0  0
  8 13  1  0  0  0  0
  8 17  1  0  0  0  0
  8 22  1  0  0  0  0
  8 23  1  0  0  0  0
  9 11  1  0  0  0  0
  9 36  1  0  0  0  0
  9 37  1  0  0  0  0
 10 12  1  0  0  0  0
 10 38  1  0  0  0  0
 10 39  1  0  0  0  0
 11 40  1  0  0  0  0
 11 41  1  0  0  0  0
 12 42  1  0  0  0  0
 12 43  1  0  0  0  0
 13 18  2  0  0  0  0
 13 19  1  0  0  0  0
 14 19  2  0  0  0  0
 14 21  1  0  0  0  0
 15 44  1  0  0  0  0
 15 45  1  0  0  0  0
 16 46  1  0  0  0  0
 16 47  1  0  0  0  0
 17 20  2  0  0  0  0
 18 24  1  0  0  0  0
 18 25  1  0  0  0  0
 19 48  1  0  0  0  0
 20 24  1  0  0  0  0
 20 26  1  0  0  0  0
 21 25  2  0  0  0  0
 21 28  1  0  0  0  0
 22 49  1  0  0  0  0
 22 50  1  0  0  0  0
 22 51  1  0  0  0  0
 23 52  1  0  0  0  0
 23 53  1  0  0  0  0
 23 54  1  0  0  0  0
 25 55  1  0  0  0  0
 26 27  2  0  0  0  0
 26 29  1  0  0  0  0
 27 30  1  0  0  0  0
 28 31  1  0  0  0  0
 28 57  1  0  0  0  0
 28 58  1  0  0  0  0
 29 32  2  0  0  0  0
 29 59  1  0  0  0  0
 30 33  2  0  0  0  0
 30 60  1  0  0  0  0
 31 61  1  0  0  0  0
 31 62  1  0  0  0  0
 31 63  1  0  0  0  0
 32 33  1  0  0  0  0
 32 64  1  0  0  0  0
 33 34  1  0  0  0  0
M  END
> <PUBCHEM_COMPOUND_CID>
49806721

> <PUBCHEM_CONFORMER_RMSD>
0.8

> <PUBCHEM_CONFORMER_DIVERSEORDER>
2
6
8
7
3
5
1
4

> <PUBCHEM_MMFF94_PARTIAL_CHARGES>
36
1 -0.52
10 0.27
11 0.37
12 0.37
13 -0.14
14 0.1
15 0.26
16 0.26
17 -0.33
18 0.09
19 -0.15
2 -0.57
20 -0.09
21 -0.14
24 0.57
25 -0.15
27 -0.15
28 0.14
29 -0.15
3 -0.75
30 -0.15
32 -0.15
33 0.07
34 0.48
4 -0.84
48 0.15
5 0.03
55 0.15
56 0.27
59 0.15
6 -0.56
60 0.15
64 0.15
7 0.21
8 0.32
9 0.27

> <PUBCHEM_EFFECTIVE_ROTOR_COUNT>
5.2

> <PUBCHEM_PHARMACOPHORE_FEATURES>
15
1 1 acceptor
1 2 acceptor
1 3 cation
1 31 hydrophobe
1 4 cation
1 5 cation
1 5 donor
1 6 acceptor
3 8 22 23 hydrophobe
4 1 7 15 16 rings
5 5 17 20 26 27 rings
6 13 14 18 19 21 25 rings
6 26 27 29 30 32 33 rings
6 3 4 9 10 11 12 rings
6 8 13 17 18 20 24 rings

> <PUBCHEM_HEAVY_ATOM_COUNT>
34

> <PUBCHEM_ATOM_DEF_STEREO_COUNT>
0

> <PUBCHEM_ATOM_UDEF_STEREO_COUNT>
0

> <PUBCHEM_BOND_DEF_STEREO_COUNT>
0

> <PUBCHEM_BOND_UDEF_STEREO_COUNT>
0

> <PUBCHEM_ISOTOPIC_ATOM_COUNT>
0

> <PUBCHEM_COMPONENT_COUNT>
1

> <PUBCHEM_CACTVS_TAUTO_COUNT>
3

> <PUBCHEM_CONFORMER_ID>
02F7FD8100000002

> <PUBCHEM_MMFF94_ENERGY>
102.6951

> <PUBCHEM_FEATURE_SELFOVERLAP>
76.317

> <PUBCHEM_SHAPE_FINGERPRINT>
10050765 1 18121780521834321875
10076449 9 18411139134133415765
10299344 5 17917712418097596559
11135609 99 18340208608909259631
11135926 11 18272923917363984303
11421498 54 17203052876424997707
11578080 2 17025420098467570876
12236239 1 17917996075149529465
13631057 29 18410011005566282409
13811026 1 18408606963234238499
14150022 121 17560809780133946225
14251764 18 18060702810167883993
14394314 77 18340211787396172433
1454969 45 18342176674202682487
14849402 71 17846215626086902888
15131766 46 14618511333580626882
15297060 5 16630525163673072951
15347591 1 18119243961462652726
15419008 47 17603297168256967277
15840311 113 18261958544309586308
16087824 20 18339078182766562213
17492 89 18122905330814839667
18335252 98 18201440251532273302
18608769 82 18411416223980172235
21236236 1 18338797818993877800
21267235 1 18412545413800548972
21792961 116 17821727221581841251
22149856 69 17988652843506655595
22311459 1 18411699889786161046
23522609 53 18127722432895537320
23559900 14 18264202676546624104
23569917 315 18339366263012739838
2747138 104 18409452509361766785
3178227 256 18412829109280568091
335352 9 18410015455726985230
3383291 50 18409728465901984322
350125 39 18413670201358711488
3552219 110 17988934392068048961
4325135 7 18343582936536640910
4461854 278 17989211468771798055
5104073 3 18265894657996813824
54039377 194 18411700988928238279
57527295 17 17896580844747935067
59682541 35 18343017817835745002
5969126 39 18335698326513217181
6691757 9 15985105237525967823
9962374 69 18341324595387406964

> <PUBCHEM_SHAPE_MULTIPOLES>
668.04
25.4
2.68
0.99
1.28
1.61
0.06
-12.46
-0.83
1.15
0.28
1.41
-0.17
0.38

> <PUBCHEM_SHAPE_SELFOVERLAP>
1481.748

> <PUBCHEM_SHAPE_VOLUME>
357.6

> <PUBCHEM_COORDINATE_TYPE>
2
5
10

$$$$
