49830839
  -OEChem-10052115193D

 41 43  0     1  0  0  0  0  0999 V2000
    6.1844   -1.5635    1.1119 Cl  0  0  0  0  0  0  0  0  0  0  0  0
    1.4639    1.5694   -0.4892 O   0  0  0  0  0  0  0  0  0  0  0  0
    0.0636    3.8135   -1.7403 O   0  0  0  0  0  0  0  0  0  0  0  0
   -2.4739    3.1543   -0.6207 O   0  0  0  0  0  0  0  0  0  0  0  0
   -2.6661    0.9589    1.0576 O   0  0  0  0  0  0  0  0  0  0  0  0
    1.8931   -3.2752   -0.9730 O   0  0  0  0  0  0  0  0  0  0  0  0
    1.2615   -1.1066   -0.4323 N   0  0  0  0  0  0  0  0  0  0  0  0
   -1.4255   -0.8507    0.1151 N   0  0  0  0  0  0  0  0  0  0  0  0
   -0.3165   -2.8128   -0.7969 N   0  0  0  0  0  0  0  0  0  0  0  0
   -3.8666   -2.1846   -0.2171 N   0  0  0  0  0  0  0  0  0  0  0  0
   -6.0878    0.0437    1.0018 N   0  0  0  0  0  0  0  0  0  0  0  0
   -0.1014    3.4023   -0.3764 C   0  0  1  0  0  0  0  0  0  0  0  0
   -1.2794    2.4180   -0.3209 C   0  0  1  0  0  0  0  0  0  0  0  0
    1.2473    2.8552    0.0956 C   0  0  0  0  0  0  0  0  0  0  0  0
   -1.4625    1.7359    1.0377 C   0  0  0  0  0  0  0  0  0  0  0  0
    2.5786    0.8903   -0.0604 C   0  0  0  0  0  0  0  0  0  0  0  0
    2.5036   -0.5162   -0.0877 C   0  0  0  0  0  0  0  0  0  0  0  0
    3.7704    1.5203    0.3172 C   0  0  0  0  0  0  0  0  0  0  0  0
   -2.6019   -0.2933    0.4795 C   0  0  0  0  0  0  0  0  0  0  0  0
    3.6281   -1.2664    0.2792 C   0  0  0  0  0  0  0  0  0  0  0  0
    4.8820    0.7598    0.6773 C   0  0  0  0  0  0  0  0  0  0  0  0
    4.8109   -0.6291    0.6582 C   0  0  0  0  0  0  0  0  0  0  0  0
   -1.4734   -2.0925   -0.4177 C   0  0  0  0  0  0  0  0  0  0  0  0
    1.0200   -2.4356   -0.7364 C   0  0  0  0  0  0  0  0  0  0  0  0
   -3.8005   -0.9539    0.3191 C   0  0  0  0  0  0  0  0  0  0  0  0
   -2.6902   -2.7374   -0.5770 C   0  0  0  0  0  0  0  0  0  0  0  0
   -5.0617   -0.4038    0.6955 C   0  0  0  0  0  0  0  0  0  0  0  0
   -0.3432    4.3105    0.1888 H   0  0  0  0  0  0  0  0  0  0  0  0
   -1.1905    1.6725   -1.1184 H   0  0  0  0  0  0  0  0  0  0  0  0
    1.2493    2.7680    1.1888 H   0  0  0  0  0  0  0  0  0  0  0  0
    2.0365    3.5469   -0.2195 H   0  0  0  0  0  0  0  0  0  0  0  0
   -1.5941    2.5019    1.8110 H   0  0  0  0  0  0  0  0  0  0  0  0
   -0.5976    1.1339    1.3368 H   0  0  0  0  0  0  0  0  0  0  0  0
    0.7362    4.5157   -1.7576 H   0  0  0  0  0  0  0  0  0  0  0  0
   -2.6071    3.8075    0.0874 H   0  0  0  0  0  0  0  0  0  0  0  0
    3.8721    2.6005    0.3225 H   0  0  0  0  0  0  0  0  0  0  0  0
    3.5981   -2.3507    0.3103 H   0  0  0  0  0  0  0  0  0  0  0  0
    0.4877   -0.4562   -0.5373 H   0  0  0  0  0  0  0  0  0  0  0  0
    5.7992    1.2667    0.9663 H   0  0  0  0  0  0  0  0  0  0  0  0
   -0.4813   -3.7660   -1.1124 H   0  0  0  0  0  0  0  0  0  0  0  0
   -2.7660   -3.7351   -0.9967 H   0  0  0  0  0  0  0  0  0  0  0  0
  1 22  1  0  0  0  0
  2 14  1  0  0  0  0
  2 16  1  0  0  0  0
  3 12  1  0  0  0  0
  3 34  1  0  0  0  0
  4 13  1  0  0  0  0
  4 35  1  0  0  0  0
  5 15  1  0  0  0  0
  5 19  1  0  0  0  0
  6 24  2  0  0  0  0
  7 17  1  0  0  0  0
  7 24  1  0  0  0  0
  7 38  1  0  0  0  0
  8 19  2  0  0  0  0
  8 23  1  0  0  0  0
  9 23  1  0  0  0  0
  9 24  1  0  0  0  0
  9 40  1  0  0  0  0
 10 25  2  0  0  0  0
 10 26  1  0  0  0  0
 11 27  3  0  0  0  0
 12 13  1  0  0  0  0
 12 14  1  0  0  0  0
 12 28  1  0  0  0  0
 13 15  1  0  0  0  0
 13 29  1  0  0  0  0
 14 30  1  0  0  0  0
 14 31  1  0  0  0  0
 15 32  1  0  0  0  0
 15 33  1  0  0  0  0
 16 17  2  0  0  0  0
 16 18  1  0  0  0  0
 17 20  1  0  0  0  0
 18 21  2  0  0  0  0
 18 36  1  0  0  0  0
 19 25  1  0  0  0  0
 20 22  2  0  0  0  0
 20 37  1  0  0  0  0
 21 22  1  0  0  0  0
 21 39  1  0  0  0  0
 23 26  2  0  0  0  0
 25 27  1  0  0  0  0
 26 41  1  0  0  0  0
M  END
> <PUBCHEM_COMPOUND_CID>
49830839

> <PUBCHEM_CONFORMER_RMSD>
0.6

> <PUBCHEM_CONFORMER_DIVERSEORDER>
1
10
6
2
9
7
3
8
5
4

> <PUBCHEM_MMFF94_PARTIAL_CHARGES>
35
1 -0.18
10 -0.62
11 -0.56
12 0.28
13 0.28
14 0.28
15 0.28
16 0.08
17 0.12
18 -0.15
19 0.39
2 -0.36
20 -0.15
21 -0.15
22 0.18
23 0.43
24 0.69
25 0.38
26 0.16
27 0.48
3 -0.68
34 0.4
35 0.4
36 0.15
37 0.15
38 0.37
39 0.15
4 -0.68
40 0.37
41 0.15
5 -0.36
6 -0.57
7 -0.55
8 -0.62
9 -0.55

> <PUBCHEM_EFFECTIVE_ROTOR_COUNT>
1.6

> <PUBCHEM_PHARMACOPHORE_FEATURES>
12
1 10 acceptor
1 11 acceptor
1 2 acceptor
1 3 acceptor
1 3 donor
1 4 acceptor
1 4 donor
1 6 acceptor
1 7 donor
1 9 donor
6 16 17 18 20 21 22 rings
6 8 10 19 23 25 26 rings

> <PUBCHEM_HEAVY_ATOM_COUNT>
27

> <PUBCHEM_ATOM_DEF_STEREO_COUNT>
0

> <PUBCHEM_ATOM_UDEF_STEREO_COUNT>
2

> <PUBCHEM_BOND_DEF_STEREO_COUNT>
0

> <PUBCHEM_BOND_UDEF_STEREO_COUNT>
0

> <PUBCHEM_ISOTOPIC_ATOM_COUNT>
0

> <PUBCHEM_COMPONENT_COUNT>
1

> <PUBCHEM_CACTVS_TAUTO_COUNT>
5

> <PUBCHEM_CONFORMER_ID>
02F85BB700000001

> <PUBCHEM_MMFF94_ENERGY>
89.9801

> <PUBCHEM_FEATURE_SELFOVERLAP>
60.947

> <PUBCHEM_SHAPE_FINGERPRINT>
10675989 125 16468945629354014823
10688039 33 18040434382271816061
1100329 8 18268713985972106475
11513181 2 17701549626151493350
11595378 159 18191278599369733482
12422481 6 18342182128663358323
12553582 1 18337686298589666917
12633257 1 18060145361672203360
12838862 33 18341879827337793281
13004483 165 18335695053030667288
13140716 1 18269275844819237883
13402501 40 18411699846488159641
138480 1 15817058773857653188
14117953 113 18412547574548712645
14178342 30 18199760141376750816
14394314 77 18268996551623331353
14790565 3 17327460732055701668
14840074 17 18337402633121814200
15042514 8 18265325107058180162
15196674 1 18270400619302340947
15950262 2 14141935856588508541
16728300 4 17825088329981641498
20261772 1 18412827997411331794
20642791 178 18193568985006113753
20715895 44 18341614781275244761
20739085 24 18336831995651349132
21796203 349 17903116426871959960
22113638 7 18197213856913695671
23402539 116 18271517680219456783
23559900 14 17773058503330428540
350125 39 18341893017883570024
3680242 22 18410583911000422091
4409770 3 18117260472535215532
474144 1 18042984252968870396
5104073 3 18269557298226537427
56633871 153 18412265055800516291
59755656 215 18201446831026603422
7064713 232 18059863860835862273
9709674 26 17979069388753950324
9862522 239 18199450096657206566

> <PUBCHEM_SHAPE_MULTIPOLES>
503.27
10.68
4.46
1.04
2.37
2.09
-0.04
-4.36
4.94
-0.74
-1.92
-0.07
0.2
-0.37

> <PUBCHEM_SHAPE_SELFOVERLAP>
1070.951

> <PUBCHEM_SHAPE_VOLUME>
275.9

> <PUBCHEM_COORDINATE_TYPE>
2
5
10

$$$$
