9888491
  -OEChem-10062121583D

 57 60  0     0  0  0  0  0  0999 V2000
    6.1794    1.0484   -1.2194 O   0  0  0  0  0  0  0  0  0  0  0  0
    2.1906    2.4418    1.0368 O   0  0  0  0  0  0  0  0  0  0  0  0
    4.6116    3.0686   -0.1550 O   0  0  0  0  0  0  0  0  0  0  0  0
   -5.0679    0.8564   -0.1523 N   0  0  0  0  0  0  0  0  0  0  0  0
   -7.3739    2.5347   -0.0296 N   0  0  0  0  0  0  0  0  0  0  0  0
   -4.0672   -1.2046    0.5555 N   0  0  0  0  0  0  0  0  0  0  0  0
    0.5740   -1.9718    0.0453 N   0  0  0  0  0  0  0  0  0  0  0  0
    2.9066   -2.2214    0.0971 N   0  0  0  0  0  0  0  0  0  0  0  0
    1.5819   -4.1567    0.1783 N   0  0  0  0  0  0  0  0  0  0  0  0
   -4.9645    2.2066    0.4120 C   0  0  0  0  0  0  0  0  0  0  0  0
   -6.4115    0.2620   -0.1399 C   0  0  0  0  0  0  0  0  0  0  0  0
   -6.0413    3.1175   -0.1771 C   0  0  0  0  0  0  0  0  0  0  0  0
   -7.4356    1.2422   -0.7105 C   0  0  0  0  0  0  0  0  0  0  0  0
   -3.9664   -0.0049   -0.0967 C   0  0  0  0  0  0  0  0  0  0  0  0
   -2.7741    0.3923   -0.7182 C   0  0  0  0  0  0  0  0  0  0  0  0
   -1.6703   -0.4521   -0.6701 C   0  0  0  0  0  0  0  0  0  0  0  0
   -1.7636   -1.6723   -0.0102 C   0  0  0  0  0  0  0  0  0  0  0  0
   -2.9735   -1.9987    0.5813 C   0  0  0  0  0  0  0  0  0  0  0  0
   -0.6349   -2.5703    0.0573 C   0  0  0  0  0  0  0  0  0  0  0  0
   -0.8143   -3.9365    0.1269 C   0  0  0  0  0  0  0  0  0  0  0  0
    3.3377   -0.8834    0.0337 C   0  0  0  0  0  0  0  0  0  0  0  0
    1.6242   -2.8125    0.1072 C   0  0  0  0  0  0  0  0  0  0  0  0
    2.5464    0.1340    0.5709 C   0  0  0  0  0  0  0  0  0  0  0  0
    4.5584   -0.5687   -0.5669 C   0  0  0  0  0  0  0  0  0  0  0  0
    4.9859    0.7575   -0.6300 C   0  0  0  0  0  0  0  0  0  0  0  0
    2.9737    1.4604    0.5078 C   0  0  0  0  0  0  0  0  0  0  0  0
    4.1936    1.7721   -0.0927 C   0  0  0  0  0  0  0  0  0  0  0  0
    0.3417   -4.6877    0.1862 C   0  0  0  0  0  0  0  0  0  0  0  0
    7.3326    1.0514   -0.3804 C   0  0  0  0  0  0  0  0  0  0  0  0
    1.2323    3.0442    0.1691 C   0  0  0  0  0  0  0  0  0  0  0  0
    4.7883    3.7515    1.0838 C   0  0  0  0  0  0  0  0  0  0  0  0
   -5.0732    2.1493    1.5027 H   0  0  0  0  0  0  0  0  0  0  0  0
   -3.9860    2.6559    0.2085 H   0  0  0  0  0  0  0  0  0  0  0  0
   -6.4336   -0.6516   -0.7470 H   0  0  0  0  0  0  0  0  0  0  0  0
   -6.6815   -0.0129    0.8878 H   0  0  0  0  0  0  0  0  0  0  0  0
   -6.0151    4.0844    0.3371 H   0  0  0  0  0  0  0  0  0  0  0  0
   -5.8336    3.3117   -1.2370 H   0  0  0  0  0  0  0  0  0  0  0  0
   -8.4405    0.8224   -0.5923 H   0  0  0  0  0  0  0  0  0  0  0  0
   -7.2695    1.3791   -1.7865 H   0  0  0  0  0  0  0  0  0  0  0  0
   -8.0634    3.1640   -0.4397 H   0  0  0  0  0  0  0  0  0  0  0  0
   -2.6992    1.3372   -1.2486 H   0  0  0  0  0  0  0  0  0  0  0  0
   -0.7557   -0.1368   -1.1662 H   0  0  0  0  0  0  0  0  0  0  0  0
   -3.1279   -2.9190    1.1360 H   0  0  0  0  0  0  0  0  0  0  0  0
   -1.7790   -4.4274    0.1160 H   0  0  0  0  0  0  0  0  0  0  0  0
    3.6499   -2.9078    0.0089 H   0  0  0  0  0  0  0  0  0  0  0  0
    1.6129   -0.0736    1.0844 H   0  0  0  0  0  0  0  0  0  0  0  0
    5.1799   -1.3551   -0.9892 H   0  0  0  0  0  0  0  0  0  0  0  0
    0.3017   -5.7705    0.2380 H   0  0  0  0  0  0  0  0  0  0  0  0
    8.2013    1.3073   -0.9932 H   0  0  0  0  0  0  0  0  0  0  0  0
    7.2321    1.7985    0.4129 H   0  0  0  0  0  0  0  0  0  0  0  0
    7.4918    0.0599    0.0555 H   0  0  0  0  0  0  0  0  0  0  0  0
    0.5087    2.2997   -0.1779 H   0  0  0  0  0  0  0  0  0  0  0  0
    0.6984    3.8152    0.7312 H   0  0  0  0  0  0  0  0  0  0  0  0
    1.7276    3.5143   -0.6863 H   0  0  0  0  0  0  0  0  0  0  0  0
    5.6307    4.4402    0.9709 H   0  0  0  0  0  0  0  0  0  0  0  0
    3.8981    4.3423    1.3168 H   0  0  0  0  0  0  0  0  0  0  0  0
    5.0173    3.0654    1.9068 H   0  0  0  0  0  0  0  0  0  0  0  0
  1 25  1  0  0  0  0
  1 29  1  0  0  0  0
  2 26  1  0  0  0  0
  2 30  1  0  0  0  0
  3 27  1  0  0  0  0
  3 31  1  0  0  0  0
  4 10  1  0  0  0  0
  4 11  1  0  0  0  0
  4 14  1  0  0  0  0
  5 12  1  0  0  0  0
  5 13  1  0  0  0  0
  5 40  1  0  0  0  0
  6 14  2  0  0  0  0
  6 18  1  0  0  0  0
  7 19  2  0  0  0  0
  7 22  1  0  0  0  0
  8 21  1  0  0  0  0
  8 22  1  0  0  0  0
  8 45  1  0  0  0  0
  9 22  2  0  0  0  0
  9 28  1  0  0  0  0
 10 12  1  0  0  0  0
 10 32  1  0  0  0  0
 10 33  1  0  0  0  0
 11 13  1  0  0  0  0
 11 34  1  0  0  0  0
 11 35  1  0  0  0  0
 12 36  1  0  0  0  0
 12 37  1  0  0  0  0
 13 38  1  0  0  0  0
 13 39  1  0  0  0  0
 14 15  1  0  0  0  0
 15 16  2  0  0  0  0
 15 41  1  0  0  0  0
 16 17  1  0  0  0  0
 16 42  1  0  0  0  0
 17 18  2  0  0  0  0
 17 19  1  0  0  0  0
 18 43  1  0  0  0  0
 19 20  1  0  0  0  0
 20 28  2  0  0  0  0
 20 44  1  0  0  0  0
 21 23  2  0  0  0  0
 21 24  1  0  0  0  0
 23 26  1  0  0  0  0
 23 46  1  0  0  0  0
 24 25  2  0  0  0  0
 24 47  1  0  0  0  0
 25 27  1  0  0  0  0
 26 27  2  0  0  0  0
 28 48  1  0  0  0  0
 29 49  1  0  0  0  0
 29 50  1  0  0  0  0
 29 51  1  0  0  0  0
 30 52  1  0  0  0  0
 30 53  1  0  0  0  0
 30 54  1  0  0  0  0
 31 55  1  0  0  0  0
 31 56  1  0  0  0  0
 31 57  1  0  0  0  0
M  END
> <PUBCHEM_COMPOUND_CID>
9888491

> <PUBCHEM_CONFORMER_RMSD>
1

> <PUBCHEM_CONFORMER_DIVERSEORDER>
1
23
22
18
6
14
27
11
24
17
8
15
13
5
25
21
12
16
26
20
10
19
9
7
4
3
2

> <PUBCHEM_MMFF94_PARTIAL_CHARGES>
39
1 -0.36
10 0.37
11 0.37
12 0.27
13 0.27
14 0.41
15 -0.15
16 -0.15
18 0.16
19 0.31
2 -0.36
20 -0.15
21 0.1
22 0.72
23 -0.15
24 -0.15
25 0.08
26 0.08
27 0.08
28 0.16
29 0.28
3 -0.36
30 0.28
31 0.28
4 -0.84
40 0.36
41 0.15
42 0.15
43 0.15
44 0.15
45 0.4
46 0.15
47 0.15
48 0.15
5 -0.9
6 -0.62
7 -0.62
8 -0.6
9 -0.62

> <PUBCHEM_EFFECTIVE_ROTOR_COUNT>
8.2

> <PUBCHEM_PHARMACOPHORE_FEATURES>
13
1 1 acceptor
1 2 acceptor
1 3 acceptor
1 5 cation
1 5 donor
1 7 acceptor
1 8 donor
3 4 6 14 cation
4 7 8 9 22 cation
6 21 23 24 25 26 27 rings
6 4 5 10 11 12 13 rings
6 6 14 15 16 17 18 rings
6 7 9 19 20 22 28 rings

> <PUBCHEM_HEAVY_ATOM_COUNT>
31

> <PUBCHEM_ATOM_DEF_STEREO_COUNT>
0

> <PUBCHEM_ATOM_UDEF_STEREO_COUNT>
0

> <PUBCHEM_BOND_DEF_STEREO_COUNT>
0

> <PUBCHEM_BOND_UDEF_STEREO_COUNT>
0

> <PUBCHEM_ISOTOPIC_ATOM_COUNT>
0

> <PUBCHEM_COMPONENT_COUNT>
1

> <PUBCHEM_CACTVS_TAUTO_COUNT>
3

> <PUBCHEM_CONFORMER_ID>
0096E2EB00000001

> <PUBCHEM_MMFF94_ENERGY>
137.0723

> <PUBCHEM_FEATURE_SELFOVERLAP>
65.981

> <PUBCHEM_SHAPE_FINGERPRINT>
10050765 1 18409449168184256371
10165383 225 18334014995347837974
10411042 1 17545600050376053234
10483366 6 18339371752027832414
10675989 125 18341613672440998992
10864689 126 18411426103080173580
11136131 41 18117273653911302970
11273773 38 18335144219333092404
1200032 147 18186806855187840226
12107183 9 18263345006960380914
12677640 9 18196093463914425671
12838862 33 18339626902643628928
12925494 130 18408886239857613217
13248334 5 18120373146894065154
13402501 40 18410013264555250868
1361 2 18409446990487507737
13878862 14 18046043992471488013
13944108 23 18266743467703685740
14117953 113 18340204073423567510
14142895 15 18411132517018504805
14223995 32 18340481266502448744
14415360 78 18265036097786394396
14790565 3 18410296925522797373
14931854 50 18130516257749866436
15082195 135 18268403803925022423
15183329 4 18342458119283933985
15320467 1 18410573942661591121
15322687 12 18412823590363462098
15351339 4 18270680861771176824
15400415 2 18338795727456042297
15890870 6 18409168809338678380
15927050 60 18341046402315057999
15979999 66 17623577445114282726
16067689 134 17911254814536331257
16087824 20 18410013205017039612
16992727 255 18261968448493764452
19053607 189 18338504249763769729
20691028 202 18336265764269652060
20715895 44 18411979170150336002
21033648 29 18339355391753493112
21585483 110 18409730634459379141
22122407 14 18269563745694680217
23569914 152 17985856782308475124
23845131 108 18261111876842679371
24204213 92 17557718971655483206
2747138 104 17898585429959639403
2838139 119 18341330088840931070
3411729 13 18262518087615521595
34797466 226 17987521416974214391
4058900 60 18334867090678285787
44555599 121 17840306624094777425
508706 21 18051408775859951690
5109719 28 18410583851519849931
5252454 2 18187917422135464438
5776283 40 18340491157443437880
6371380 46 18341610451621701960
9849439 229 18340471365842916498

> <PUBCHEM_SHAPE_MULTIPOLES>
590.47
17.85
5.64
0.83
13.7
3.56
-0.01
-20.15
-3.03
-1.5
1.09
-0.4
-0.27
0.81

> <PUBCHEM_SHAPE_SELFOVERLAP>
1269.901

> <PUBCHEM_SHAPE_VOLUME>
321.9

> <PUBCHEM_COORDINATE_TYPE>
2
5
10

$$$$
