49830762
  -OEChem-10052120433D

 47 50  0     0  0  0  0  0  0999 V2000
   -1.2482    3.0959   -0.7313 S   0  0  0  0  0  0  0  0  0  0  0  0
    1.3574    2.9023    0.5829 O   0  0  0  0  0  0  0  0  0  0  0  0
   -4.5564    1.3807   -1.3228 N   0  0  0  0  0  0  0  0  0  0  0  0
    1.1687    0.8189    1.5832 N   0  0  0  0  0  0  0  0  0  0  0  0
   -3.7403    2.4662   -1.5301 N   0  0  0  0  0  0  0  0  0  0  0  0
    6.4539   -1.4527   -1.1869 N   0  0  0  0  0  0  0  0  0  0  0  0
   -2.7585    0.8827   -0.2388 C   0  0  0  0  0  0  0  0  0  0  0  0
   -3.9828    0.3859   -0.5311 C   0  0  0  0  0  0  0  0  0  0  0  0
   -2.6814    2.1146   -0.8605 C   0  0  0  0  0  0  0  0  0  0  0  0
   -1.5384    0.6593    0.4358 C   0  0  0  0  0  0  0  0  0  0  0  0
   -0.6544    1.7413    0.2613 C   0  0  0  0  0  0  0  0  0  0  0  0
   -4.6574   -0.8413   -0.1852 C   0  0  0  0  0  0  0  0  0  0  0  0
    2.4724    0.8136    2.2070 C   0  0  0  0  0  0  0  0  0  0  0  0
    3.5206    0.2168    1.3130 C   0  0  0  0  0  0  0  0  0  0  0  0
    0.6682    1.8740    0.7927 C   0  0  0  0  0  0  0  0  0  0  0  0
    5.4694   -0.8921   -0.3468 C   0  0  0  0  0  0  0  0  0  0  0  0
    3.5789   -1.1652    1.1324 C   0  0  0  0  0  0  0  0  0  0  0  0
    4.4369    1.0442    0.6637 C   0  0  0  0  0  0  0  0  0  0  0  0
    4.5532   -1.7197    0.3024 C   0  0  0  0  0  0  0  0  0  0  0  0
    5.4111    0.4898   -0.1662 C   0  0  0  0  0  0  0  0  0  0  0  0
   -3.9200   -2.0053    0.0316 C   0  0  0  0  0  0  0  0  0  0  0  0
   -6.0469   -0.8640   -0.0677 C   0  0  0  0  0  0  0  0  0  0  0  0
   -4.5723   -3.1921    0.3659 C   0  0  0  0  0  0  0  0  0  0  0  0
   -6.6993   -2.0507    0.2666 C   0  0  0  0  0  0  0  0  0  0  0  0
    7.4057   -0.6010   -1.8722 C   0  0  0  0  0  0  0  0  0  0  0  0
    6.5218   -2.8873   -1.3821 C   0  0  0  0  0  0  0  0  0  0  0  0
   -5.9620   -3.2148    0.4835 C   0  0  0  0  0  0  0  0  0  0  0  0
   -1.3152   -0.2277    1.0135 H   0  0  0  0  0  0  0  0  0  0  0  0
    2.3958    0.2339    3.1340 H   0  0  0  0  0  0  0  0  0  0  0  0
    2.7374    1.8385    2.4911 H   0  0  0  0  0  0  0  0  0  0  0  0
   -5.4732    1.3854   -1.7526 H   0  0  0  0  0  0  0  0  0  0  0  0
    0.6000   -0.0074    1.7319 H   0  0  0  0  0  0  0  0  0  0  0  0
    2.8699   -1.8191    1.6335 H   0  0  0  0  0  0  0  0  0  0  0  0
    4.4017    2.1225    0.7946 H   0  0  0  0  0  0  0  0  0  0  0  0
    4.5565   -2.7998    0.1944 H   0  0  0  0  0  0  0  0  0  0  0  0
    6.1002    1.1756   -0.6490 H   0  0  0  0  0  0  0  0  0  0  0  0
   -2.8376   -2.0203   -0.0641 H   0  0  0  0  0  0  0  0  0  0  0  0
   -6.6481    0.0288   -0.2204 H   0  0  0  0  0  0  0  0  0  0  0  0
   -3.9986   -4.0992    0.5322 H   0  0  0  0  0  0  0  0  0  0  0  0
   -7.7812   -2.0683    0.3605 H   0  0  0  0  0  0  0  0  0  0  0  0
    6.8984    0.0931   -2.5516 H   0  0  0  0  0  0  0  0  0  0  0  0
    8.0169   -0.0366   -1.1591 H   0  0  0  0  0  0  0  0  0  0  0  0
    8.1021   -1.1837   -2.4856 H   0  0  0  0  0  0  0  0  0  0  0  0
    6.7101   -3.4072   -0.4361 H   0  0  0  0  0  0  0  0  0  0  0  0
    5.5999   -3.2693   -1.8344 H   0  0  0  0  0  0  0  0  0  0  0  0
    7.3385   -3.1657   -2.0575 H   0  0  0  0  0  0  0  0  0  0  0  0
   -6.4699   -4.1388    0.7437 H   0  0  0  0  0  0  0  0  0  0  0  0
  1  9  1  0  0  0  0
  1 11  1  0  0  0  0
  2 15  2  0  0  0  0
  3  5  1  0  0  0  0
  3  8  1  0  0  0  0
  3 31  1  0  0  0  0
  4 13  1  0  0  0  0
  4 15  1  0  0  0  0
  4 32  1  0  0  0  0
  5  9  2  0  0  0  0
  6 16  1  0  0  0  0
  6 25  1  0  0  0  0
  6 26  1  0  0  0  0
  7  8  2  0  0  0  0
  7  9  1  0  0  0  0
  7 10  1  0  0  0  0
  8 12  1  0  0  0  0
 10 11  2  0  0  0  0
 10 28  1  0  0  0  0
 11 15  1  0  0  0  0
 12 21  2  0  0  0  0
 12 22  1  0  0  0  0
 13 14  1  0  0  0  0
 13 29  1  0  0  0  0
 13 30  1  0  0  0  0
 14 17  2  0  0  0  0
 14 18  1  0  0  0  0
 16 19  2  0  0  0  0
 16 20  1  0  0  0  0
 17 19  1  0  0  0  0
 17 33  1  0  0  0  0
 18 20  2  0  0  0  0
 18 34  1  0  0  0  0
 19 35  1  0  0  0  0
 20 36  1  0  0  0  0
 21 23  1  0  0  0  0
 21 37  1  0  0  0  0
 22 24  2  0  0  0  0
 22 38  1  0  0  0  0
 23 27  2  0  0  0  0
 23 39  1  0  0  0  0
 24 27  1  0  0  0  0
 24 40  1  0  0  0  0
 25 41  1  0  0  0  0
 25 42  1  0  0  0  0
 25 43  1  0  0  0  0
 26 44  1  0  0  0  0
 26 45  1  0  0  0  0
 26 46  1  0  0  0  0
 27 47  1  0  0  0  0
M  END
> <PUBCHEM_COMPOUND_CID>
49830762

> <PUBCHEM_CONFORMER_RMSD>
0.8

> <PUBCHEM_CONFORMER_DIVERSEORDER>
1
27
20
26
37
5
18
7
10
34
30
24
11
28
17
31
3
21
4
23
12
35
22
9
32
6
8
16
25
29
2
14
19
36
33
13
15

> <PUBCHEM_MMFF94_PARTIAL_CHARGES>
39
1 -0.11
10 -0.15
11 -0.05
12 0.05
13 0.44
14 -0.14
15 0.71
16 0.1
17 -0.15
18 -0.15
19 -0.15
2 -0.57
20 -0.15
21 -0.15
22 -0.15
23 -0.15
24 -0.15
25 0.37
26 0.37
27 -0.15
28 0.15
3 0.3
31 0.27
32 0.37
33 0.15
34 0.15
35 0.15
36 0.15
37 0.15
38 0.15
39 0.15
4 -0.73
40 0.15
47 0.15
5 -0.73
6 -0.84
7 -0.01
8 -0.2
9 0.39

> <PUBCHEM_EFFECTIVE_ROTOR_COUNT>
6

> <PUBCHEM_PHARMACOPHORE_FEATURES>
9
1 2 acceptor
1 3 donor
1 4 donor
1 5 acceptor
1 6 cation
5 1 7 9 10 11 rings
5 3 5 7 8 9 rings
6 12 21 22 23 24 27 rings
6 14 16 17 18 19 20 rings

> <PUBCHEM_HEAVY_ATOM_COUNT>
27

> <PUBCHEM_ATOM_DEF_STEREO_COUNT>
0

> <PUBCHEM_ATOM_UDEF_STEREO_COUNT>
0

> <PUBCHEM_BOND_DEF_STEREO_COUNT>
0

> <PUBCHEM_BOND_UDEF_STEREO_COUNT>
0

> <PUBCHEM_ISOTOPIC_ATOM_COUNT>
0

> <PUBCHEM_COMPONENT_COUNT>
1

> <PUBCHEM_CACTVS_TAUTO_COUNT>
7

> <PUBCHEM_CONFORMER_ID>
02F85B6A00000001

> <PUBCHEM_MMFF94_ENERGY>
106.6118

> <PUBCHEM_FEATURE_SELFOVERLAP>
45.938

> <PUBCHEM_SHAPE_FINGERPRINT>
10883706 17 18339084771072528774
10928967 22 17987782060673964510
11056379 131 18261949661842554973
11315621 246 18261109617314744284
117089 54 18341058479182735135
11828042 163 18336533973437571191
12107183 9 11671793654340128580
12342043 65 18272646874350190193
12422481 6 13470420975644675665
12633257 1 15410887496404292204
13103583 49 13901896805116683568
13383661 66 18272100412987851442
13402501 40 18342175591771190739
13673619 4 18202284710320782480
13690498 29 18187363229604269053
13757389 114 17970061150576625541
13782708 43 18202558484247174750
13911987 19 13984660352353444273
14117953 113 18335972165375718255
14251732 14 18259985976597232474
14251764 30 18343304764537376266
14420673 8 18412829092950096331
14556957 393 15141227815911188151
14767858 380 17022618697559020672
14950920 106 15984256473808577779
15230672 131 18118961391227395563
15352257 5 18272092698983435550
15461852 350 18260264132624422768
15510800 12 17702956821100594358
16120349 21 18410299121358556625
195137 95 8430321199669131686
20621476 21 18341613741371146947
21095086 4 18342747329095954374
21196832 93 18410580604482642102
21307412 95 18340477868893011581
21344244 246 18263652917498266996
21585481 104 16009295501763057455
21682296 61 18202563999454596815
21968339 14 13695853845041055272
22765269 38 11818992989363404280
2303208 19 18272646861496657216
23379529 103 18265331888247337107
23559900 14 18410844456570428576
25019877 29 17325761977478887212
255183 451 18263645224773535253
2838139 119 15791735162113679836
3089732 80 18341611533610510571
3862424 121 18265351644886324494
393628 179 13984670304209694078
4107672 100 18114463349693816877
437795 70 18189054351339449891
437815 12 18271805761425029057
439807 62 18410295783251582614
4435113 14 18271255974935271550
44880168 125 17988917903419781751
46194498 28 18263075664723240992
465052 167 17917994979896147012
484989 97 18342182150908918782
57816373 69 18129093614827054359
6823239 73 18339346535372530744
6898599 12 17677882436474388781
7237137 82 17603852400322520285
7918774 8 18060142029004213576
8217 86 18410857668205601704
8863177 126 18271802470873782434
999808 66 17847064363633035174

> <PUBCHEM_SHAPE_MULTIPOLES>
533.7
19.86
3.84
1.5
11.61
0.57
-0.1
18.72
6.79
-3.72
0.63
2.1
-0.26
3.54

> <PUBCHEM_SHAPE_SELFOVERLAP>
1158.652

> <PUBCHEM_SHAPE_VOLUME>
295

> <PUBCHEM_COORDINATE_TYPE>
2
5
10

$$$$
