49830675
  -OEChem-10052120443D

 35 38  0     0  0  0  0  0  0999 V2000
    6.8856    0.1149    0.5194 Br  0  0  0  0  0  0  0  0  0  0  0  0
   -3.5845   -3.0367    0.2340 O   0  0  0  0  0  0  0  0  0  0  0  0
   -2.5524    2.3365   -0.1145 N   0  0  0  0  0  0  0  0  0  0  0  0
    1.1566   -0.5325   -0.5576 N   0  0  0  0  0  0  0  0  0  0  0  0
    3.3381   -1.5680   -0.7587 N   0  0  0  0  0  0  0  0  0  0  0  0
    4.1992    0.8697    0.5182 N   0  0  0  0  0  0  0  0  0  0  0  0
   -0.7455    1.0482   -0.0610 C   0  0  0  0  0  0  0  0  0  0  0  0
   -1.8925    0.2089    0.0080 C   0  0  0  0  0  0  0  0  0  0  0  0
   -3.0127    1.0420   -0.0271 C   0  0  0  0  0  0  0  0  0  0  0  0
    0.6701    0.6510   -0.0589 C   0  0  0  0  0  0  0  0  0  0  0  0
   -1.1834    2.3504   -0.1356 C   0  0  0  0  0  0  0  0  0  0  0  0
   -2.0857   -1.1839    0.0972 C   0  0  0  0  0  0  0  0  0  0  0  0
   -4.3218    0.5498    0.0228 C   0  0  0  0  0  0  0  0  0  0  0  0
    1.7314    1.3835    0.4322 C   0  0  0  0  0  0  0  0  0  0  0  0
    2.5141   -0.5690   -0.3930 C   0  0  0  0  0  0  0  0  0  0  0  0
    2.8994    0.6147    0.2225 C   0  0  0  0  0  0  0  0  0  0  0  0
   -3.3805    3.5215   -0.1764 C   0  0  0  0  0  0  0  0  0  0  0  0
   -3.3894   -1.6905    0.1479 C   0  0  0  0  0  0  0  0  0  0  0  0
   -4.4889   -0.8351    0.1113 C   0  0  0  0  0  0  0  0  0  0  0  0
    4.6242   -1.2933   -0.4555 C   0  0  0  0  0  0  0  0  0  0  0  0
    5.0382   -0.1237    0.1573 C   0  0  0  0  0  0  0  0  0  0  0  0
   -2.4195   -3.8586    0.2676 C   0  0  0  0  0  0  0  0  0  0  0  0
   -0.6387    3.2834   -0.2043 H   0  0  0  0  0  0  0  0  0  0  0  0
   -1.2046   -1.8099    0.1374 H   0  0  0  0  0  0  0  0  0  0  0  0
   -5.1819    1.2104   -0.0054 H   0  0  0  0  0  0  0  0  0  0  0  0
    0.6097   -1.2573   -1.0007 H   0  0  0  0  0  0  0  0  0  0  0  0
    1.6772    2.3607    0.8931 H   0  0  0  0  0  0  0  0  0  0  0  0
   -4.0135    3.4537   -1.0648 H   0  0  0  0  0  0  0  0  0  0  0  0
   -3.9882    3.5652    0.7309 H   0  0  0  0  0  0  0  0  0  0  0  0
   -2.7471    4.4100   -0.2405 H   0  0  0  0  0  0  0  0  0  0  0  0
   -5.4958   -1.2441    0.1515 H   0  0  0  0  0  0  0  0  0  0  0  0
    5.3264   -2.0735   -0.7330 H   0  0  0  0  0  0  0  0  0  0  0  0
   -1.8376   -3.7726   -0.6565 H   0  0  0  0  0  0  0  0  0  0  0  0
   -1.8152   -3.6656    1.1606 H   0  0  0  0  0  0  0  0  0  0  0  0
   -2.7598   -4.8973    0.3330 H   0  0  0  0  0  0  0  0  0  0  0  0
  1 21  1  0  0  0  0
  2 18  1  0  0  0  0
  2 22  1  0  0  0  0
  3  9  1  0  0  0  0
  3 11  1  0  0  0  0
  3 17  1  0  0  0  0
  4 10  1  0  0  0  0
  4 15  1  0  0  0  0
  4 26  1  0  0  0  0
  5 15  2  0  0  0  0
  5 20  1  0  0  0  0
  6 16  2  0  0  0  0
  6 21  1  0  0  0  0
  7  8  1  0  0  0  0
  7 10  1  0  0  0  0
  7 11  2  0  0  0  0
  8  9  2  0  0  0  0
  8 12  1  0  0  0  0
  9 13  1  0  0  0  0
 10 14  2  0  0  0  0
 11 23  1  0  0  0  0
 12 18  2  0  0  0  0
 12 24  1  0  0  0  0
 13 19  2  0  0  0  0
 13 25  1  0  0  0  0
 14 16  1  0  0  0  0
 14 27  1  0  0  0  0
 15 16  1  0  0  0  0
 17 28  1  0  0  0  0
 17 29  1  0  0  0  0
 17 30  1  0  0  0  0
 18 19  1  0  0  0  0
 19 31  1  0  0  0  0
 20 21  2  0  0  0  0
 20 32  1  0  0  0  0
 22 33  1  0  0  0  0
 22 34  1  0  0  0  0
 22 35  1  0  0  0  0
M  END
> <PUBCHEM_COMPOUND_CID>
49830675

> <PUBCHEM_CONFORMER_RMSD>
0.6

> <PUBCHEM_CONFORMER_DIVERSEORDER>
1
9
8
2
10
11
6
3
5
12
7
4

> <PUBCHEM_MMFF94_PARTIAL_CHARGES>
27
1 -0.11
10 -0.15
11 -0.3
12 -0.15
13 -0.15
14 -0.15
15 0.11
16 0.26
17 0.26
18 0.08
19 -0.15
2 -0.36
20 0.16
21 0.42
22 0.28
23 0.15
24 0.15
25 0.15
26 0.27
27 0.15
3 0.05
31 0.15
32 0.15
4 0.03
5 -0.57
6 -0.57
9 -0.15

> <PUBCHEM_EFFECTIVE_ROTOR_COUNT>
2

> <PUBCHEM_PHARMACOPHORE_FEATURES>
10
1 1 hydrophobe
1 2 acceptor
1 3 cation
1 4 donor
1 6 acceptor
3 4 5 15 cation
5 3 7 8 9 11 rings
5 4 10 14 15 16 rings
6 5 6 15 16 20 21 rings
6 8 9 12 13 18 19 rings

> <PUBCHEM_HEAVY_ATOM_COUNT>
22

> <PUBCHEM_ATOM_DEF_STEREO_COUNT>
0

> <PUBCHEM_ATOM_UDEF_STEREO_COUNT>
0

> <PUBCHEM_BOND_DEF_STEREO_COUNT>
0

> <PUBCHEM_BOND_UDEF_STEREO_COUNT>
0

> <PUBCHEM_ISOTOPIC_ATOM_COUNT>
0

> <PUBCHEM_COMPONENT_COUNT>
1

> <PUBCHEM_CACTVS_TAUTO_COUNT>
3

> <PUBCHEM_CONFORMER_ID>
02F85B1300000001

> <PUBCHEM_MMFF94_ENERGY>
52.5701

> <PUBCHEM_FEATURE_SELFOVERLAP>
50.971

> <PUBCHEM_SHAPE_FINGERPRINT>
10319926 262 18268411492037288658
10411042 1 18121500426038622075
105312 117 17606107391365855693
10616163 171 18410858762979663678
11056379 131 18410584971883717892
11315181 36 18113617885291811020
11552529 35 17631452439702676151
12107183 9 17685768026541360824
12236239 1 17385443207020155944
12403259 415 18060410327454277472
12990986 174 18264772249413553179
13140716 1 18267592497360465945
13167823 11 18260264119027611114
13402501 40 18343304772974843391
13583140 156 17988915678715860108
13631057 29 18411417358147268946
138480 1 16536513260058753295
13911882 115 18060429019146642398
14341114 176 18413113844533121104
14429380 30 17978226385337381966
14508225 48 18337377345114271589
14790565 3 17476083427841453393
14844126 61 18335701684687052051
15042514 8 18336271240800963803
15196674 1 18340768127009185732
15250474 111 18260536802343975850
15352361 1 18339080526816022047
15927050 60 18053100619728626325
17844677 252 18411143537087434568
1813 80 17603587464763674397
18927931 339 18409172133685849239
19141452 34 18342182197963213243
200 152 17489581251769028245
20510252 161 18270963441003017969
21033648 29 17488724719494927064
21065198 57 18411699851126076652
21065201 7 18337668625189530072
21267235 1 18336271231862811027
22122407 14 15984832574772297971
221490 88 18340771545776896536
23402539 116 18260824925591767966
23557571 272 18271812298054491140
23559900 14 18412255168696110688
26918003 58 18272932730367265008
283562 15 18340765924208310905
335352 9 18410009949420838237
350125 39 18341050826278851240
3882209 13 16903241658242808454
4073 2 18409731742914213698
4214541 1 18411137991899390560
5104073 3 18271523088220988962
5364581 5 18127112290442283056
559249 180 18116429237454768210
67856867 119 18188213229618781452
9709674 26 18342743974747049734

> <PUBCHEM_SHAPE_MULTIPOLES>
432.9
12.46
3.38
0.7
17.8
1.14
0
1.88
-1.24
-5.77
-0.07
0.32
0.05
0.89

> <PUBCHEM_SHAPE_SELFOVERLAP>
958.917

> <PUBCHEM_SHAPE_VOLUME>
241

> <PUBCHEM_COORDINATE_TYPE>
2
5
10

$$$$
