10067064
  -OEChem-10052120443D

 43 46  0     0  0  0  0  0  0999 V2000
   -5.6898   -1.6854   -0.7905 O   0  0  0  0  0  0  0  0  0  0  0  0
    2.6140    0.1752   -1.2216 O   0  0  0  0  0  0  0  0  0  0  0  0
    1.7321   -0.5533    0.8232 N   0  0  0  0  0  0  0  0  0  0  0  0
   -4.3331   -1.9532   -0.6525 N   0  0  0  0  0  0  0  0  0  0  0  0
    4.0111   -0.2458    0.6059 N   0  0  0  0  0  0  0  0  0  0  0  0
   -7.1550    0.1713   -0.4255 N   0  0  0  0  0  0  0  0  0  0  0  0
   -6.0058    2.1507    0.4146 N   0  0  0  0  0  0  0  0  0  0  0  0
   -3.6553    2.1999    0.8205 N   0  0  0  0  0  0  0  0  0  0  0  0
   -2.3796   -0.7514    0.0686 C   0  0  0  0  0  0  0  0  0  0  0  0
   -3.7904   -0.8204   -0.1906 C   0  0  0  0  0  0  0  0  0  0  0  0
   -4.7518    0.1915   -0.0187 C   0  0  0  0  0  0  0  0  0  0  0  0
    0.3613   -0.6192    0.5713 C   0  0  0  0  0  0  0  0  0  0  0  0
   -1.8844   -1.0909    1.3276 C   0  0  0  0  0  0  0  0  0  0  0  0
   -1.5045   -0.3459   -0.9391 C   0  0  0  0  0  0  0  0  0  0  0  0
   -0.5140   -1.0247    1.5789 C   0  0  0  0  0  0  0  0  0  0  0  0
   -0.1339   -0.2798   -0.6878 C   0  0  0  0  0  0  0  0  0  0  0  0
   -5.9395   -0.4013   -0.4109 C   0  0  0  0  0  0  0  0  0  0  0  0
   -4.8106    1.5143    0.4049 C   0  0  0  0  0  0  0  0  0  0  0  0
    5.2946    0.0499    0.0892 C   0  0  0  0  0  0  0  0  0  0  0  0
    7.6689    0.2035    0.3968 C   0  0  0  0  0  0  0  0  0  0  0  0
    6.4040   -0.0884    0.9073 C   0  0  0  0  0  0  0  0  0  0  0  0
    2.7747   -0.1703   -0.0555 C   0  0  0  0  0  0  0  0  0  0  0  0
    5.4148    0.4720   -1.2246 C   0  0  0  0  0  0  0  0  0  0  0  0
    7.8067    0.6295   -0.9243 C   0  0  0  0  0  0  0  0  0  0  0  0
    6.6797    0.7637   -1.7349 C   0  0  0  0  0  0  0  0  0  0  0  0
    8.8743    0.0595    1.2635 C   0  0  0  0  0  0  0  0  0  0  0  0
   -7.0885    1.4490    0.0044 C   0  0  0  0  0  0  0  0  0  0  0  0
   -2.5532   -1.4085    2.1241 H   0  0  0  0  0  0  0  0  0  0  0  0
   -1.8759   -0.0777   -1.9256 H   0  0  0  0  0  0  0  0  0  0  0  0
   -0.1418   -1.2919    2.5648 H   0  0  0  0  0  0  0  0  0  0  0  0
    0.4766    0.0431   -1.5188 H   0  0  0  0  0  0  0  0  0  0  0  0
    2.0166   -0.8158    1.7637 H   0  0  0  0  0  0  0  0  0  0  0  0
    6.2951   -0.4223    1.9361 H   0  0  0  0  0  0  0  0  0  0  0  0
    3.9906   -0.5499    1.5760 H   0  0  0  0  0  0  0  0  0  0  0  0
    4.5959    0.6014   -1.9159 H   0  0  0  0  0  0  0  0  0  0  0  0
    8.7869    0.8580   -1.3343 H   0  0  0  0  0  0  0  0  0  0  0  0
    6.7886    1.0951   -2.7637 H   0  0  0  0  0  0  0  0  0  0  0  0
    9.2608   -0.9627    1.2023 H   0  0  0  0  0  0  0  0  0  0  0  0
    9.6664    0.7522    0.9592 H   0  0  0  0  0  0  0  0  0  0  0  0
    8.6370    0.2842    2.3089 H   0  0  0  0  0  0  0  0  0  0  0  0
   -8.0299    1.9878    0.0243 H   0  0  0  0  0  0  0  0  0  0  0  0
   -3.7421    3.1618    1.1201 H   0  0  0  0  0  0  0  0  0  0  0  0
   -2.7506    1.7523    0.8232 H   0  0  0  0  0  0  0  0  0  0  0  0
  1  4  1  0  0  0  0
  1 17  1  0  0  0  0
  2 22  2  0  0  0  0
  3 12  1  0  0  0  0
  3 22  1  0  0  0  0
  3 32  1  0  0  0  0
  4 10  2  0  0  0  0
  5 19  1  0  0  0  0
  5 22  1  0  0  0  0
  5 34  1  0  0  0  0
  6 17  2  0  0  0  0
  6 27  1  0  0  0  0
  7 18  1  0  0  0  0
  7 27  2  0  0  0  0
  8 18  1  0  0  0  0
  8 42  1  0  0  0  0
  8 43  1  0  0  0  0
  9 10  1  0  0  0  0
  9 13  2  0  0  0  0
  9 14  1  0  0  0  0
 10 11  1  0  0  0  0
 11 17  1  0  0  0  0
 11 18  2  0  0  0  0
 12 15  2  0  0  0  0
 12 16  1  0  0  0  0
 13 15  1  0  0  0  0
 13 28  1  0  0  0  0
 14 16  2  0  0  0  0
 14 29  1  0  0  0  0
 15 30  1  0  0  0  0
 16 31  1  0  0  0  0
 19 21  1  0  0  0  0
 19 23  2  0  0  0  0
 20 21  2  0  0  0  0
 20 24  1  0  0  0  0
 20 26  1  0  0  0  0
 21 33  1  0  0  0  0
 23 25  1  0  0  0  0
 23 35  1  0  0  0  0
 24 25  2  0  0  0  0
 24 36  1  0  0  0  0
 25 37  1  0  0  0  0
 26 38  1  0  0  0  0
 26 39  1  0  0  0  0
 26 40  1  0  0  0  0
 27 41  1  0  0  0  0
M  END
> <PUBCHEM_COMPOUND_CID>
10067064

> <PUBCHEM_CONFORMER_RMSD>
0.8

> <PUBCHEM_CONFORMER_DIVERSEORDER>
1
9
10
5
15
4
12
13
6
7
16
11
14
8
2
3

> <PUBCHEM_MMFF94_PARTIAL_CHARGES>
39
1 -0.02
10 0.23
12 0.12
13 -0.15
14 -0.15
15 -0.15
16 -0.15
17 0.4
18 0.41
19 0.12
2 -0.57
20 -0.14
21 -0.15
22 0.69
23 -0.15
24 -0.15
25 -0.15
26 0.14
27 0.47
28 0.15
29 0.15
3 -0.55
30 0.15
31 0.15
32 0.37
33 0.15
34 0.37
35 0.15
36 0.15
37 0.15
4 -0.41
41 0.15
42 0.4
43 0.4
5 -0.55
6 -0.57
7 -0.62
8 -0.9
9 0.05

> <PUBCHEM_EFFECTIVE_ROTOR_COUNT>
5

> <PUBCHEM_PHARMACOPHORE_FEATURES>
11
1 2 acceptor
1 3 donor
1 4 acceptor
1 5 donor
1 8 cation
1 8 donor
3 6 7 27 cation
5 1 4 10 11 17 rings
6 19 20 21 23 24 25 rings
6 6 7 11 17 18 27 rings
6 9 12 13 14 15 16 rings

> <PUBCHEM_HEAVY_ATOM_COUNT>
27

> <PUBCHEM_ATOM_DEF_STEREO_COUNT>
0

> <PUBCHEM_ATOM_UDEF_STEREO_COUNT>
0

> <PUBCHEM_BOND_DEF_STEREO_COUNT>
0

> <PUBCHEM_BOND_UDEF_STEREO_COUNT>
0

> <PUBCHEM_ISOTOPIC_ATOM_COUNT>
0

> <PUBCHEM_COMPONENT_COUNT>
1

> <PUBCHEM_CACTVS_TAUTO_COUNT>
23

> <PUBCHEM_CONFORMER_ID>
00999C7800000001

> <PUBCHEM_MMFF94_ENERGY>
82.2653

> <PUBCHEM_FEATURE_SELFOVERLAP>
55.988

> <PUBCHEM_SHAPE_FINGERPRINT>
10 15 13840270312272050774
10076449 9 17489870458393675651
10087517 78 18334858286143398605
10299344 5 18113053844442745534
10391435 84 15338825500483887166
10411042 1 17982445204002434263
106641 1 16660371385639358673
10730089 173 18341894078592961441
10906281 52 17822306681764302534
11315181 36 18113900490013465743
11456790 92 17530681001174973480
11719270 70 17417811708820219774
11991303 11 16486967453308122964
12082328 90 18341893004387186887
12091667 2 18412826910721717971
12166972 35 11167938065782426530
12236239 1 18187362108818323155
13288520 33 9727630605900936835
13533116 47 17967805021567079258
13668630 136 15051730898067709525
13914758 101 18413390921647729290
14251764 18 18040154032560381158
14251764 46 18113897170304374442
14849402 71 17749962170783923388
14856354 85 18340488962873074079
15183329 4 18343306959371309152
15198563 99 16343433803846778840
15419008 47 17275099527134338184
15419008 91 17417513788091570224
15461852 350 18341617052616924046
1577012 14 18259701185774017475
15849732 13 17132113559006471428
195137 175 18040723588912222724
20281389 69 16950279620429116756
21095086 128 9727641609881663768
21130935 74 17531249508963353714
21150785 3 16272206384195014888
21756936 100 18186804669603335635
21792961 116 17131838646354680023
22224240 67 15936412243069150059
23081809 10 18187361043434487634
23198884 109 18408606967471163995
23559900 14 14979662338926092458
23576562 1 18123193661128600068
249057 3 18131630123405973261
3178227 256 15140684674457665900
394071 54 16877664556990214054
4073 2 18260272953443776818
4093350 32 18339358570705006154
4339292 15 17488451040353870495
437795 51 13695862602785594096
44280117 145 17059766841118906525
44555599 121 18113907078377792988
445580 204 18335704918665244833
445580 37 18343872099547191105
5104073 3 16660932213662930872
5385378 56 17676483900754661474
54039377 194 11671483626985759069
5758199 1 17967250897133030578
5969126 39 13973688299849643667
59755656 520 17603583058106519331
6201320 215 18198898120108272400

> <PUBCHEM_SHAPE_MULTIPOLES>
514.02
26.17
1.5
1.29
27.96
0.29
-0.04
7.83
0.28
-2.58
0.23
0.86
0.02
-2.42

> <PUBCHEM_SHAPE_SELFOVERLAP>
1139.789

> <PUBCHEM_SHAPE_VOLUME>
271.6

> <PUBCHEM_COORDINATE_TYPE>
2
5
10

$$$$
