25164470
  -OEChem-10052115183D

 56 60  0     0  0  0  0  0  0999 V2000
   -4.1048   -1.9592   -0.4480 O   0  0  0  0  0  0  0  0  0  0  0  0
   -8.2372    0.2918    0.1245 N   0  0  0  0  0  0  0  0  0  0  0  0
   -2.9305   -0.0400   -0.1442 N   0  0  0  0  0  0  0  0  0  0  0  0
   -2.9659    1.3102   -0.0246 N   0  0  0  0  0  0  0  0  0  0  0  0
   -1.2509    2.9393    0.3075 N   0  0  0  0  0  0  0  0  0  0  0  0
    4.5863   -0.8759    0.8937 N   0  0  0  0  0  0  0  0  0  0  0  0
    3.2276   -2.1019   -0.2370 N   0  0  0  0  0  0  0  0  0  0  0  0
    4.5031   -1.9613    0.1075 N   0  0  0  0  0  0  0  0  0  0  0  0
   -5.3665    0.0949   -0.3945 C   0  0  0  0  0  0  0  0  0  0  0  0
   -6.4052   -0.5606   -1.3023 C   0  0  0  0  0  0  0  0  0  0  0  0
   -5.9291    0.2734    1.0147 C   0  0  0  0  0  0  0  0  0  0  0  0
   -7.7372    0.1902   -1.2535 C   0  0  0  0  0  0  0  0  0  0  0  0
   -7.2774    0.9952    0.9866 C   0  0  0  0  0  0  0  0  0  0  0  0
   -4.1263   -0.7422   -0.3375 C   0  0  0  0  0  0  0  0  0  0  0  0
   -9.5358    0.9647    0.1492 C   0  0  0  0  0  0  0  0  0  0  0  0
   -1.6376   -0.5407   -0.0508 C   0  0  0  0  0  0  0  0  0  0  0  0
   -0.8153    0.5692    0.1391 C   0  0  0  0  0  0  0  0  0  0  0  0
   -1.6946    1.6652    0.1440 C   0  0  0  0  0  0  0  0  0  0  0  0
   -1.1128   -1.8409   -0.1134 C   0  0  0  0  0  0  0  0  0  0  0  0
    0.5738    0.3977    0.2729 C   0  0  0  0  0  0  0  0  0  0  0  0
    1.1033   -0.8948    0.2121 C   0  0  0  0  0  0  0  0  0  0  0  0
    0.2713   -1.9952    0.0219 C   0  0  0  0  0  0  0  0  0  0  0  0
    2.5205   -1.0877    0.3469 C   0  0  0  0  0  0  0  0  0  0  0  0
    3.3701   -0.2926    1.0743 C   0  0  0  0  0  0  0  0  0  0  0  0
    5.8536   -0.4563    1.4356 C   0  0  0  0  0  0  0  0  0  0  0  0
    6.7195    0.2709    0.4368 C   0  0  0  0  0  0  0  0  0  0  0  0
    7.4215   -0.4478   -0.5312 C   0  0  0  0  0  0  0  0  0  0  0  0
    6.8176    1.6616    0.4804 C   0  0  0  0  0  0  0  0  0  0  0  0
    8.2215    0.2243   -1.4552 C   0  0  0  0  0  0  0  0  0  0  0  0
    7.6177    2.3337   -0.4438 C   0  0  0  0  0  0  0  0  0  0  0  0
    8.3196    1.6149   -1.4116 C   0  0  0  0  0  0  0  0  0  0  0  0
   -5.1601    1.0764   -0.8377 H   0  0  0  0  0  0  0  0  0  0  0  0
   -6.5756   -1.6042   -1.0049 H   0  0  0  0  0  0  0  0  0  0  0  0
   -6.0367   -0.5904   -2.3352 H   0  0  0  0  0  0  0  0  0  0  0  0
   -5.2292    0.8405    1.6400 H   0  0  0  0  0  0  0  0  0  0  0  0
   -6.0488   -0.7051    1.4997 H   0  0  0  0  0  0  0  0  0  0  0  0
   -8.4598   -0.3570   -1.8711 H   0  0  0  0  0  0  0  0  0  0  0  0
   -7.6157    1.1859   -1.7003 H   0  0  0  0  0  0  0  0  0  0  0  0
   -7.1337    2.0303    0.6494 H   0  0  0  0  0  0  0  0  0  0  0  0
   -7.6626    1.0378    2.0127 H   0  0  0  0  0  0  0  0  0  0  0  0
   -9.9330    0.9971    1.1698 H   0  0  0  0  0  0  0  0  0  0  0  0
  -10.2663    0.4137   -0.4536 H   0  0  0  0  0  0  0  0  0  0  0  0
   -9.4780    1.9908   -0.2314 H   0  0  0  0  0  0  0  0  0  0  0  0
   -1.7432   -2.7106   -0.2600 H   0  0  0  0  0  0  0  0  0  0  0  0
    1.2076    1.2694    0.4093 H   0  0  0  0  0  0  0  0  0  0  0  0
    0.6805   -3.0029   -0.0222 H   0  0  0  0  0  0  0  0  0  0  0  0
   -0.2713    3.1745    0.4342 H   0  0  0  0  0  0  0  0  0  0  0  0
   -1.8874    3.7302    0.3111 H   0  0  0  0  0  0  0  0  0  0  0  0
    3.2319    0.5918    1.6813 H   0  0  0  0  0  0  0  0  0  0  0  0
    6.3716   -1.3484    1.8092 H   0  0  0  0  0  0  0  0  0  0  0  0
    5.6552    0.1743    2.3108 H   0  0  0  0  0  0  0  0  0  0  0  0
    7.3589   -1.5318   -0.5739 H   0  0  0  0  0  0  0  0  0  0  0  0
    6.2744    2.2338    1.2277 H   0  0  0  0  0  0  0  0  0  0  0  0
    8.7691   -0.3352   -2.2079 H   0  0  0  0  0  0  0  0  0  0  0  0
    7.6937    3.4166   -0.4104 H   0  0  0  0  0  0  0  0  0  0  0  0
    8.9426    2.1382   -2.1309 H   0  0  0  0  0  0  0  0  0  0  0  0
  1 14  2  0  0  0  0
  2 12  1  0  0  0  0
  2 13  1  0  0  0  0
  2 15  1  0  0  0  0
  3  4  1  0  0  0  0
  3 14  1  0  0  0  0
  3 16  1  0  0  0  0
  4 18  2  0  0  0  0
  5 18  1  0  0  0  0
  5 47  1  0  0  0  0
  5 48  1  0  0  0  0
  6  8  1  0  0  0  0
  6 24  1  0  0  0  0
  6 25  1  0  0  0  0
  7  8  2  0  0  0  0
  7 23  1  0  0  0  0
  9 10  1  0  0  0  0
  9 11  1  0  0  0  0
  9 14  1  0  0  0  0
  9 32  1  0  0  0  0
 10 12  1  0  0  0  0
 10 33  1  0  0  0  0
 10 34  1  0  0  0  0
 11 13  1  0  0  0  0
 11 35  1  0  0  0  0
 11 36  1  0  0  0  0
 12 37  1  0  0  0  0
 12 38  1  0  0  0  0
 13 39  1  0  0  0  0
 13 40  1  0  0  0  0
 15 41  1  0  0  0  0
 15 42  1  0  0  0  0
 15 43  1  0  0  0  0
 16 17  2  0  0  0  0
 16 19  1  0  0  0  0
 17 18  1  0  0  0  0
 17 20  1  0  0  0  0
 19 22  2  0  0  0  0
 19 44  1  0  0  0  0
 20 21  2  0  0  0  0
 20 45  1  0  0  0  0
 21 22  1  0  0  0  0
 21 23  1  0  0  0  0
 22 46  1  0  0  0  0
 23 24  2  0  0  0  0
 24 49  1  0  0  0  0
 25 26  1  0  0  0  0
 25 50  1  0  0  0  0
 25 51  1  0  0  0  0
 26 27  2  0  0  0  0
 26 28  1  0  0  0  0
 27 29  1  0  0  0  0
 27 52  1  0  0  0  0
 28 30  2  0  0  0  0
 28 53  1  0  0  0  0
 29 31  2  0  0  0  0
 29 54  1  0  0  0  0
 30 31  1  0  0  0  0
 30 55  1  0  0  0  0
 31 56  1  0  0  0  0
M  END
> <PUBCHEM_COMPOUND_CID>
25164470

> <PUBCHEM_CONFORMER_RMSD>
1

> <PUBCHEM_CONFORMER_DIVERSEORDER>
1
63
95
38
48
45
33
6
93
40
20
92
99
62
69
42
111
56
30
57
70
17
108
89
109
105
32
5
87
43
52
94
86
15
90
53
80
25
58
73
71
106
28
75
55
61
78
2
115
68
74
50
46
41
9
29
114
36
39
49
14
101
116
4
81
72
18
85
107
83
35
3
66
8
88
64
103
117
112
24
7
11
51
110
10
22
67
60
19
104
31
113
82
27
26
21
47
91
97
54
13
102
98
44
12
96
16
59
34
79
84
23
37
100
77
65
76

> <PUBCHEM_MMFF94_PARTIAL_CHARGES>
39
1 -0.57
12 0.27
13 0.27
14 0.52
15 0.27
16 -0.15
18 0.37
19 -0.15
2 -0.81
20 -0.15
21 0.05
22 -0.15
23 0.17
24 -0.3
25 0.4
26 -0.14
27 -0.15
28 -0.15
29 -0.15
3 0.56
30 -0.15
31 -0.15
4 -0.71
44 0.15
45 0.15
46 0.15
47 0.4
48 0.4
49 0.15
5 -0.88
52 0.15
53 0.15
54 0.15
55 0.15
56 0.15
6 0.31
7 -0.23
8 -0.42
9 0.06

> <PUBCHEM_EFFECTIVE_ROTOR_COUNT>
6.2

> <PUBCHEM_PHARMACOPHORE_FEATURES>
9
1 1 acceptor
1 2 cation
1 5 donor
3 4 5 18 cation
5 3 4 16 17 18 rings
5 6 7 8 23 24 rings
6 16 17 19 20 21 22 rings
6 2 9 10 11 12 13 rings
6 26 27 28 29 30 31 rings

> <PUBCHEM_HEAVY_ATOM_COUNT>
31

> <PUBCHEM_ATOM_DEF_STEREO_COUNT>
0

> <PUBCHEM_ATOM_UDEF_STEREO_COUNT>
0

> <PUBCHEM_BOND_DEF_STEREO_COUNT>
0

> <PUBCHEM_BOND_UDEF_STEREO_COUNT>
0

> <PUBCHEM_ISOTOPIC_ATOM_COUNT>
0

> <PUBCHEM_COMPONENT_COUNT>
1

> <PUBCHEM_CACTVS_TAUTO_COUNT>
2

> <PUBCHEM_CONFORMER_ID>
017FFAB600000001

> <PUBCHEM_MMFF94_ENERGY>
63.9316

> <PUBCHEM_FEATURE_SELFOVERLAP>
45.761

> <PUBCHEM_SHAPE_FINGERPRINT>
10 15 17894348877959248731
10299344 5 17989203733308090187
10533779 1 17824270522198628972
10533779 47 15068883271879351112
11181472 205 18058737896478110193
11315181 36 18411699894819444427
11578821 258 17603863403675988013
11638347 137 14779257597837973880
11719270 70 11530477818848073112
11991303 11 17203041998006015190
12539765 74 18271812302455226902
12664476 115 18413386541403969120
13383665 225 18199767880981645172
14216079 64 10663822962472339196
14251764 18 18201996625658272483
14428016 248 18408608054662574045
14537116 161 17846782932149894608
1454969 45 18412261735658466308
15064981 194 17971774395971435870
15276724 80 18411695452710339829
15301273 46 15339117944136898609
15361156 5 18340484555951615927
15461852 350 17346594210490364439
1577012 14 18261104205946218050
15840311 113 17895198818661156188
15980000 95 18412545401613096681
16087824 20 18340767041074134341
1754908 1 14779266406003760913
1754911 235 18341896307601802196
17899979 19 18040716973961486757
195137 175 18272091599935674281
20105231 36 11815605408031235965
2026 5 11023564475341569108
21927370 108 14261073229755756091
23559900 14 18269264828365390784
23576562 1 17844236548280151517
24771293 8 18201725016559414705
335352 9 18413383251295068199
34797466 226 18273219686418506340
350125 39 18412822495194677032
4017518 198 16559032701257353903
4073 2 18408324397748116523
4112364 45 17168434860847311270
4258327 124 17968670414268859724
4325135 7 18412262831144002878
4625314 4 18408322194550641014
5028188 123 17418088862178336021
54583773 228 18115871969927968863
5486654 2 18413103970113430122
5758199 1 18413387623049984299
59682541 35 17749395879682789035
6081469 158 12103846748221468179
6201320 82 16987169211401568297
6438161 24 10303814272515297644

> <PUBCHEM_SHAPE_MULTIPOLES>
597.23
29.72
2.13
1.11
2.33
0.35
0.11
12.28
5.78
-1.99
0.05
-0.66
0.09
-1.58

> <PUBCHEM_SHAPE_SELFOVERLAP>
1313.201

> <PUBCHEM_SHAPE_VOLUME>
324

> <PUBCHEM_COORDINATE_TYPE>
2
5
10

$$$$
