49830841
  -OEChem-10052115183D

 58 62  0     0  0  0  0  0  0999 V2000
   -6.4786    0.3027   -0.1510 N   0  0  0  0  0  0  0  0  0  0  0  0
   -3.9470   -1.0100    0.0140 N   0  0  0  0  0  0  0  0  0  0  0  0
    1.2222   -3.1237    0.4200 N   0  0  0  0  0  0  0  0  0  0  0  0
    3.8800    0.5762   -0.7767 N   0  0  0  0  0  0  0  0  0  0  0  0
    2.5367   -1.2777   -0.1766 N   0  0  0  0  0  0  0  0  0  0  0  0
    3.5506   -3.3855    0.4032 N   0  0  0  0  0  0  0  0  0  0  0  0
    0.6568    4.8661    0.4254 N   0  0  0  0  0  0  0  0  0  0  0  0
    0.1482    4.5631    1.6314 N   0  0  0  0  0  0  0  0  0  0  0  0
    7.3070   -0.5534   -0.5831 N   0  0  0  0  0  0  0  0  0  0  0  0
   -6.0595   -0.3474    1.0969 C   0  0  0  0  0  0  0  0  0  0  0  0
   -5.9491   -0.4383   -1.3022 C   0  0  0  0  0  0  0  0  0  0  0  0
   -4.5338   -0.3897    1.2085 C   0  0  0  0  0  0  0  0  0  0  0  0
   -4.4194   -0.4847   -1.2706 C   0  0  0  0  0  0  0  0  0  0  0  0
   -7.9369    0.3863   -0.2212 C   0  0  0  0  0  0  0  0  0  0  0  0
   -2.6553   -1.5388    0.1149 C   0  0  0  0  0  0  0  0  0  0  0  0
   -8.3859    1.0983   -1.4860 C   0  0  0  0  0  0  0  0  0  0  0  0
   -1.6358   -1.0499   -0.7019 C   0  0  0  0  0  0  0  0  0  0  0  0
   -2.3873   -2.5544    1.0326 C   0  0  0  0  0  0  0  0  0  0  0  0
   -0.3483   -1.5768   -0.6013 C   0  0  0  0  0  0  0  0  0  0  0  0
   -1.0998   -3.0815    1.1333 C   0  0  0  0  0  0  0  0  0  0  0  0
   -0.0803   -2.5927    0.3163 C   0  0  0  0  0  0  0  0  0  0  0  0
    2.4986   -2.5685    0.2053 C   0  0  0  0  0  0  0  0  0  0  0  0
    3.0763    1.7013   -0.5345 C   0  0  0  0  0  0  0  0  0  0  0  0
    1.5494    2.9160    0.8826 C   0  0  0  0  0  0  0  0  0  0  0  0
    1.5057    3.9185   -0.0798 C   0  0  0  0  0  0  0  0  0  0  0  0
    2.3477    1.7817    0.6589 C   0  0  0  0  0  0  0  0  0  0  0  0
    3.7747   -0.7787   -0.3739 C   0  0  0  0  0  0  0  0  0  0  0  0
    3.0141    2.7227   -1.4841 C   0  0  0  0  0  0  0  0  0  0  0  0
    2.2241    3.8580   -1.2758 C   0  0  0  0  0  0  0  0  0  0  0  0
    4.9323   -1.5106   -0.2051 C   0  0  0  0  0  0  0  0  0  0  0  0
    0.6934    3.3759    1.9061 C   0  0  0  0  0  0  0  0  0  0  0  0
    4.7575   -2.8218    0.1881 C   0  0  0  0  0  0  0  0  0  0  0  0
    6.2421   -0.9826   -0.4136 C   0  0  0  0  0  0  0  0  0  0  0  0
   -6.4501    0.2073    1.9587 H   0  0  0  0  0  0  0  0  0  0  0  0
   -6.4599   -1.3686    1.1563 H   0  0  0  0  0  0  0  0  0  0  0  0
   -6.3485   -1.4613   -1.3240 H   0  0  0  0  0  0  0  0  0  0  0  0
   -6.2145    0.0397   -2.2505 H   0  0  0  0  0  0  0  0  0  0  0  0
   -4.2745   -0.9382    2.1214 H   0  0  0  0  0  0  0  0  0  0  0  0
   -4.1350    0.6271    1.3188 H   0  0  0  0  0  0  0  0  0  0  0  0
   -4.0175    0.5239   -1.4321 H   0  0  0  0  0  0  0  0  0  0  0  0
   -4.0819   -1.1219   -2.0977 H   0  0  0  0  0  0  0  0  0  0  0  0
   -8.3036    0.9634    0.6367 H   0  0  0  0  0  0  0  0  0  0  0  0
   -8.4061   -0.6044   -0.1703 H   0  0  0  0  0  0  0  0  0  0  0  0
   -8.2944    0.4692   -2.3765 H   0  0  0  0  0  0  0  0  0  0  0  0
   -7.8310    2.0289   -1.6476 H   0  0  0  0  0  0  0  0  0  0  0  0
   -9.4459    1.3625   -1.3989 H   0  0  0  0  0  0  0  0  0  0  0  0
   -1.8071   -0.2560   -1.4233 H   0  0  0  0  0  0  0  0  0  0  0  0
   -3.1710   -2.9586    1.6681 H   0  0  0  0  0  0  0  0  0  0  0  0
    0.4036   -1.1941   -1.2834 H   0  0  0  0  0  0  0  0  0  0  0  0
   -0.9041   -3.8740    1.8511 H   0  0  0  0  0  0  0  0  0  0  0  0
    1.2645   -4.0506    0.8332 H   0  0  0  0  0  0  0  0  0  0  0  0
    2.3957    1.0010    1.4120 H   0  0  0  0  0  0  0  0  0  0  0  0
    4.5720    0.7194   -1.5074 H   0  0  0  0  0  0  0  0  0  0  0  0
    3.5841    2.6482   -2.4080 H   0  0  0  0  0  0  0  0  0  0  0  0
    2.1743    4.6523   -2.0122 H   0  0  0  0  0  0  0  0  0  0  0  0
    0.4450    2.8935    2.8409 H   0  0  0  0  0  0  0  0  0  0  0  0
    0.3829    5.7418   -0.0024 H   0  0  0  0  0  0  0  0  0  0  0  0
    5.6007   -3.4868    0.3499 H   0  0  0  0  0  0  0  0  0  0  0  0
  1 10  1  0  0  0  0
  1 11  1  0  0  0  0
  1 14  1  0  0  0  0
  2 12  1  0  0  0  0
  2 13  1  0  0  0  0
  2 15  1  0  0  0  0
  3 21  1  0  0  0  0
  3 22  1  0  0  0  0
  3 51  1  0  0  0  0
  4 23  1  0  0  0  0
  4 27  1  0  0  0  0
  4 53  1  0  0  0  0
  5 22  1  0  0  0  0
  5 27  2  0  0  0  0
  6 22  2  0  0  0  0
  6 32  1  0  0  0  0
  7  8  1  0  0  0  0
  7 25  1  0  0  0  0
  7 57  1  0  0  0  0
  8 31  2  0  0  0  0
  9 33  3  0  0  0  0
 10 12  1  0  0  0  0
 10 34  1  0  0  0  0
 10 35  1  0  0  0  0
 11 13  1  0  0  0  0
 11 36  1  0  0  0  0
 11 37  1  0  0  0  0
 12 38  1  0  0  0  0
 12 39  1  0  0  0  0
 13 40  1  0  0  0  0
 13 41  1  0  0  0  0
 14 16  1  0  0  0  0
 14 42  1  0  0  0  0
 14 43  1  0  0  0  0
 15 17  2  0  0  0  0
 15 18  1  0  0  0  0
 16 44  1  0  0  0  0
 16 45  1  0  0  0  0
 16 46  1  0  0  0  0
 17 19  1  0  0  0  0
 17 47  1  0  0  0  0
 18 20  2  0  0  0  0
 18 48  1  0  0  0  0
 19 21  2  0  0  0  0
 19 49  1  0  0  0  0
 20 21  1  0  0  0  0
 20 50  1  0  0  0  0
 23 26  2  0  0  0  0
 23 28  1  0  0  0  0
 24 25  2  0  0  0  0
 24 26  1  0  0  0  0
 24 31  1  0  0  0  0
 25 29  1  0  0  0  0
 26 52  1  0  0  0  0
 27 30  1  0  0  0  0
 28 29  2  0  0  0  0
 28 54  1  0  0  0  0
 29 55  1  0  0  0  0
 30 32  2  0  0  0  0
 30 33  1  0  0  0  0
 31 56  1  0  0  0  0
 32 58  1  0  0  0  0
M  END
> <PUBCHEM_COMPOUND_CID>
49830841

> <PUBCHEM_CONFORMER_RMSD>
1

> <PUBCHEM_CONFORMER_DIVERSEORDER>
2
79
39
33
89
43
61
17
18
107
72
103
32
44
91
87
5
59
93
48
76
56
78
29
54
65
28
85
9
71
98
26
83
1
100
19
82
97
36
23
47
94
68
38
55
11
67
101
15
42
86
12
96
25
27
77
50
52
21
81
66
102
92
80
62
6
104
49
60
88
58
45
41
34
74
95
4
106
73
10
46
64
20
69
108
37
14
13
53
24
40
90
63
7
22
57
16
75
51
8
31
3
99
70
105
30
35
84

> <PUBCHEM_MMFF94_PARTIAL_CHARGES>
43
1 -0.81
10 0.27
11 0.27
12 0.37
13 0.37
14 0.27
15 0.1
17 -0.15
18 -0.15
19 -0.15
2 -0.84
20 -0.15
21 0.1
22 0.72
23 0.1
25 -0.15
26 -0.15
27 0.41
28 -0.15
29 -0.15
3 -0.6
30 0.07
31 0.14
32 0.16
33 0.48
4 -0.6
47 0.15
48 0.15
49 0.15
5 -0.62
50 0.15
51 0.4
52 0.15
53 0.4
54 0.15
55 0.15
56 0.15
57 0.27
58 0.15
6 -0.62
7 0.3
8 -0.71
9 -0.56

> <PUBCHEM_EFFECTIVE_ROTOR_COUNT>
7.2

> <PUBCHEM_PHARMACOPHORE_FEATURES>
13
1 1 cation
1 2 cation
1 3 donor
1 4 donor
1 7 donor
1 8 acceptor
1 9 acceptor
4 3 5 6 22 cation
5 7 8 24 25 31 rings
6 1 2 10 11 12 13 rings
6 15 17 18 19 20 21 rings
6 23 24 25 26 28 29 rings
6 5 6 22 27 30 32 rings

> <PUBCHEM_HEAVY_ATOM_COUNT>
33

> <PUBCHEM_ATOM_DEF_STEREO_COUNT>
0

> <PUBCHEM_ATOM_UDEF_STEREO_COUNT>
0

> <PUBCHEM_BOND_DEF_STEREO_COUNT>
0

> <PUBCHEM_BOND_UDEF_STEREO_COUNT>
0

> <PUBCHEM_ISOTOPIC_ATOM_COUNT>
0

> <PUBCHEM_COMPONENT_COUNT>
1

> <PUBCHEM_CACTVS_TAUTO_COUNT>
18

> <PUBCHEM_CONFORMER_ID>
02F85BB900000002

> <PUBCHEM_MMFF94_ENERGY>
111.1224

> <PUBCHEM_FEATURE_SELFOVERLAP>
66.066

> <PUBCHEM_SHAPE_FINGERPRINT>
10190206 1 18118994467989043190
10256941 240 16758560230262892433
10439779 11 17981876751593584696
10675989 125 18337956800300054192
11059845 2 17331657555265219456
11456790 92 18115023001006541683
11720765 8 18341611555170289240
12788726 201 18338233744407696474
12925494 130 18264771137354192147
13878862 14 18263063514444708567
14394314 77 18270410373316080280
14849402 71 18408609150042310097
151778 21 18046915054187714140
15320295 198 18187086140253261597
15351339 4 18190172399818448777
15419008 47 17967532320886528405
15483637 11 17976257932926267844
16087824 20 18335704910470799924
17138139 8 17334169518226860876
18335252 114 18338790135793089015
21033648 29 17748820835049091143
21133410 127 17610899376514742005
21133410 62 17250889144975898397
21315764 21 18337957921080452905
21344244 78 17899955172091981530
21860390 5 18272661172618143710
21987440 362 17761771067922670116
22122407 14 18340217306565687177
23559900 14 18410851109390159955
23576562 1 18270676588653406575
24893992 56 18334293189202058483
249057 3 18273212010890617927
46939830 39 17822585979382603252
4760202 170 18265316354205495133
5265222 85 17108768973445726148
552612 73 18118414062808567115
58902169 19 18201990015957325455
59520647 33 17769658595157946401
60111433 81 17772452719790257136
6086070 43 18341618165251090167

> <PUBCHEM_SHAPE_MULTIPOLES>
634.3
17.27
5.95
1.38
28.42
6.35
-0.14
-3.04
6.01
-6.84
-1.88
0.98
0.98
0.38

> <PUBCHEM_SHAPE_SELFOVERLAP>
1385.385

> <PUBCHEM_SHAPE_VOLUME>
336.2

> <PUBCHEM_COORDINATE_TYPE>
2
5
10

$$$$
