49830518
  -OEChem-10052115193D

 38 40  0     0  0  0  0  0  0999 V2000
   -2.2635   -3.8536   -0.3695 Cl  0  0  0  0  0  0  0  0  0  0  0  0
   -4.7408    0.1607    1.0678 O   0  0  0  0  0  0  0  0  0  0  0  0
   -1.6974   -0.8970   -0.0888 N   0  0  0  0  0  0  0  0  0  0  0  0
    2.9780   -1.3782    0.0570 N   0  0  0  0  0  0  0  0  0  0  0  0
    3.4816    2.1315    0.3771 N   0  0  0  0  0  0  0  0  0  0  0  0
    0.6463   -1.1281   -0.0158 N   0  0  0  0  0  0  0  0  0  0  0  0
    4.7761    1.7707    0.3994 N   0  0  0  0  0  0  0  0  0  0  0  0
    1.6622   -3.3085   -0.1613 N   0  0  0  0  0  0  0  0  0  0  0  0
   -3.1387    0.9022    2.5314 N   0  0  0  0  0  0  0  0  0  0  0  0
   -1.9205    0.4342   -0.5061 C   0  0  0  0  0  0  0  0  0  0  0  0
   -2.8654    1.2364    0.1334 C   0  0  0  0  0  0  0  0  0  0  0  0
    3.4040   -0.0432    0.1883 C   0  0  0  0  0  0  0  0  0  0  0  0
   -0.5600   -1.7244   -0.1152 C   0  0  0  0  0  0  0  0  0  0  0  0
   -1.1800    0.9440   -1.5726 C   0  0  0  0  0  0  0  0  0  0  0  0
    2.6191    1.0822    0.2522 C   0  0  0  0  0  0  0  0  0  0  0  0
    1.6991   -1.9673   -0.0452 C   0  0  0  0  0  0  0  0  0  0  0  0
   -3.0700    2.5484   -0.2934 C   0  0  0  0  0  0  0  0  0  0  0  0
    4.7223    0.4413    0.2837 C   0  0  0  0  0  0  0  0  0  0  0  0
   -0.7335   -3.0878   -0.2389 C   0  0  0  0  0  0  0  0  0  0  0  0
   -1.3844    2.2561   -1.9996 C   0  0  0  0  0  0  0  0  0  0  0  0
   -2.3294    3.0583   -1.3600 C   0  0  0  0  0  0  0  0  0  0  0  0
   -3.6544    0.7339    1.2512 C   0  0  0  0  0  0  0  0  0  0  0  0
    3.1245    3.5260    0.4813 C   0  0  0  0  0  0  0  0  0  0  0  0
    0.4248   -3.8378   -0.2564 C   0  0  0  0  0  0  0  0  0  0  0  0
   -2.4686   -1.3044    0.4321 H   0  0  0  0  0  0  0  0  0  0  0  0
    3.7032   -2.0923    0.0254 H   0  0  0  0  0  0  0  0  0  0  0  0
    1.5505    1.2401    0.2236 H   0  0  0  0  0  0  0  0  0  0  0  0
   -0.4472    0.3367   -2.0970 H   0  0  0  0  0  0  0  0  0  0  0  0
   -3.8035    3.1838    0.1964 H   0  0  0  0  0  0  0  0  0  0  0  0
    5.6478   -0.1169    0.2741 H   0  0  0  0  0  0  0  0  0  0  0  0
   -0.8097    2.6525   -2.8315 H   0  0  0  0  0  0  0  0  0  0  0  0
   -2.4888    4.0798   -1.6928 H   0  0  0  0  0  0  0  0  0  0  0  0
    3.4962    3.9056    1.4362 H   0  0  0  0  0  0  0  0  0  0  0  0
    3.5852    4.0623   -0.3520 H   0  0  0  0  0  0  0  0  0  0  0  0
    2.0375    3.6293    0.4358 H   0  0  0  0  0  0  0  0  0  0  0  0
    0.4028   -4.9193   -0.3503 H   0  0  0  0  0  0  0  0  0  0  0  0
   -2.2487    1.3611    2.6980 H   0  0  0  0  0  0  0  0  0  0  0  0
   -3.6424    0.5662    3.3454 H   0  0  0  0  0  0  0  0  0  0  0  0
  1 19  1  0  0  0  0
  2 22  2  0  0  0  0
  3 10  1  0  0  0  0
  3 13  1  0  0  0  0
  3 25  1  0  0  0  0
  4 12  1  0  0  0  0
  4 16  1  0  0  0  0
  4 26  1  0  0  0  0
  5  7  1  0  0  0  0
  5 15  1  0  0  0  0
  5 23  1  0  0  0  0
  6 13  2  0  0  0  0
  6 16  1  0  0  0  0
  7 18  2  0  0  0  0
  8 16  2  0  0  0  0
  8 24  1  0  0  0  0
  9 22  1  0  0  0  0
  9 37  1  0  0  0  0
  9 38  1  0  0  0  0
 10 11  1  0  0  0  0
 10 14  2  0  0  0  0
 11 17  2  0  0  0  0
 11 22  1  0  0  0  0
 12 15  2  0  0  0  0
 12 18  1  0  0  0  0
 13 19  1  0  0  0  0
 14 20  1  0  0  0  0
 14 28  1  0  0  0  0
 15 27  1  0  0  0  0
 17 21  1  0  0  0  0
 17 29  1  0  0  0  0
 18 30  1  0  0  0  0
 19 24  2  0  0  0  0
 20 21  2  0  0  0  0
 20 31  1  0  0  0  0
 21 32  1  0  0  0  0
 23 33  1  0  0  0  0
 23 34  1  0  0  0  0
 23 35  1  0  0  0  0
 24 36  1  0  0  0  0
M  END
> <PUBCHEM_COMPOUND_CID>
49830518

> <PUBCHEM_CONFORMER_RMSD>
0.8

> <PUBCHEM_CONFORMER_DIVERSEORDER>
1
191
194
94
158
180
220
18
182
50
144
115
150
17
210
155
46
231
167
228
123
120
177
189
3
229
74
161
136
172
206
128
237
42
6
205
119
230
124
25
238
178
126
45
134
78
20
225
51
52
154
219
208
44
15
216
236
199
170
196
181
222
227
204
143
32
7
212
85
99
31
187
168
160
10
30
110
122
162
190
201
87
146
214
151
100
14
40
213
193
38
140
152
13
188
114
192
166
117
133
2
186
121
16
118
125
66
223
108
106
148
174
59
175
90
26
101
215
21
198
179
55
88
207
183
43
139
9
211
102
93
103
80
224
169
34
209
53
113
61
96
60
70
159
163
130
35
202
107
24
23
69
73
95
173
184
165
145
157
203
232
56
92
86
67
138
62
233
105
141
111
185
22
200
149
72
147
75
49
33
221
109
137
97
195
234
68
235
48
89
131
112
226
218
116
91
11
129
217
71
5
104
79
29
127
164
54
98
156
83
153
12
84
76
47
41
77
82
27
8
36
142
135
57
81
4
39
132
176
171
37
65
28
19
58
197
63
64

> <PUBCHEM_MMFF94_PARTIAL_CHARGES>
35
1 -0.18
10 0.1
11 0.09
12 0.08
13 0.41
14 -0.15
15 -0.3
16 0.72
17 -0.15
18 0.14
19 0.18
2 -0.57
20 -0.15
21 -0.15
22 0.54
23 0.26
24 0.16
25 0.4
26 0.4
27 0.15
28 0.15
29 0.15
3 -0.6
30 0.15
31 0.15
32 0.15
36 0.15
37 0.37
38 0.37
4 -0.58
5 0.31
6 -0.62
7 -0.71
8 -0.62
9 -0.8

> <PUBCHEM_EFFECTIVE_ROTOR_COUNT>
5

> <PUBCHEM_PHARMACOPHORE_FEATURES>
9
1 2 acceptor
1 3 donor
1 4 donor
1 7 acceptor
1 9 donor
4 4 6 8 16 cation
5 5 7 12 15 18 rings
6 10 11 14 17 20 21 rings
6 6 8 13 16 19 24 rings

> <PUBCHEM_HEAVY_ATOM_COUNT>
24

> <PUBCHEM_ATOM_DEF_STEREO_COUNT>
0

> <PUBCHEM_ATOM_UDEF_STEREO_COUNT>
0

> <PUBCHEM_BOND_DEF_STEREO_COUNT>
0

> <PUBCHEM_BOND_UDEF_STEREO_COUNT>
0

> <PUBCHEM_ISOTOPIC_ATOM_COUNT>
0

> <PUBCHEM_COMPONENT_COUNT>
1

> <PUBCHEM_CACTVS_TAUTO_COUNT>
38

> <PUBCHEM_CONFORMER_ID>
02F85A7600000001

> <PUBCHEM_MMFF94_ENERGY>
78.5503

> <PUBCHEM_FEATURE_SELFOVERLAP>
45.671

> <PUBCHEM_SHAPE_FINGERPRINT>
10165383 225 18341342144803432080
10366900 7 17610630713255825207
10670039 82 17901953273110024508
10871710 139 17903645420781614398
1100329 8 17255966100576262007
11582403 64 16592762299081987087
12633257 1 18411695526284011208
12925494 130 17979354158203419841
13004483 165 17833532871424684334
13140716 1 18190466162591045719
13583140 156 17241309271253927746
1361 2 18336529544297517037
138480 1 17474660655620553734
14787075 74 18060418049747056811
14955137 171 17400085664949745986
151778 21 18410296874273489648
17974551 9 16446151163444039754
18219364 16 18337948974494665664
19930381 70 18267017254789176321
20621476 13 17832975058173053916
20681677 76 18046624499998072167
22182937 141 18271247234960985234
23227448 37 18341048605057566222
23559900 14 17688302392380049727
238 59 17904446693980197053
350125 39 18410854391098484714
469060 322 17170097381903811606
474 4 18272089348913894890
49207404 50 18189343380904338985
5081480 168 17343521998475910084
5252454 2 18411703201337652776
621550 34 18263371296006617739
6287921 2 18264786392803415661
7808743 9 18263929998469758364
81228 2 17902223743657231602

> <PUBCHEM_SHAPE_MULTIPOLES>
455.04
8.04
5.25
1.35
5.35
3.4
-0.22
-5.85
-2.92
-0.17
1.16
-1.7
-0.99
0.77

> <PUBCHEM_SHAPE_SELFOVERLAP>
977.3

> <PUBCHEM_SHAPE_VOLUME>
250.2

> <PUBCHEM_COORDINATE_TYPE>
2
5
10

$$$$
