44370225
  -OEChem-10062121593D

 65 71  0     1  0  0  0  0  0999 V2000
    2.2750    3.8421   -0.6600 Cl  0  0  0  0  0  0  0  0  0  0  0  0
    2.1340   -3.9355   -0.2089 Cl  0  0  0  0  0  0  0  0  0  0  0  0
    1.7812   -0.3816   -1.1045 O   0  0  0  0  0  0  0  0  0  0  0  0
    1.5154    0.0665    1.8414 O   0  0  0  0  0  0  0  0  0  0  0  0
    5.3779   -0.8714   -0.5952 O   0  0  0  0  0  0  0  0  0  0  0  0
    4.6414    0.8609    1.6214 O   0  0  0  0  0  0  0  0  0  0  0  0
    2.3499   -1.1879   -3.6441 O   0  0  0  0  0  0  0  0  0  0  0  0
   -5.1652    2.3737   -0.0992 O   0  0  0  0  0  0  0  0  0  0  0  0
   -5.2470   -2.2331    0.1623 O   0  0  0  0  0  0  0  0  0  0  0  0
    2.3577    1.2823    3.6160 O   0  0  0  0  0  0  0  0  0  0  0  0
    0.2331    1.3443   -0.3850 N   0  0  0  0  0  0  0  0  0  0  0  0
    0.1839   -1.4343   -0.2250 N   0  0  0  0  0  0  0  0  0  0  0  0
   -5.5955    0.0787    0.0569 N   0  0  0  0  0  0  0  0  0  0  0  0
    1.6766    0.8854   -0.4524 C   0  0  1  0  0  0  0  0  0  0  0  0
    2.3449    0.7996    0.9331 C   0  0  2  0  0  0  0  0  0  0  0  0
    3.7033    0.0814    0.8777 C   0  0  1  0  0  0  0  0  0  0  0  0
    4.1936   -0.0778   -0.5606 C   0  0  2  0  0  0  0  0  0  0  0  0
    3.1232   -0.7665   -1.4241 C   0  0  2  0  0  0  0  0  0  0  0  0
   -0.9384    0.6784   -0.2725 C   0  0  0  0  0  0  0  0  0  0  0  0
   -2.2084    1.3454   -0.2292 C   0  0  0  0  0  0  0  0  0  0  0  0
   -0.2155    2.6558   -0.4310 C   0  0  0  0  0  0  0  0  0  0  0  0
   -0.9632   -0.7189   -0.1923 C   0  0  0  0  0  0  0  0  0  0  0  0
   -1.6477    2.6995   -0.3416 C   0  0  0  0  0  0  0  0  0  0  0  0
   -2.2559   -1.3314   -0.0761 C   0  0  0  0  0  0  0  0  0  0  0  0
   -3.4500    0.7264   -0.1152 C   0  0  0  0  0  0  0  0  0  0  0  0
   -3.4746   -0.6600   -0.0362 C   0  0  0  0  0  0  0  0  0  0  0  0
    3.3602   -0.5198   -2.9117 C   0  0  0  0  0  0  0  0  0  0  0  0
   -1.7436   -2.7085   -0.0317 C   0  0  0  0  0  0  0  0  0  0  0  0
    0.5531    3.8240   -0.5471 C   0  0  0  0  0  0  0  0  0  0  0  0
   -0.3109   -2.7258   -0.1216 C   0  0  0  0  0  0  0  0  0  0  0  0
   -2.2584    3.9765   -0.3751 C   0  0  0  0  0  0  0  0  0  0  0  0
   -4.8183    1.2103   -0.0556 C   0  0  0  0  0  0  0  0  0  0  0  0
   -4.8591   -1.0852    0.0749 C   0  0  0  0  0  0  0  0  0  0  0  0
   -0.0984    5.0576   -0.5758 C   0  0  0  0  0  0  0  0  0  0  0  0
   -1.4824    5.1348   -0.4911 C   0  0  0  0  0  0  0  0  0  0  0  0
   -2.3991   -3.9585    0.0794 C   0  0  0  0  0  0  0  0  0  0  0  0
    1.6259    0.4153    3.1577 C   0  0  0  0  0  0  0  0  0  0  0  0
    6.5234   -0.1066   -0.2517 C   0  0  0  0  0  0  0  0  0  0  0  0
    0.4158   -3.9261   -0.1007 C   0  0  0  0  0  0  0  0  0  0  0  0
   -1.6648   -5.1491    0.0991 C   0  0  0  0  0  0  0  0  0  0  0  0
   -0.2790   -5.1310    0.0105 C   0  0  0  0  0  0  0  0  0  0  0  0
    0.7058   -0.4300    3.9854 C   0  0  0  0  0  0  0  0  0  0  0  0
    2.1660    1.5559   -1.1478 H   0  0  0  0  0  0  0  0  0  0  0  0
    2.4516    1.8226    1.3115 H   0  0  0  0  0  0  0  0  0  0  0  0
    3.6642   -0.8984    1.3685 H   0  0  0  0  0  0  0  0  0  0  0  0
    4.4079    0.9128   -0.9859 H   0  0  0  0  0  0  0  0  0  0  0  0
    3.1871   -1.8434   -1.2832 H   0  0  0  0  0  0  0  0  0  0  0  0
    4.3388   -0.8944   -3.2273 H   0  0  0  0  0  0  0  0  0  0  0  0
    3.2902    0.5470   -3.1480 H   0  0  0  0  0  0  0  0  0  0  0  0
    1.1296   -1.1933   -0.0160 H   0  0  0  0  0  0  0  0  0  0  0  0
    4.7214    1.7284    1.1888 H   0  0  0  0  0  0  0  0  0  0  0  0
   -3.3371    4.0768   -0.3116 H   0  0  0  0  0  0  0  0  0  0  0  0
   -6.6073    0.1002    0.1195 H   0  0  0  0  0  0  0  0  0  0  0  0
    0.4696    5.9814   -0.6651 H   0  0  0  0  0  0  0  0  0  0  0  0
   -1.9709    6.1054   -0.5151 H   0  0  0  0  0  0  0  0  0  0  0  0
   -3.4807   -4.0128    0.1509 H   0  0  0  0  0  0  0  0  0  0  0  0
    6.5079    0.9012   -0.6782 H   0  0  0  0  0  0  0  0  0  0  0  0
    6.6603   -0.0734    0.8314 H   0  0  0  0  0  0  0  0  0  0  0  0
    7.3966   -0.6242   -0.6613 H   0  0  0  0  0  0  0  0  0  0  0  0
    2.5168   -1.0156   -4.5864 H   0  0  0  0  0  0  0  0  0  0  0  0
   -2.1873   -6.0983    0.1850 H   0  0  0  0  0  0  0  0  0  0  0  0
    0.2599   -6.0758    0.0290 H   0  0  0  0  0  0  0  0  0  0  0  0
   -0.3278   -0.2717    3.6669 H   0  0  0  0  0  0  0  0  0  0  0  0
    0.7953   -0.1425    5.0368 H   0  0  0  0  0  0  0  0  0  0  0  0
    0.9817   -1.4829    3.8861 H   0  0  0  0  0  0  0  0  0  0  0  0
  1 29  1  0  0  0  0
  2 39  1  0  0  0  0
  3 14  1  0  0  0  0
  3 18  1  0  0  0  0
  4 15  1  0  0  0  0
  4 37  1  0  0  0  0
  5 17  1  0  0  0  0
  5 38  1  0  0  0  0
  6 16  1  0  0  0  0
  6 51  1  0  0  0  0
  7 27  1  0  0  0  0
  7 60  1  0  0  0  0
  8 32  2  0  0  0  0
  9 33  2  0  0  0  0
 10 37  2  0  0  0  0
 11 14  1  0  0  0  0
 11 19  1  0  0  0  0
 11 21  1  0  0  0  0
 12 22  1  0  0  0  0
 12 30  1  0  0  0  0
 12 50  1  0  0  0  0
 13 32  1  0  0  0  0
 13 33  1  0  0  0  0
 13 53  1  0  0  0  0
 14 15  1  0  0  0  0
 14 43  1  0  0  0  0
 15 16  1  0  0  0  0
 15 44  1  0  0  0  0
 16 17  1  0  0  0  0
 16 45  1  0  0  0  0
 17 18  1  0  0  0  0
 17 46  1  0  0  0  0
 18 27  1  0  0  0  0
 18 47  1  0  0  0  0
 19 20  1  0  0  0  0
 19 22  2  0  0  0  0
 20 23  1  0  0  0  0
 20 25  2  0  0  0  0
 21 23  2  0  0  0  0
 21 29  1  0  0  0  0
 22 24  1  0  0  0  0
 23 31  1  0  0  0  0
 24 26  2  0  0  0  0
 24 28  1  0  0  0  0
 25 26  1  0  0  0  0
 25 32  1  0  0  0  0
 26 33  1  0  0  0  0
 27 48  1  0  0  0  0
 27 49  1  0  0  0  0
 28 30  2  0  0  0  0
 28 36  1  0  0  0  0
 29 34  2  0  0  0  0
 30 39  1  0  0  0  0
 31 35  2  0  0  0  0
 31 52  1  0  0  0  0
 34 35  1  0  0  0  0
 34 54  1  0  0  0  0
 35 55  1  0  0  0  0
 36 40  2  0  0  0  0
 36 56  1  0  0  0  0
 37 42  1  0  0  0  0
 38 57  1  0  0  0  0
 38 58  1  0  0  0  0
 38 59  1  0  0  0  0
 39 41  2  0  0  0  0
 40 41  1  0  0  0  0
 40 61  1  0  0  0  0
 41 62  1  0  0  0  0
 42 63  1  0  0  0  0
 42 64  1  0  0  0  0
 42 65  1  0  0  0  0
M  END
> <PUBCHEM_COMPOUND_CID>
44370225

> <PUBCHEM_CONFORMER_RMSD>
1

> <PUBCHEM_CONFORMER_DIVERSEORDER>
1
7
2
3

> <PUBCHEM_MMFF94_PARTIAL_CHARGES>
50
1 -0.18
10 -0.57
11 -0.04
12 -0.05
13 -0.49
14 0.54
15 0.28
16 0.28
17 0.28
18 0.28
19 -0.05
2 -0.18
20 -0.01
21 -0.15
22 -0.05
24 -0.01
25 0.09
26 0.09
27 0.28
29 0.18
3 -0.56
30 -0.15
31 -0.15
32 0.54
33 0.54
34 -0.15
35 -0.15
36 -0.15
37 0.66
38 0.28
39 0.18
4 -0.43
40 -0.15
41 -0.15
42 0.06
5 -0.56
50 0.27
51 0.4
52 0.15
53 0.37
54 0.15
55 0.15
56 0.15
6 -0.68
60 0.4
61 0.15
62 0.15
7 -0.68
8 -0.57
9 -0.57

> <PUBCHEM_EFFECTIVE_ROTOR_COUNT>
6.4

> <PUBCHEM_PHARMACOPHORE_FEATURES>
20
1 10 acceptor
1 11 cation
1 12 cation
1 12 donor
1 13 donor
1 3 acceptor
1 5 acceptor
1 6 acceptor
1 6 donor
1 7 acceptor
1 7 donor
1 8 acceptor
1 9 acceptor
5 11 19 20 21 23 rings
5 12 22 24 28 30 rings
5 13 25 26 32 33 rings
6 19 20 22 24 25 26 rings
6 21 23 29 31 34 35 rings
6 28 30 36 39 40 41 rings
6 3 14 15 16 17 18 rings

> <PUBCHEM_HEAVY_ATOM_COUNT>
42

> <PUBCHEM_ATOM_DEF_STEREO_COUNT>
0

> <PUBCHEM_ATOM_UDEF_STEREO_COUNT>
5

> <PUBCHEM_BOND_DEF_STEREO_COUNT>
0

> <PUBCHEM_BOND_UDEF_STEREO_COUNT>
0

> <PUBCHEM_ISOTOPIC_ATOM_COUNT>
0

> <PUBCHEM_COMPONENT_COUNT>
1

> <PUBCHEM_CACTVS_TAUTO_COUNT>
21

> <PUBCHEM_CONFORMER_ID>
02A5093100000001

> <PUBCHEM_MMFF94_ENERGY>
192.8856

> <PUBCHEM_FEATURE_SELFOVERLAP>
101.981

> <PUBCHEM_SHAPE_FINGERPRINT>
10190108 129 17907896962149036305
1100329 8 18265336281988285863
11421498 54 17676765375209080424
12758862 11 18271814532307520134
12758862 65 17318776617762798795
12788726 201 18187364307514609416
13140716 1 18265616665752945165
13617811 41 18335145250309736605
13636023 51 18059287799006812008
14790565 3 18409457985587961397
15297060 5 18268711602149765049
15320467 1 18409732854503517990
15439362 3 17111279720815863644
16112460 7 18124898977845692083
16114785 44 16972443545504308552
18681886 176 18337103570638856225
20028762 73 18199749314471215951
20600515 1 18268135633981287480
20764821 26 18193843862422824639
21033648 29 18130773599574178729
21796203 349 17901143933250236329
23559900 14 18124875921801941605
3178227 256 18264229027125260651
350125 39 17977388235316630343
3882209 13 17334180899436611510
469060 322 18266760020491833737
5265222 85 18340209708642043534

> <PUBCHEM_SHAPE_MULTIPOLES>
806.18
9.08
7.06
2.25
0.67
0.21
-1.96
0.41
0.87
-3.9
1.51
3.32
0.07
0.95

> <PUBCHEM_SHAPE_SELFOVERLAP>
1809.892

> <PUBCHEM_SHAPE_VOLUME>
426.5

> <PUBCHEM_COORDINATE_TYPE>
2
5
10

$$$$
