44352914
  -OEChem-10052115163D

 73 81  0     1  0  0  0  0  0999 V2000
   -6.8022   -1.0691    1.6056 Cl  0  0  0  0  0  0  0  0  0  0  0  0
    0.1461   -0.1242    2.3996 O   0  0  0  0  0  0  0  0  0  0  0  0
   -0.9979    0.6043   -0.6475 O   0  0  0  0  0  0  0  0  0  0  0  0
    6.1761   -1.8800   -1.4280 O   0  0  0  0  0  0  0  0  0  0  0  0
   -4.4053    1.4311    0.8368 O   0  0  0  0  0  0  0  0  0  0  0  0
    0.9648    1.4760    0.9236 N   0  0  0  0  0  0  0  0  0  0  0  0
    1.2131   -1.5138    0.8693 N   0  0  0  0  0  0  0  0  0  0  0  0
   -3.4048   -0.6234    0.3405 N   0  0  0  0  0  0  0  0  0  0  0  0
    6.3721    0.4469   -1.5776 N   0  0  0  0  0  0  0  0  0  0  0  0
   -0.2204    1.0325    1.6422 C   0  0  1  0  0  0  0  0  0  0  0  0
   -1.4390    0.8102    0.7020 C   0  0  2  0  0  0  0  0  0  0  0  0
    0.0628   -1.3581    1.7297 C   0  0  2  0  0  0  0  0  0  0  0  0
   -2.2223   -0.4233    1.1421 C   0  0  2  0  0  0  0  0  0  0  0  0
   -1.2982   -1.6358    1.0750 C   0  0  0  0  0  0  0  0  0  0  0  0
    2.0546    0.7773    0.4585 C   0  0  0  0  0  0  0  0  0  0  0  0
    2.1689   -0.6436    0.4230 C   0  0  0  0  0  0  0  0  0  0  0  0
    3.1752    1.4843   -0.1189 C   0  0  0  0  0  0  0  0  0  0  0  0
    3.3918   -1.1497   -0.1790 C   0  0  0  0  0  0  0  0  0  0  0  0
    1.2698    2.7756    0.4933 C   0  0  0  0  0  0  0  0  0  0  0  0
   -0.6228    1.9810    2.7960 C   0  0  0  0  0  0  0  0  0  0  0  0
    1.7621   -2.7499    0.5132 C   0  0  0  0  0  0  0  0  0  0  0  0
    2.5976    2.8206   -0.0301 C   0  0  0  0  0  0  0  0  0  0  0  0
    4.3688    0.9825   -0.6276 C   0  0  0  0  0  0  0  0  0  0  0  0
    4.4656   -0.4001   -0.6545 C   0  0  0  0  0  0  0  0  0  0  0  0
    3.0409   -2.5725   -0.0936 C   0  0  0  0  0  0  0  0  0  0  0  0
    5.5802    1.6087   -1.2328 C   0  0  0  0  0  0  0  0  0  0  0  0
    0.4840    3.9470    0.4994 C   0  0  0  0  0  0  0  0  0  0  0  0
    5.7494   -0.7551   -1.2558 C   0  0  0  0  0  0  0  0  0  0  0  0
    1.2210   -4.0388    0.7049 C   0  0  0  0  0  0  0  0  0  0  0  0
    3.1169    4.0734   -0.4451 C   0  0  0  0  0  0  0  0  0  0  0  0
   -3.4881   -1.8980   -0.3818 C   0  0  0  0  0  0  0  0  0  0  0  0
    3.7297   -3.7427   -0.5035 C   0  0  0  0  0  0  0  0  0  0  0  0
   -4.4186    0.3465    0.2561 C   0  0  0  0  0  0  0  0  0  0  0  0
   -2.0368    0.8632   -1.5829 C   0  0  0  0  0  0  0  0  0  0  0  0
    1.0311    5.1595    0.0718 C   0  0  0  0  0  0  0  0  0  0  0  0
    2.3377    5.2278   -0.3799 C   0  0  0  0  0  0  0  0  0  0  0  0
    1.9393   -5.1577    0.2858 C   0  0  0  0  0  0  0  0  0  0  0  0
    3.1790   -5.0133   -0.3126 C   0  0  0  0  0  0  0  0  0  0  0  0
   -5.6044    0.0638   -0.5683 C   0  0  0  0  0  0  0  0  0  0  0  0
   -6.7311   -0.5720   -0.0468 C   0  0  0  0  0  0  0  0  0  0  0  0
   -5.5803    0.4527   -1.9077 C   0  0  0  0  0  0  0  0  0  0  0  0
   -7.8336   -0.8189   -0.8647 C   0  0  0  0  0  0  0  0  0  0  0  0
   -6.6830    0.2056   -2.7256 C   0  0  0  0  0  0  0  0  0  0  0  0
   -7.8096   -0.4301   -2.2042 C   0  0  0  0  0  0  0  0  0  0  0  0
   -2.0366    1.7273    0.7225 H   0  0  0  0  0  0  0  0  0  0  0  0
    0.2017   -2.1077    2.5195 H   0  0  0  0  0  0  0  0  0  0  0  0
   -2.5678   -0.2774    2.1738 H   0  0  0  0  0  0  0  0  0  0  0  0
   -1.7590   -2.4808    1.6035 H   0  0  0  0  0  0  0  0  0  0  0  0
   -1.0944   -1.9797    0.0567 H   0  0  0  0  0  0  0  0  0  0  0  0
    0.2527    2.2683    3.3914 H   0  0  0  0  0  0  0  0  0  0  0  0
   -1.3118    1.4785    3.4871 H   0  0  0  0  0  0  0  0  0  0  0  0
   -1.1247    2.8920    2.4682 H   0  0  0  0  0  0  0  0  0  0  0  0
    5.3517    2.1649   -2.1451 H   0  0  0  0  0  0  0  0  0  0  0  0
    6.1352    2.2201   -0.5174 H   0  0  0  0  0  0  0  0  0  0  0  0
   -0.5534    3.9337    0.8114 H   0  0  0  0  0  0  0  0  0  0  0  0
    0.2501   -4.1740    1.1725 H   0  0  0  0  0  0  0  0  0  0  0  0
    4.1259    4.1424   -0.8439 H   0  0  0  0  0  0  0  0  0  0  0  0
   -2.6833   -2.0067   -1.1115 H   0  0  0  0  0  0  0  0  0  0  0  0
   -4.4136   -1.9966   -0.9510 H   0  0  0  0  0  0  0  0  0  0  0  0
   -3.4917   -2.7270    0.3320 H   0  0  0  0  0  0  0  0  0  0  0  0
    4.7017   -3.6788   -0.9793 H   0  0  0  0  0  0  0  0  0  0  0  0
    7.2878    0.5015   -2.0124 H   0  0  0  0  0  0  0  0  0  0  0  0
   -1.5395    1.2297   -2.4886 H   0  0  0  0  0  0  0  0  0  0  0  0
   -2.7106    1.6668   -1.2772 H   0  0  0  0  0  0  0  0  0  0  0  0
   -2.5462   -0.0414   -1.9018 H   0  0  0  0  0  0  0  0  0  0  0  0
    0.4192    6.0575    0.0900 H   0  0  0  0  0  0  0  0  0  0  0  0
    2.7501    6.1769   -0.7103 H   0  0  0  0  0  0  0  0  0  0  0  0
    1.5207   -6.1498    0.4309 H   0  0  0  0  0  0  0  0  0  0  0  0
    3.7300   -5.8918   -0.6371 H   0  0  0  0  0  0  0  0  0  0  0  0
   -4.7220    0.9606   -2.3341 H   0  0  0  0  0  0  0  0  0  0  0  0
   -8.7194   -1.3132   -0.4740 H   0  0  0  0  0  0  0  0  0  0  0  0
   -6.6656    0.5110   -3.7678 H   0  0  0  0  0  0  0  0  0  0  0  0
   -8.6683   -0.6218   -2.8409 H   0  0  0  0  0  0  0  0  0  0  0  0
  1 40  1  0  0  0  0
  2 10  1  0  0  0  0
  2 12  1  0  0  0  0
  3 11  1  0  0  0  0
  3 34  1  0  0  0  0
  4 28  2  0  0  0  0
  5 33  2  0  0  0  0
  6 10  1  0  0  0  0
  6 15  1  0  0  0  0
  6 19  1  0  0  0  0
  7 12  1  0  0  0  0
  7 16  1  0  0  0  0
  7 21  1  0  0  0  0
  8 13  1  0  0  0  0
  8 31  1  0  0  0  0
  8 33  1  0  0  0  0
  9 26  1  0  0  0  0
  9 28  1  0  0  0  0
  9 62  1  0  0  0  0
 10 11  1  0  0  0  0
 10 20  1  0  0  0  0
 11 13  1  0  0  0  0
 11 45  1  0  0  0  0
 12 14  1  0  0  0  0
 12 46  1  0  0  0  0
 13 14  1  0  0  0  0
 13 47  1  0  0  0  0
 14 48  1  0  0  0  0
 14 49  1  0  0  0  0
 15 16  2  0  0  0  0
 15 17  1  0  0  0  0
 16 18  1  0  0  0  0
 17 22  1  0  0  0  0
 17 23  2  0  0  0  0
 18 24  2  0  0  0  0
 18 25  1  0  0  0  0
 19 22  1  0  0  0  0
 19 27  2  0  0  0  0
 20 50  1  0  0  0  0
 20 51  1  0  0  0  0
 20 52  1  0  0  0  0
 21 25  1  0  0  0  0
 21 29  2  0  0  0  0
 22 30  2  0  0  0  0
 23 24  1  0  0  0  0
 23 26  1  0  0  0  0
 24 28  1  0  0  0  0
 25 32  2  0  0  0  0
 26 53  1  0  0  0  0
 26 54  1  0  0  0  0
 27 35  1  0  0  0  0
 27 55  1  0  0  0  0
 29 37  1  0  0  0  0
 29 56  1  0  0  0  0
 30 36  1  0  0  0  0
 30 57  1  0  0  0  0
 31 58  1  0  0  0  0
 31 59  1  0  0  0  0
 31 60  1  0  0  0  0
 32 38  1  0  0  0  0
 32 61  1  0  0  0  0
 33 39  1  0  0  0  0
 34 63  1  0  0  0  0
 34 64  1  0  0  0  0
 34 65  1  0  0  0  0
 35 36  2  0  0  0  0
 35 66  1  0  0  0  0
 36 67  1  0  0  0  0
 37 38  2  0  0  0  0
 37 68  1  0  0  0  0
 38 69  1  0  0  0  0
 39 40  1  0  0  0  0
 39 41  2  0  0  0  0
 40 42  2  0  0  0  0
 41 43  1  0  0  0  0
 41 70  1  0  0  0  0
 42 44  1  0  0  0  0
 42 71  1  0  0  0  0
 43 44  2  0  0  0  0
 43 72  1  0  0  0  0
 44 73  1  0  0  0  0
M  END
> <PUBCHEM_COMPOUND_CID>
44352914

> <PUBCHEM_CONFORMER_RMSD>
1

> <PUBCHEM_CONFORMER_DIVERSEORDER>
1
8
6
7
4
2
5
3

> <PUBCHEM_MMFF94_PARTIAL_CHARGES>
53
1 -0.18
10 0.54
11 0.28
12 0.54
13 0.3
15 -0.05
16 -0.05
17 -0.01
18 -0.01
19 -0.15
2 -0.56
21 -0.15
23 -0.14
24 0.09
26 0.44
27 -0.15
28 0.54
29 -0.15
3 -0.56
30 -0.15
31 0.3
32 -0.15
33 0.54
34 0.28
35 -0.15
36 -0.15
37 -0.15
38 -0.15
39 0.09
4 -0.57
40 0.18
41 -0.15
42 -0.15
43 -0.15
44 -0.15
5 -0.57
55 0.15
56 0.15
57 0.15
6 -0.04
61 0.15
62 0.37
66 0.15
67 0.15
68 0.15
69 0.15
7 -0.04
70 0.15
71 0.15
72 0.15
73 0.15
8 -0.66
9 -0.73

> <PUBCHEM_EFFECTIVE_ROTOR_COUNT>
5.2

> <PUBCHEM_PHARMACOPHORE_FEATURES>
16
1 2 acceptor
1 3 acceptor
1 4 acceptor
1 5 acceptor
1 6 cation
1 7 cation
1 9 donor
5 6 15 17 19 22 rings
5 7 16 18 21 25 rings
5 9 23 24 26 28 rings
6 15 16 17 18 23 24 rings
6 19 22 27 30 35 36 rings
6 2 10 11 12 13 14 rings
6 21 25 29 32 37 38 rings
6 39 40 41 42 43 44 rings
7 2 6 7 10 12 15 16 rings

> <PUBCHEM_HEAVY_ATOM_COUNT>
44

> <PUBCHEM_ATOM_DEF_STEREO_COUNT>
4

> <PUBCHEM_ATOM_UDEF_STEREO_COUNT>
0

> <PUBCHEM_BOND_DEF_STEREO_COUNT>
0

> <PUBCHEM_BOND_UDEF_STEREO_COUNT>
0

> <PUBCHEM_ISOTOPIC_ATOM_COUNT>
0

> <PUBCHEM_COMPONENT_COUNT>
1

> <PUBCHEM_CACTVS_TAUTO_COUNT>
2

> <PUBCHEM_CONFORMER_ID>
02A4C59200000001

> <PUBCHEM_MMFF94_ENERGY>
206.593

> <PUBCHEM_FEATURE_SELFOVERLAP>
82.158

> <PUBCHEM_SHAPE_FINGERPRINT>
10622 236 18057036909504868027
10675989 125 18340770450238944321
10693767 8 18202003192600517150
10930396 42 18268408262749565424
11115154 58 17917713483566387609
11135926 11 18410304596350368530
11377469 6 17917993832623382081
1361 2 18411139173078265360
13636023 20 18341889632990398392
13911987 19 18190484773597086324
14068700 675 18060422383147824552
14117953 113 18410577310558704572
14415360 78 18192989546573530124
15082195 135 18339070584156739851
15183329 4 18413107264917361303
15324884 4 17608669523582525160
15328829 1 17631754702721611467
15439362 3 18123191474642846036
15444296 8 17550961290805532030
15484559 13 18411133654262328022
15927050 60 17544775434846745132
15950262 2 15359128034177216142
19319366 153 18128527348657934753
20775438 99 17912912066194584636
21133410 171 17320389351358885947
22121540 332 17459727320810336413
23522609 53 17845112709366926585
23559900 14 18340204210561821401
23569914 152 17544723779253887215
24771293 8 18272650169402808032
24771750 20 17972052588776046365
3388396 114 18265631887908495726
3504750 166 16460501830460980514
376196 1 17898560136601158401
3882209 13 17828465995738024154
4015057 19 18335425617416883083
4066623 53 18115018594438583220
42767 46 16845280666850637407
4353968 344 18124041127360359830
437795 51 18260546766451110181
45266715 3 18272085037652894400
46194498 28 18261098652648066991
6004065 56 18411699919977578232
6058803 2 17768263314421360762

> <PUBCHEM_SHAPE_MULTIPOLES>
863.97
16.17
6.14
1.91
29.44
0.41
-0.05
-3.96
11.44
-10.52
-0.34
2.27
0.27
0.28

> <PUBCHEM_SHAPE_SELFOVERLAP>
1977.088

> <PUBCHEM_SHAPE_VOLUME>
447.5

> <PUBCHEM_COORDINATE_TYPE>
2
5
10

$$$$
