23647236
  -OEChem-10062121593D

 35 38  0     0  0  0  0  0  0999 V2000
    6.1222   -1.2592   -0.0880 Cl  0  0  0  0  0  0  0  0  0  0  0  0
   -0.6221   -1.9414   -0.0689 O   0  0  0  0  0  0  0  0  0  0  0  0
    2.4595    2.6315    0.0679 O   0  0  0  0  0  0  0  0  0  0  0  0
   -1.6733    0.7557    0.0339 N   0  0  0  0  0  0  0  0  0  0  0  0
    0.1753   -0.8057   -0.0290 N   0  0  0  0  0  0  0  0  0  0  0  0
   -1.8855    2.0879    0.0782 N   0  0  0  0  0  0  0  0  0  0  0  0
   -0.3541    0.4332    0.0148 C   0  0  0  0  0  0  0  0  0  0  0  0
    0.3453    1.6107    0.0479 C   0  0  0  0  0  0  0  0  0  0  0  0
    1.5982   -0.9249   -0.0417 C   0  0  0  0  0  0  0  0  0  0  0  0
    2.4164    0.2426   -0.0098 C   0  0  0  0  0  0  0  0  0  0  0  0
   -0.6480    2.6030    0.0866 C   0  0  0  0  0  0  0  0  0  0  0  0
    1.7886    1.6095    0.0381 C   0  0  0  0  0  0  0  0  0  0  0  0
   -2.7785   -0.0958    0.0163 C   0  0  0  0  0  0  0  0  0  0  0  0
    2.2245   -2.1782   -0.0851 C   0  0  0  0  0  0  0  0  0  0  0  0
    3.8102    0.1372   -0.0220 C   0  0  0  0  0  0  0  0  0  0  0  0
   -0.4711    4.0643    0.1343 C   0  0  0  0  0  0  0  0  0  0  0  0
    3.6181   -2.2734   -0.0970 C   0  0  0  0  0  0  0  0  0  0  0  0
    4.4058   -1.1225   -0.0657 C   0  0  0  0  0  0  0  0  0  0  0  0
   -2.9544   -1.0309    1.0364 C   0  0  0  0  0  0  0  0  0  0  0  0
   -3.7092   -0.0099   -1.0192 C   0  0  0  0  0  0  0  0  0  0  0  0
   -4.0608   -1.8802    1.0208 C   0  0  0  0  0  0  0  0  0  0  0  0
   -4.8156   -0.8591   -1.0345 C   0  0  0  0  0  0  0  0  0  0  0  0
   -4.9915   -1.7942   -0.0145 C   0  0  0  0  0  0  0  0  0  0  0  0
    1.6412   -3.0949   -0.1104 H   0  0  0  0  0  0  0  0  0  0  0  0
    4.4326    1.0283    0.0013 H   0  0  0  0  0  0  0  0  0  0  0  0
    0.0824    4.4126   -0.7437 H   0  0  0  0  0  0  0  0  0  0  0  0
   -1.4306    4.5920    0.1554 H   0  0  0  0  0  0  0  0  0  0  0  0
    0.0889    4.3538    1.0294 H   0  0  0  0  0  0  0  0  0  0  0  0
    4.0779   -3.2582   -0.1320 H   0  0  0  0  0  0  0  0  0  0  0  0
   -2.2546   -1.0982    1.8663 H   0  0  0  0  0  0  0  0  0  0  0  0
   -3.5860    0.7100   -1.8247 H   0  0  0  0  0  0  0  0  0  0  0  0
   -0.7065   -2.0949   -1.0259 H   0  0  0  0  0  0  0  0  0  0  0  0
   -4.2007   -2.6046    1.8178 H   0  0  0  0  0  0  0  0  0  0  0  0
   -5.5400   -0.7930   -1.8410 H   0  0  0  0  0  0  0  0  0  0  0  0
   -5.8535   -2.4547   -0.0260 H   0  0  0  0  0  0  0  0  0  0  0  0
  1 18  1  0  0  0  0
  2  5  1  0  0  0  0
  2 32  1  0  0  0  0
  3 12  2  0  0  0  0
  4  6  1  0  0  0  0
  4  7  1  0  0  0  0
  4 13  1  0  0  0  0
  5  7  1  0  0  0  0
  5  9  1  0  0  0  0
  6 11  2  0  0  0  0
  7  8  2  0  0  0  0
  8 11  1  0  0  0  0
  8 12  1  0  0  0  0
  9 10  2  0  0  0  0
  9 14  1  0  0  0  0
 10 12  1  0  0  0  0
 10 15  1  0  0  0  0
 11 16  1  0  0  0  0
 13 19  2  0  0  0  0
 13 20  1  0  0  0  0
 14 17  2  0  0  0  0
 14 24  1  0  0  0  0
 15 18  2  0  0  0  0
 15 25  1  0  0  0  0
 16 26  1  0  0  0  0
 16 27  1  0  0  0  0
 16 28  1  0  0  0  0
 17 18  1  0  0  0  0
 17 29  1  0  0  0  0
 19 21  1  0  0  0  0
 19 30  1  0  0  0  0
 20 22  2  0  0  0  0
 20 31  1  0  0  0  0
 21 23  2  0  0  0  0
 21 33  1  0  0  0  0
 22 23  1  0  0  0  0
 22 34  1  0  0  0  0
 23 35  1  0  0  0  0
M  END
> <PUBCHEM_COMPOUND_CID>
23647236

> <PUBCHEM_CONFORMER_RMSD>
0.6

> <PUBCHEM_CONFORMER_DIVERSEORDER>
1

> <PUBCHEM_MMFF94_PARTIAL_CHARGES>
32
1 -0.18
10 0.09
11 0.11
12 0.57
13 -0.02
14 -0.15
15 -0.15
16 0.18
17 -0.15
18 0.18
19 -0.15
2 -0.38
20 -0.15
21 -0.15
22 -0.15
23 -0.15
24 0.15
25 0.15
29 0.15
3 -0.57
30 0.15
31 0.15
32 0.4
33 0.15
34 0.15
35 0.15
4 0.59
5 -0.2
6 -0.71
7 -0.07
8 -0.09
9 0.1

> <PUBCHEM_EFFECTIVE_ROTOR_COUNT>
1

> <PUBCHEM_PHARMACOPHORE_FEATURES>
7
1 2 anion
1 3 acceptor
1 6 acceptor
5 4 6 7 8 11 rings
6 13 19 20 21 22 23 rings
6 5 7 8 9 10 12 rings
6 9 10 14 15 17 18 rings

> <PUBCHEM_HEAVY_ATOM_COUNT>
23

> <PUBCHEM_ATOM_DEF_STEREO_COUNT>
0

> <PUBCHEM_ATOM_UDEF_STEREO_COUNT>
0

> <PUBCHEM_BOND_DEF_STEREO_COUNT>
0

> <PUBCHEM_BOND_UDEF_STEREO_COUNT>
0

> <PUBCHEM_ISOTOPIC_ATOM_COUNT>
0

> <PUBCHEM_COMPONENT_COUNT>
1

> <PUBCHEM_CACTVS_TAUTO_COUNT>
1

> <PUBCHEM_CONFORMER_ID>
0168D40400000001

> <PUBCHEM_MMFF94_ENERGY>
77.6897

> <PUBCHEM_FEATURE_SELFOVERLAP>
35.642

> <PUBCHEM_SHAPE_FINGERPRINT>
10411042 1 18411420617700054506
10616163 171 18268150851303507846
10906281 52 18126855889336751325
10967382 1 18267022945551907896
11045515 52 18187644691580410261
11806522 49 18408885118533441214
12166972 35 17821451274497235318
12236239 1 17560803273168470079
12363563 72 18410301310842538719
12403259 226 18341326704728351192
12553582 1 18339098028549030579
12788726 201 18262792943873004153
13134695 92 18269551796837517877
13140716 1 18341619170241834721
13544653 18 18408326605212586927
13583140 156 14404899120553123875
138480 1 14807694953286354937
13862211 1 18411416203107235630
14767858 380 18335434499609282668
14787075 74 18260556627880936442
14790565 3 17400649714414658492
14866123 147 18051132484823910401
15196674 1 18410575093263595488
15352361 1 18410292505953912059
15927050 60 17693379254119427220
16087824 20 18194965133463386189
16945 1 18411421717633876800
17357779 13 18336817633011653661
17492 89 18195245516784953246
1813 80 18130521785309232981
18222031 100 18343010108047961098
19427546 20 18263369088304140444
19591789 44 18411139181531277174
200 152 18272647948376726871
20028762 73 18059289967317398831
20261772 1 18060133258496905422
20645477 70 18263074573552939395
21029758 11 18410290311478610571
21267235 1 18411989048601938526
21641784 216 18115607975657999164
221357 26 18335410288862894927
221490 88 18408325509647740741
22182313 1 18265592412015290820
23175994 123 18408604786281710447
23402539 116 18341327812307609174
23557571 272 18128256692619394964
23558518 356 18045515109798062674
23559900 14 18334850658107037089
25147074 1 18340505399095892793
2748010 2 18411408514635747413
283562 15 18338516318220580714
2871803 45 18334290963691281914
3004659 81 18040994050933286094
3091708 16 8921599542941159513
329604 57 18334581235314844454
335352 9 18410573951593826301
3421961 26 18340206413716422881
350125 39 18411985754346107248
46194498 28 17459748319016073269
463206 1 18337673139016171767
5104073 3 18198055877479988850
5283173 99 18042675127235249045
5309563 4 18411421743340727907
6669772 16 17835813263210706268
9709674 26 18124598578869009190

> <PUBCHEM_SHAPE_MULTIPOLES>
448.52
10.21
3.49
0.8
2.57
3.37
0
-8.47
-0.87
-0.01
0.3
-0.74
-0.19
0.38

> <PUBCHEM_SHAPE_SELFOVERLAP>
1001.522

> <PUBCHEM_SHAPE_VOLUME>
240.2

> <PUBCHEM_COORDINATE_TYPE>
2
5
10

$$$$
