136027069
  -OEChem-10052115183D

 26 29  0     0  0  0  0  0  0999 V2000
   -4.7773    0.6084    0.0000 S   0  0  0  0  0  0  0  0  0  0  0  0
   -1.4729   -3.1682    0.0001 O   0  0  0  0  0  0  0  0  0  0  0  0
   -0.7778   -1.0087    0.0000 N   0  0  0  0  0  0  0  0  0  0  0  0
   -3.0634   -1.4310   -0.0002 N   0  0  0  0  0  0  0  0  0  0  0  0
    0.2118    0.9646    0.0002 N   0  0  0  0  0  0  0  0  0  0  0  0
    0.5341   -1.3130    0.0000 N   0  0  0  0  0  0  0  0  0  0  0  0
    5.2706    0.5093   -0.0002 N   0  0  0  0  0  0  0  0  0  0  0  0
   -0.9488    0.3580    0.0000 C   0  0  0  0  0  0  0  0  0  0  0  0
   -2.2320    0.8730    0.0000 C   0  0  0  0  0  0  0  0  0  0  0  0
   -3.2336   -0.0603   -0.0001 C   0  0  0  0  0  0  0  0  0  0  0  0
   -1.7821   -1.9865   -0.0002 C   0  0  0  0  0  0  0  0  0  0  0  0
    1.0826   -0.0928    0.0002 C   0  0  0  0  0  0  0  0  0  0  0  0
   -2.7245    2.1960    0.0001 C   0  0  0  0  0  0  0  0  0  0  0  0
    2.5037    0.1115    0.0001 C   0  0  0  0  0  0  0  0  0  0  0  0
   -4.1095    2.2022    0.0000 C   0  0  0  0  0  0  0  0  0  0  0  0
    3.0234    1.4013    0.0000 C   0  0  0  0  0  0  0  0  0  0  0  0
    3.3657   -0.9795    0.0001 C   0  0  0  0  0  0  0  0  0  0  0  0
    4.4015    1.5450   -0.0002 C   0  0  0  0  0  0  0  0  0  0  0  0
    4.7285   -0.7292    0.0001 C   0  0  0  0  0  0  0  0  0  0  0  0
   -3.8873   -2.0233   -0.0002 H   0  0  0  0  0  0  0  0  0  0  0  0
   -2.1247    3.0970    0.0002 H   0  0  0  0  0  0  0  0  0  0  0  0
   -4.7660    3.0608    0.0000 H   0  0  0  0  0  0  0  0  0  0  0  0
    2.3958    2.2864    0.0000 H   0  0  0  0  0  0  0  0  0  0  0  0
    3.0184   -2.0075    0.0002 H   0  0  0  0  0  0  0  0  0  0  0  0
    4.8574    2.5296   -0.0004 H   0  0  0  0  0  0  0  0  0  0  0  0
    5.4434   -1.5456    0.0002 H   0  0  0  0  0  0  0  0  0  0  0  0
  1 10  1  0  0  0  0
  1 15  1  0  0  0  0
  2 11  2  0  0  0  0
  3  6  1  0  0  0  0
  3  8  1  0  0  0  0
  3 11  1  0  0  0  0
  4 10  1  0  0  0  0
  4 11  1  0  0  0  0
  4 20  1  0  0  0  0
  5  8  2  0  0  0  0
  5 12  1  0  0  0  0
  6 12  2  0  0  0  0
  7 18  2  0  0  0  0
  7 19  1  0  0  0  0
  8  9  1  0  0  0  0
  9 10  2  0  0  0  0
  9 13  1  0  0  0  0
 12 14  1  0  0  0  0
 13 15  2  0  0  0  0
 13 21  1  0  0  0  0
 14 16  2  0  0  0  0
 14 17  1  0  0  0  0
 15 22  1  0  0  0  0
 16 18  1  0  0  0  0
 16 23  1  0  0  0  0
 17 19  2  0  0  0  0
 17 24  1  0  0  0  0
 18 25  1  0  0  0  0
 19 26  1  0  0  0  0
M  END
> <PUBCHEM_COMPOUND_CID>
136027069

> <PUBCHEM_CONFORMER_RMSD>
0.6

> <PUBCHEM_CONFORMER_DIVERSEORDER>
1

> <PUBCHEM_MMFF94_PARTIAL_CHARGES>
25
1 -0.08
10 0.1
11 0.64
12 0.46
13 -0.15
14 0.05
15 -0.11
16 -0.15
17 -0.15
18 0.16
19 0.16
2 -0.57
20 0.37
21 0.15
22 0.15
23 0.15
24 0.15
25 0.15
26 0.15
3 0.56
4 -0.49
5 -0.57
6 -0.71
7 -0.62
8 0.19

> <PUBCHEM_EFFECTIVE_ROTOR_COUNT>
1

> <PUBCHEM_PHARMACOPHORE_FEATURES>
8
1 2 acceptor
1 4 donor
1 7 acceptor
3 5 6 12 cation
5 1 9 10 13 15 rings
5 3 5 6 8 12 rings
6 3 4 8 9 10 11 rings
6 7 14 16 17 18 19 rings

> <PUBCHEM_HEAVY_ATOM_COUNT>
19

> <PUBCHEM_ATOM_DEF_STEREO_COUNT>
0

> <PUBCHEM_ATOM_UDEF_STEREO_COUNT>
0

> <PUBCHEM_BOND_DEF_STEREO_COUNT>
0

> <PUBCHEM_BOND_UDEF_STEREO_COUNT>
0

> <PUBCHEM_ISOTOPIC_ATOM_COUNT>
0

> <PUBCHEM_COMPONENT_COUNT>
1

> <PUBCHEM_CACTVS_TAUTO_COUNT>
-1

> <PUBCHEM_CONFORMER_ID>
081B9BBD00000001

> <PUBCHEM_MMFF94_ENERGY>
41.8847

> <PUBCHEM_FEATURE_SELFOVERLAP>
40.822

> <PUBCHEM_SHAPE_FINGERPRINT>
10014705 185 18335137596239969781
10319926 262 18341033208559861106
10411042 1 17689999359254840747
10608611 8 18341328980871055432
10616163 171 18339644546279740118
11405975 8 18408318900373515634
12107183 9 17831292796903015488
12173636 292 18410570678311626173
12236239 1 17821446854617015568
12390115 104 18200329710164880017
12403814 3 17676202464147507629
12500047 106 18412541020275579128
13140716 1 18049733102911489659
13167823 11 18334010601570011034
13544592 145 18270412572713310326
13675066 3 18041006132639223608
138480 1 17473825026567951939
14508225 48 18053086600718184167
14790565 3 18268718216631736737
15042514 8 18264495160268267379
15196674 1 18410855468765601636
15375358 24 18272934908005556302
15442244 35 18408884027690836712
1813 80 16732706026115350020
18186145 218 18187640289296499052
200 152 17275382105732506709
20510252 161 18343024393541392865
20602899 9 15698277828487058175
20645477 56 18410014333801712333
20645477 70 16916515753039108630
21033648 29 18338221696460519809
21065198 57 18411699920045786144
21236236 1 18341613746341353891
21267235 1 18409457985207756706
22224240 67 18339372886083549001
23227448 37 18411981398726880621
23402539 116 18342168973553044413
23402655 69 18409450302207473084
23557571 272 18271817868700595892
23558518 356 17971474258792287296
23559900 14 18272652291058278598
245318 6 16376927411037280724
3004659 81 18263087631161309486
335352 9 18338516318721760190
350125 39 18411141359660120497
3545911 37 18412829088349108808
4073 2 18114466768978031146
4214541 1 18410573985441835328
474 4 17386293224209035540
474229 33 18410576185024110699
495365 180 17346302813832978490
5104073 3 18409165528437358584
559249 180 18337104571619794426
573450 72 18334282185242236018
69090 78 18411135827071966359
77779 3 18410294726884325860
9709674 26 18342463651138338846

> <PUBCHEM_SHAPE_MULTIPOLES>
364.09
10.26
2.42
0.59
6.35
0.94
0
-3.85
0
-1.7
0
-0.03
-0.03
0

> <PUBCHEM_SHAPE_SELFOVERLAP>
820.499

> <PUBCHEM_SHAPE_VOLUME>
194.6

> <PUBCHEM_COORDINATE_TYPE>
2
5
10

$$$$
