135469328
  -OEChem-10062122043D

 28 30  0     0  0  0  0  0  0999 V2000
   -4.4534   -2.0160    0.2372 O   0  0  0  0  0  0  0  0  0  0  0  0
   -5.1994    0.6448   -0.0567 O   0  0  0  0  0  0  0  0  0  0  0  0
   -0.6303    1.9527   -0.2170 N   0  0  0  0  0  0  0  0  0  0  0  0
    5.2848   -0.5476    0.0479 N   0  0  0  0  0  0  0  0  0  0  0  0
   -1.1781   -0.3793    0.0447 C   0  0  0  0  0  0  0  0  0  0  0  0
    1.1358    0.3164   -0.0384 C   0  0  0  0  0  0  0  0  0  0  0  0
   -1.5479    0.9737   -0.1052 C   0  0  0  0  0  0  0  0  0  0  0  0
    0.1880   -0.6903    0.0763 C   0  0  0  0  0  0  0  0  0  0  0  0
    2.5486    0.0218   -0.0090 C   0  0  0  0  0  0  0  0  0  0  0  0
   -2.1624   -1.3756    0.1586 C   0  0  0  0  0  0  0  0  0  0  0  0
   -2.9051    1.2819   -0.1360 C   0  0  0  0  0  0  0  0  0  0  0  0
    0.6779    1.6104   -0.1820 C   0  0  0  0  0  0  0  0  0  0  0  0
   -3.5125   -1.0389    0.1248 C   0  0  0  0  0  0  0  0  0  0  0  0
   -3.8840    0.2917   -0.0224 C   0  0  0  0  0  0  0  0  0  0  0  0
    3.0174   -1.2002   -0.4788 C   0  0  0  0  0  0  0  0  0  0  0  0
    3.4465    0.9594    0.4891 C   0  0  0  0  0  0  0  0  0  0  0  0
    4.3821   -1.4340   -0.4289 C   0  0  0  0  0  0  0  0  0  0  0  0
    4.7921    0.6291    0.4956 C   0  0  0  0  0  0  0  0  0  0  0  0
    0.4786   -1.7292    0.2187 H   0  0  0  0  0  0  0  0  0  0  0  0
   -1.8686   -2.4173    0.2741 H   0  0  0  0  0  0  0  0  0  0  0  0
   -3.2075    2.3220   -0.2510 H   0  0  0  0  0  0  0  0  0  0  0  0
    1.3405    2.4614   -0.3056 H   0  0  0  0  0  0  0  0  0  0  0  0
    2.3745   -1.9636   -0.9036 H   0  0  0  0  0  0  0  0  0  0  0  0
    3.1446    1.9197    0.8929 H   0  0  0  0  0  0  0  0  0  0  0  0
    4.7995   -2.3686   -0.7889 H   0  0  0  0  0  0  0  0  0  0  0  0
    5.5328    1.3230    0.8794 H   0  0  0  0  0  0  0  0  0  0  0  0
   -4.0086   -2.8758    0.3316 H   0  0  0  0  0  0  0  0  0  0  0  0
   -5.2670    1.6091   -0.1637 H   0  0  0  0  0  0  0  0  0  0  0  0
  1 13  1  0  0  0  0
  1 27  1  0  0  0  0
  2 14  1  0  0  0  0
  2 28  1  0  0  0  0
  3  7  2  0  0  0  0
  3 12  1  0  0  0  0
  4 17  2  0  0  0  0
  4 18  1  0  0  0  0
  5  7  1  0  0  0  0
  5  8  2  0  0  0  0
  5 10  1  0  0  0  0
  6  8  1  0  0  0  0
  6  9  1  0  0  0  0
  6 12  2  0  0  0  0
  7 11  1  0  0  0  0
  8 19  1  0  0  0  0
  9 15  2  0  0  0  0
  9 16  1  0  0  0  0
 10 13  2  0  0  0  0
 10 20  1  0  0  0  0
 11 14  2  0  0  0  0
 11 21  1  0  0  0  0
 12 22  1  0  0  0  0
 13 14  1  0  0  0  0
 15 17  1  0  0  0  0
 15 23  1  0  0  0  0
 16 18  2  0  0  0  0
 16 24  1  0  0  0  0
 17 25  1  0  0  0  0
 18 26  1  0  0  0  0
M  END
> <PUBCHEM_COMPOUND_CID>
135469328

> <PUBCHEM_CONFORMER_RMSD>
0.6

> <PUBCHEM_CONFORMER_DIVERSEORDER>
1

> <PUBCHEM_MMFF94_PARTIAL_CHARGES>
25
1 -0.53
10 -0.15
11 -0.15
12 0.16
13 0.08
14 0.08
15 -0.15
16 -0.15
17 0.16
18 0.16
19 0.15
2 -0.53
20 0.15
21 0.15
22 0.15
23 0.15
24 0.15
25 0.15
26 0.15
27 0.45
28 0.45
3 -0.62
4 -0.62
7 0.31
8 -0.15

> <PUBCHEM_EFFECTIVE_ROTOR_COUNT>
1

> <PUBCHEM_PHARMACOPHORE_FEATURES>
7
1 1 donor
1 2 donor
1 3 acceptor
1 4 acceptor
6 3 5 6 7 8 12 rings
6 4 9 15 16 17 18 rings
6 5 7 10 11 13 14 rings

> <PUBCHEM_HEAVY_ATOM_COUNT>
18

> <PUBCHEM_ATOM_DEF_STEREO_COUNT>
0

> <PUBCHEM_ATOM_UDEF_STEREO_COUNT>
0

> <PUBCHEM_BOND_DEF_STEREO_COUNT>
0

> <PUBCHEM_BOND_UDEF_STEREO_COUNT>
0

> <PUBCHEM_ISOTOPIC_ATOM_COUNT>
0

> <PUBCHEM_COMPONENT_COUNT>
1

> <PUBCHEM_CACTVS_TAUTO_COUNT>
-1

> <PUBCHEM_CONFORMER_ID>
0813191000000001

> <PUBCHEM_MMFF94_ENERGY>
59.4089

> <PUBCHEM_FEATURE_SELFOVERLAP>
35.557

> <PUBCHEM_SHAPE_FINGERPRINT>
10 15 18270948142988503336
11132069 177 18408040706192824909
11401426 45 18408601461618340101
12032990 46 18410295821610388941
12236239 1 17240202118947617760
13214271 11 18342173371551965743
13288520 33 18410295800156651582
13296908 3 18411419509904460270
13583140 156 14836115542500542679
13675066 3 18412543244836549400
13862211 1 18408317800345429563
14115302 16 17531538658276254398
14386348 63 18412827971203827422
15196674 1 18410293635456172047
15375358 24 18413108359617278046
15536298 74 18413670218849284296
17804303 29 18411703209626932849
1813 80 17530685415883720348
18186145 218 16877941680458074748
18785283 64 17914317229481769576
19141452 34 18343865537137810895
200 152 17775562039967473013
20279233 1 18343025479978272878
20374829 77 18408039598117662330
20510252 161 18270961232809611616
20645477 70 17988644039293534990
21029758 11 18342452638731376401
21267235 1 18409175419362152363
221490 88 18190468335860289449
22485316 2 18411417306428111758
22854114 59 17917990598839386674
2297311 6 18342187643870851532
23175994 123 17489590051877482297
23402539 116 18410287021275303103
23557571 272 18341055103776069636
23559900 14 18411698777584511376
239999 70 18272375257230752502
26918003 58 18273493459785671000
2871803 45 18335419033005060334
3004659 81 18188212005769093622
335352 9 18409167701996914389
34934 24 18335976485358008355
3545911 37 18410856538170234348
42 15 18410856559972176934
4214541 1 18411700958805632912
474 4 16589162708946379692
5104073 3 18412544318620572282
5374978 207 18410849946054902736
542803 24 16950285109223195462
67856867 119 18115311219224766948
69090 78 18272365369371927222
7364860 26 18194403526863628420
77779 3 18412545401289933576
9709674 26 18410580595417940710

> <PUBCHEM_SHAPE_MULTIPOLES>
348.73
10.66
1.78
0.66
2.36
0.05
0
2.4
-0.52
-0.64
0.06
0.19
0.01
0.65

> <PUBCHEM_SHAPE_SELFOVERLAP>
785.608

> <PUBCHEM_SHAPE_VOLUME>
182.5

> <PUBCHEM_COORDINATE_TYPE>
2
5
10

$$$$
