44570554
  -OEChem-10062122023D

 46 47  0     1  0  0  0  0  0999 V2000
    6.7593   -3.5582    0.2266 I   0  0  0  0  0  0  0  0  0  0  0  0
   -0.7838    0.0617    3.0509 F   0  0  0  0  0  0  0  0  0  0  0  0
    1.7352   -0.1852    2.0663 F   0  0  0  0  0  0  0  0  0  0  0  0
    5.2036    1.5602   -0.3623 F   0  0  0  0  0  0  0  0  0  0  0  0
   -4.4080    0.7919   -0.5671 O   0  0  0  0  0  0  0  0  0  0  0  0
   -0.2000    3.6495   -1.9936 O   0  0  0  0  0  0  0  0  0  0  0  0
   -2.8363   -1.9630   -1.1838 O   0  0  0  0  0  0  0  0  0  0  0  0
    1.3689    2.1221   -2.6039 O   0  0  0  0  0  0  0  0  0  0  0  0
   -3.5870    0.3177    1.5526 N   0  0  0  0  0  0  0  0  0  0  0  0
    2.4802    0.9971   -0.3215 N   0  0  0  0  0  0  0  0  0  0  0  0
   -6.3183   -1.0497    1.1192 N   0  0  0  0  0  0  0  0  0  0  0  0
   -4.1604   -2.7675   -2.8817 N   0  0  0  0  0  0  0  0  0  0  0  0
   -1.4218    1.3885    1.1888 C   0  0  0  0  0  0  0  0  0  0  0  0
   -2.8149    1.5262    1.7315 C   0  0  0  0  0  0  0  0  0  0  0  0
   -5.0274   -1.3057    0.4771 C   0  0  2  0  0  0  0  0  0  0  0  0
    1.1652    1.1357    0.1761 C   0  0  0  0  0  0  0  0  0  0  0  0
   -1.0828    1.9989   -0.0189 C   0  0  0  0  0  0  0  0  0  0  0  0
    0.2107    1.8725   -0.5253 C   0  0  0  0  0  0  0  0  0  0  0  0
   -4.3255    0.0488    0.4086 C   0  0  0  0  0  0  0  0  0  0  0  0
   -0.4672    0.6519    1.8900 C   0  0  0  0  0  0  0  0  0  0  0  0
   -5.2502   -1.9165   -0.9104 C   0  0  0  0  0  0  0  0  0  0  0  0
    0.8262    0.5256    1.3837 C   0  0  0  0  0  0  0  0  0  0  0  0
    3.4410   -0.0232   -0.1997 C   0  0  0  0  0  0  0  0  0  0  0  0
   -3.9496   -2.2049   -1.6407 C   0  0  0  0  0  0  0  0  0  0  0  0
    0.5331    2.5222   -1.7896 C   0  0  0  0  0  0  0  0  0  0  0  0
    4.8001    0.2892   -0.2247 C   0  0  0  0  0  0  0  0  0  0  0  0
    3.0326   -1.3491   -0.0539 C   0  0  0  0  0  0  0  0  0  0  0  0
    5.7510   -0.7242   -0.1037 C   0  0  0  0  0  0  0  0  0  0  0  0
    3.9834   -2.3625    0.0671 C   0  0  0  0  0  0  0  0  0  0  0  0
    5.3427   -2.0499    0.0421 C   0  0  0  0  0  0  0  0  0  0  0  0
   -3.3416    2.3601    1.2530 H   0  0  0  0  0  0  0  0  0  0  0  0
   -2.7804    1.7440    2.8050 H   0  0  0  0  0  0  0  0  0  0  0  0
   -4.4396   -1.9980    1.0917 H   0  0  0  0  0  0  0  0  0  0  0  0
   -1.8442    2.5562   -0.5595 H   0  0  0  0  0  0  0  0  0  0  0  0
   -3.5720   -0.3644    2.3052 H   0  0  0  0  0  0  0  0  0  0  0  0
   -5.8465   -1.2449   -1.5419 H   0  0  0  0  0  0  0  0  0  0  0  0
   -5.8007   -2.8616   -0.8193 H   0  0  0  0  0  0  0  0  0  0  0  0
    2.8136    1.8086   -0.8338 H   0  0  0  0  0  0  0  0  0  0  0  0
   -6.1666   -0.7370    2.0777 H   0  0  0  0  0  0  0  0  0  0  0  0
   -6.8445   -1.9202    1.1862 H   0  0  0  0  0  0  0  0  0  0  0  0
    1.9819   -1.6262   -0.0591 H   0  0  0  0  0  0  0  0  0  0  0  0
    6.8047   -0.4584   -0.1249 H   0  0  0  0  0  0  0  0  0  0  0  0
    3.6438   -3.3896    0.1743 H   0  0  0  0  0  0  0  0  0  0  0  0
   -5.0906   -2.9578   -3.2404 H   0  0  0  0  0  0  0  0  0  0  0  0
   -3.3806   -3.0123   -3.4828 H   0  0  0  0  0  0  0  0  0  0  0  0
    0.0224    4.0804   -2.8464 H   0  0  0  0  0  0  0  0  0  0  0  0
  1 30  1  0  0  0  0
  2 20  1  0  0  0  0
  3 22  1  0  0  0  0
  4 26  1  0  0  0  0
  5 19  2  0  0  0  0
  6 25  1  0  0  0  0
  6 46  1  0  0  0  0
  7 24  2  0  0  0  0
  8 25  2  0  0  0  0
  9 14  1  0  0  0  0
  9 19  1  0  0  0  0
  9 35  1  0  0  0  0
 10 16  1  0  0  0  0
 10 23  1  0  0  0  0
 10 38  1  0  0  0  0
 11 15  1  0  0  0  0
 11 39  1  0  0  0  0
 11 40  1  0  0  0  0
 12 24  1  0  0  0  0
 12 44  1  0  0  0  0
 12 45  1  0  0  0  0
 13 14  1  0  0  0  0
 13 17  2  0  0  0  0
 13 20  1  0  0  0  0
 14 31  1  0  0  0  0
 14 32  1  0  0  0  0
 15 19  1  0  0  0  0
 15 21  1  0  0  0  0
 15 33  1  0  0  0  0
 16 18  2  0  0  0  0
 16 22  1  0  0  0  0
 17 18  1  0  0  0  0
 17 34  1  0  0  0  0
 18 25  1  0  0  0  0
 20 22  2  0  0  0  0
 21 24  1  0  0  0  0
 21 36  1  0  0  0  0
 21 37  1  0  0  0  0
 23 26  2  0  0  0  0
 23 27  1  0  0  0  0
 26 28  1  0  0  0  0
 27 29  2  0  0  0  0
 27 41  1  0  0  0  0
 28 30  2  0  0  0  0
 28 42  1  0  0  0  0
 29 30  1  0  0  0  0
 29 43  1  0  0  0  0
M  END
> <PUBCHEM_COMPOUND_CID>
44570554

> <PUBCHEM_CONFORMER_RMSD>
1

> <PUBCHEM_CONFORMER_DIVERSEORDER>
1
145
10
71
32
106
130
143
100
146
84
98
108
72
132
87
27
95
118
142
92
104
91
77
136
119
86
41
43
128
148
127
125
74
94
85
82
144
17
152
111
110
83
16
80
135
70
99
75
19
102
69
26
115
107
39
114
150
137
133
101
64
88
105
129
96
73
113
13
61
89
52
117
134
63
116
4
38
7
109
5
123
62
93
47
153
78
48
55
122
34
24
131
29
49
56
90
103
149
57
46
147
97
33
22
18
65
45
151
53
20
44
51
67
21
8
141
40
25
42
121
14
58
112
139
35
11
81
68
76
15
30
23
154
124
120
2
59
140
6
79
66
50
9
60
126
3
12
138
54
28
31
36
37

> <PUBCHEM_MMFF94_PARTIAL_CHARGES>
41
1 -0.08
10 -0.6
11 -0.99
12 -0.8
13 -0.14
14 0.44
15 0.33
16 0.1
17 -0.15
18 0.09
19 0.57
2 -0.19
20 0.19
21 0.06
22 0.19
23 0.1
24 0.57
25 0.63
26 0.19
27 -0.15
28 -0.15
29 -0.15
3 -0.19
30 0.08
34 0.15
35 0.37
38 0.4
39 0.36
4 -0.19
40 0.36
41 0.15
42 0.15
43 0.15
44 0.37
45 0.37
46 0.5
5 -0.57
6 -0.65
7 -0.57
8 -0.57
9 -0.73

> <PUBCHEM_EFFECTIVE_ROTOR_COUNT>
9

> <PUBCHEM_PHARMACOPHORE_FEATURES>
14
1 1 hydrophobe
1 10 cation
1 10 donor
1 11 cation
1 11 donor
1 12 donor
1 5 acceptor
1 6 acceptor
1 7 acceptor
1 8 acceptor
1 9 donor
3 6 8 25 anion
6 13 16 17 18 20 22 rings
6 23 26 27 28 29 30 rings

> <PUBCHEM_HEAVY_ATOM_COUNT>
30

> <PUBCHEM_ATOM_DEF_STEREO_COUNT>
1

> <PUBCHEM_ATOM_UDEF_STEREO_COUNT>
0

> <PUBCHEM_BOND_DEF_STEREO_COUNT>
0

> <PUBCHEM_BOND_UDEF_STEREO_COUNT>
0

> <PUBCHEM_ISOTOPIC_ATOM_COUNT>
0

> <PUBCHEM_COMPONENT_COUNT>
1

> <PUBCHEM_CACTVS_TAUTO_COUNT>
12

> <PUBCHEM_CONFORMER_ID>
02A817BA00000001

> <PUBCHEM_MMFF94_ENERGY>
80.6158

> <PUBCHEM_FEATURE_SELFOVERLAP>
71.104

> <PUBCHEM_SHAPE_FINGERPRINT>
10622 236 18271513290800096335
10670039 82 12901817350956268383
11135926 11 17243613998393129652
11497681 19 18411424991000388950
117089 54 18048887583008602635
11763715 3 18199771222545699712
11796584 16 17846224345217970789
13103583 49 17203332247315950091
13782708 43 18263085406225812570
13911987 19 16951150437912157222
14040221 299 17203335498326840198
14251751 18 17988920072003414490
14508225 48 17386019317017396188
15163728 17 12396577382362792371
15183329 4 13118004383760939090
15320294 125 18131636664794782911
15361156 5 17824562785446455124
15728490 51 18202279192121646378
17357779 13 17458348532949848028
1813 80 18261663852847826897
20028762 73 18270401573645703146
20775530 9 17843950675716275023
23402539 116 17822301119702578672
23536364 44 17168416082738531101
23559900 14 17774427378491280505
2838139 119 12468356855836094166
439807 62 18341894134596834923
46194498 28 16951412207410200207
463206 1 18270967967777260979
5081480 168 17022897995398626549
5326457 24 18413111675310671732
66674814 147 18335417976042854778

> <PUBCHEM_SHAPE_MULTIPOLES>
564.1
14.94
3.72
2.21
8.08
0.84
0.24
16.53
-0.08
0.61
2.48
-2.32
-0.54
-2.62

> <PUBCHEM_SHAPE_SELFOVERLAP>
1183.895

> <PUBCHEM_SHAPE_VOLUME>
321.3

> <PUBCHEM_COORDINATE_TYPE>
2
5
10

$$$$
