712193
  -OEChem-10052115153D

 32 34  0     0  0  0  0  0  0999 V2000
    4.0224   -1.3321    1.1646 O   0  0  0  0  0  0  0  0  0  0  0  0
    0.0903    0.8986   -0.4974 N   0  0  0  0  0  0  0  0  0  0  0  0
   -0.6049   -1.2933   -0.9965 N   0  0  0  0  0  0  0  0  0  0  0  0
   -2.8623   -2.0015   -0.5393 N   0  0  0  0  0  0  0  0  0  0  0  0
   -2.1938    0.2412   -0.0154 C   0  0  0  0  0  0  0  0  0  0  0  0
   -0.9317   -0.0834   -0.5048 C   0  0  0  0  0  0  0  0  0  0  0  0
    1.4867    0.8112   -0.3845 C   0  0  0  0  0  0  0  0  0  0  0  0
   -3.1550   -0.7819   -0.0548 C   0  0  0  0  0  0  0  0  0  0  0  0
   -2.5111    1.5126    0.4936 C   0  0  0  0  0  0  0  0  0  0  0  0
    2.0707   -0.2301    0.3432 C   0  0  0  0  0  0  0  0  0  0  0  0
    2.3036    1.7652   -0.9991 C   0  0  0  0  0  0  0  0  0  0  0  0
   -4.4301   -0.4946    0.4262 C   0  0  0  0  0  0  0  0  0  0  0  0
    3.4584   -0.3167    0.4552 C   0  0  0  0  0  0  0  0  0  0  0  0
   -3.7930    1.7720    0.9679 C   0  0  0  0  0  0  0  0  0  0  0  0
   -4.7534    0.7671    0.9340 C   0  0  0  0  0  0  0  0  0  0  0  0
    3.6912    1.6788   -0.8871 C   0  0  0  0  0  0  0  0  0  0  0  0
    4.2686    0.6378   -0.1601 C   0  0  0  0  0  0  0  0  0  0  0  0
   -1.6033   -2.1910   -0.9838 C   0  0  0  0  0  0  0  0  0  0  0  0
    5.4469   -1.3600    1.2382 C   0  0  0  0  0  0  0  0  0  0  0  0
   -0.2291    1.8027   -0.8345 H   0  0  0  0  0  0  0  0  0  0  0  0
   -1.7821    2.3167    0.5417 H   0  0  0  0  0  0  0  0  0  0  0  0
    1.4561   -0.9763    0.8411 H   0  0  0  0  0  0  0  0  0  0  0  0
    1.8678    2.5817   -1.5697 H   0  0  0  0  0  0  0  0  0  0  0  0
   -5.1999   -1.2638    0.4110 H   0  0  0  0  0  0  0  0  0  0  0  0
   -4.0417    2.7519    1.3637 H   0  0  0  0  0  0  0  0  0  0  0  0
   -5.7565    0.9611    1.3027 H   0  0  0  0  0  0  0  0  0  0  0  0
    4.3213    2.4224   -1.3667 H   0  0  0  0  0  0  0  0  0  0  0  0
    5.3523    0.6308   -0.1138 H   0  0  0  0  0  0  0  0  0  0  0  0
   -1.3737   -3.1756   -1.3725 H   0  0  0  0  0  0  0  0  0  0  0  0
    5.8984   -1.4978    0.2499 H   0  0  0  0  0  0  0  0  0  0  0  0
    5.7225   -2.2325    1.8397 H   0  0  0  0  0  0  0  0  0  0  0  0
    5.8405   -0.4782    1.7553 H   0  0  0  0  0  0  0  0  0  0  0  0
  1 13  1  0  0  0  0
  1 19  1  0  0  0  0
  2  6  1  0  0  0  0
  2  7  1  0  0  0  0
  2 20  1  0  0  0  0
  3  6  2  0  0  0  0
  3 18  1  0  0  0  0
  4  8  1  0  0  0  0
  4 18  2  0  0  0  0
  5  6  1  0  0  0  0
  5  8  1  0  0  0  0
  5  9  2  0  0  0  0
  7 10  2  0  0  0  0
  7 11  1  0  0  0  0
  8 12  2  0  0  0  0
  9 14  1  0  0  0  0
  9 21  1  0  0  0  0
 10 13  1  0  0  0  0
 10 22  1  0  0  0  0
 11 16  2  0  0  0  0
 11 23  1  0  0  0  0
 12 15  1  0  0  0  0
 12 24  1  0  0  0  0
 13 17  2  0  0  0  0
 14 15  2  0  0  0  0
 14 25  1  0  0  0  0
 15 26  1  0  0  0  0
 16 17  1  0  0  0  0
 16 27  1  0  0  0  0
 17 28  1  0  0  0  0
 18 29  1  0  0  0  0
 19 30  1  0  0  0  0
 19 31  1  0  0  0  0
 19 32  1  0  0  0  0
M  END
> <PUBCHEM_COMPOUND_CID>
712193

> <PUBCHEM_CONFORMER_RMSD>
0.6

> <PUBCHEM_CONFORMER_DIVERSEORDER>
1
27
33
13
28
6
15
34
35
10
26
36
8
23
31
30
2
29
5
20
32
18
24
25
9
19
22
17
21
12
16
4
11
3
14
7

> <PUBCHEM_MMFF94_PARTIAL_CHARGES>
28
1 -0.36
10 -0.15
11 -0.15
12 -0.15
13 0.08
14 -0.15
15 -0.15
16 -0.15
17 -0.15
18 0.47
19 0.28
2 -0.6
20 0.4
21 0.15
22 0.15
23 0.15
24 0.15
25 0.15
26 0.15
27 0.15
28 0.15
29 0.15
3 -0.62
4 -0.62
6 0.41
7 0.1
8 0.31
9 -0.15

> <PUBCHEM_EFFECTIVE_ROTOR_COUNT>
3

> <PUBCHEM_PHARMACOPHORE_FEATURES>
7
1 1 acceptor
1 2 donor
3 2 3 6 cation
3 3 4 18 cation
6 3 4 5 6 8 18 rings
6 5 8 9 12 14 15 rings
6 7 10 11 13 16 17 rings

> <PUBCHEM_HEAVY_ATOM_COUNT>
19

> <PUBCHEM_ATOM_DEF_STEREO_COUNT>
0

> <PUBCHEM_ATOM_UDEF_STEREO_COUNT>
0

> <PUBCHEM_BOND_DEF_STEREO_COUNT>
0

> <PUBCHEM_BOND_UDEF_STEREO_COUNT>
0

> <PUBCHEM_ISOTOPIC_ATOM_COUNT>
0

> <PUBCHEM_COMPONENT_COUNT>
1

> <PUBCHEM_CACTVS_TAUTO_COUNT>
3

> <PUBCHEM_CONFORMER_ID>
000ADE0100000001

> <PUBCHEM_MMFF94_ENERGY>
79.7451

> <PUBCHEM_FEATURE_SELFOVERLAP>
35.693

> <PUBCHEM_SHAPE_FINGERPRINT>
10062212 137 18412258467178005991
10616163 171 18268717280059418686
11552529 35 17825962686454281219
11578080 2 10374473154023512386
12107183 9 18047472223051923560
12236239 1 18335704961356357376
12251169 10 18410857655004227717
12403814 3 18260267460681180293
12553582 1 17895460433292689754
12633257 1 18412262822316801980
12670546 56 18341045310838982908
12788726 201 17981887750362251855
12839892 36 18273214201360881423
13167823 11 18335704961509156352
13533116 47 18186803620913715123
13583140 156 17749677376250652985
13675066 3 17775002371369137390
14420673 8 18196658397900930638
14739800 52 17987228018831219376
15042514 8 18128262388321523263
15238133 3 17917717859710638176
15256400 18 18127980710652498782
15375358 24 15985383391369007080
15375462 189 18334294301197459936
15669948 3 18129384967664069623
15806764 133 15140675899449175350
1813 80 17677057828696946286
19050596 39 18410011056926112976
19422 9 18335138725995450270
20281475 54 18335133241374954422
20645477 70 17167854288373729784
20739085 24 18040440979821383836
21033648 29 15985110699447676536
21065198 48 18336548303991563036
212916 134 17703505515202510443
2255824 54 18041563658713802948
23175994 123 15863792811733033669
23402539 116 18131063858091331541
23503953 91 18341325635175655200
23557571 272 16916799534186319079
23559900 14 17632030684255944836
2838139 119 13181368079545310675
312423 11 18261678172300524966
351380 3 17968372352207878786
474 4 17680435742860462004
495365 180 16343429401567875710
5104073 3 18411702127099827344
56633871 153 18194108621756499874
5706482 22 18202001006662077383
573450 72 18343017813276968115
58807428 26 18269567056945932835
5924683 9 17703212023039525559
7064713 232 18272649013301613808
7097593 13 18409163312054891438
7970288 3 17604980413385545626
9862522 239 18269267976824364517

> <PUBCHEM_SHAPE_MULTIPOLES>
370.2
10.85
2.09
1.12
4.44
0.3
-0.08
0.34
-4.13
-0.23
0.31
0.46
0.12
-2.34

> <PUBCHEM_SHAPE_SELFOVERLAP>
814.653

> <PUBCHEM_SHAPE_VOLUME>
197.1

> <PUBCHEM_COORDINATE_TYPE>
2
5
10

$$$$
