44352971
  -OEChem-10062121593D

 62 69  0     1  0  0  0  0  0999 V2000
    1.2135   -1.9836   -1.7134 O   0  0  0  0  0  0  0  0  0  0  0  0
    3.9950   -1.3035    0.6577 O   0  0  0  0  0  0  0  0  0  0  0  0
   -1.2637    4.3417    1.4312 O   0  0  0  0  0  0  0  0  0  0  0  0
   -4.7216    1.9329    0.1908 O   0  0  0  0  0  0  0  0  0  0  0  0
    1.6082    0.0729   -0.6232 N   0  0  0  0  0  0  0  0  0  0  0  0
   -0.7557   -1.7727   -0.5143 N   0  0  0  0  0  0  0  0  0  0  0  0
    1.4896   -1.7080    2.0163 N   0  0  0  0  0  0  0  0  0  0  0  0
   -3.1794    3.6895    0.2723 N   0  0  0  0  0  0  0  0  0  0  0  0
    2.2148   -1.1768   -1.0878 C   0  0  1  0  0  0  0  0  0  0  0  0
    2.9551   -2.0086   -0.0031 C   0  0  2  0  0  0  0  0  0  0  0  0
    0.3208   -2.6617   -0.8599 C   0  0  2  0  0  0  0  0  0  0  0  0
    2.0408   -2.6502    1.0450 C   0  0  2  0  0  0  0  0  0  0  0  0
    0.9487   -3.4211    0.3131 C   0  0  0  0  0  0  0  0  0  0  0  0
    0.2926    0.4579   -0.4463 C   0  0  0  0  0  0  0  0  0  0  0  0
   -0.8331   -0.4166   -0.4067 C   0  0  0  0  0  0  0  0  0  0  0  0
   -0.0402    1.8483   -0.2169 C   0  0  0  0  0  0  0  0  0  0  0  0
   -2.1202    0.2210   -0.1871 C   0  0  0  0  0  0  0  0  0  0  0  0
    2.2712    1.3009   -0.4029 C   0  0  0  0  0  0  0  0  0  0  0  0
    3.1617   -0.9239   -2.2868 C   0  0  0  0  0  0  0  0  0  0  0  0
   -1.2859    2.4470   -0.0373 C   0  0  0  0  0  0  0  0  0  0  0  0
   -2.0867   -2.1584   -0.3428 C   0  0  0  0  0  0  0  0  0  0  0  0
    1.3238    2.3542   -0.2167 C   0  0  0  0  0  0  0  0  0  0  0  0
   -2.3683    1.5818   -0.0427 C   0  0  0  0  0  0  0  0  0  0  0  0
   -2.9157   -1.0123   -0.1634 C   0  0  0  0  0  0  0  0  0  0  0  0
   -1.7441    3.8514    0.1956 C   0  0  2  0  0  0  0  0  0  0  0  0
    3.6496    1.6119   -0.3634 C   0  0  0  0  0  0  0  0  0  0  0  0
   -3.5864    2.3650    0.1536 C   0  0  0  0  0  0  0  0  0  0  0  0
    1.8060    3.6777   -0.0373 C   0  0  0  0  0  0  0  0  0  0  0  0
   -2.6341   -3.4590   -0.3401 C   0  0  0  0  0  0  0  0  0  0  0  0
   -4.3038   -1.2405    0.0192 C   0  0  0  0  0  0  0  0  0  0  0  0
    1.1052   -2.3943    3.2404 C   0  0  0  0  0  0  0  0  0  0  0  0
    5.0283   -2.1791    1.0902 C   0  0  0  0  0  0  0  0  0  0  0  0
    4.0818    2.9271   -0.1728 C   0  0  0  0  0  0  0  0  0  0  0  0
    3.1709    3.9535   -0.0187 C   0  0  0  0  0  0  0  0  0  0  0  0
   -4.0058   -3.6299   -0.1594 C   0  0  0  0  0  0  0  0  0  0  0  0
   -4.8328   -2.5343    0.0177 C   0  0  0  0  0  0  0  0  0  0  0  0
    3.4073   -2.8485   -0.5556 H   0  0  0  0  0  0  0  0  0  0  0  0
   -0.1356   -3.4197   -1.5082 H   0  0  0  0  0  0  0  0  0  0  0  0
    2.6398   -3.3849    1.5975 H   0  0  0  0  0  0  0  0  0  0  0  0
    1.4315   -4.3136   -0.1114 H   0  0  0  0  0  0  0  0  0  0  0  0
    0.1798   -3.8050    0.9917 H   0  0  0  0  0  0  0  0  0  0  0  0
    2.6997   -0.2512   -3.0199 H   0  0  0  0  0  0  0  0  0  0  0  0
    3.3665   -1.8613   -2.8204 H   0  0  0  0  0  0  0  0  0  0  0  0
    4.1306   -0.5113   -2.0034 H   0  0  0  0  0  0  0  0  0  0  0  0
    2.1974   -1.0100    2.2450 H   0  0  0  0  0  0  0  0  0  0  0  0
   -1.4898    4.5254   -0.6272 H   0  0  0  0  0  0  0  0  0  0  0  0
    4.4091    0.8471   -0.4705 H   0  0  0  0  0  0  0  0  0  0  0  0
    1.1086    4.5005    0.0962 H   0  0  0  0  0  0  0  0  0  0  0  0
   -2.0025   -4.3327   -0.4735 H   0  0  0  0  0  0  0  0  0  0  0  0
   -3.8241    4.4613    0.4095 H   0  0  0  0  0  0  0  0  0  0  0  0
   -4.9894   -0.4143    0.1684 H   0  0  0  0  0  0  0  0  0  0  0  0
    0.3097   -3.1267    3.0774 H   0  0  0  0  0  0  0  0  0  0  0  0
    0.7164   -1.6590    3.9525 H   0  0  0  0  0  0  0  0  0  0  0  0
    1.9587   -2.8892    3.7159 H   0  0  0  0  0  0  0  0  0  0  0  0
    5.8290   -1.5646    1.5125 H   0  0  0  0  0  0  0  0  0  0  0  0
    5.4463   -2.7425    0.2500 H   0  0  0  0  0  0  0  0  0  0  0  0
    4.6848   -2.8575    1.8746 H   0  0  0  0  0  0  0  0  0  0  0  0
    5.1470    3.1414   -0.1480 H   0  0  0  0  0  0  0  0  0  0  0  0
    3.5157    4.9731    0.1250 H   0  0  0  0  0  0  0  0  0  0  0  0
   -4.4265   -4.6316   -0.1567 H   0  0  0  0  0  0  0  0  0  0  0  0
   -5.9004   -2.6783    0.1599 H   0  0  0  0  0  0  0  0  0  0  0  0
   -1.7851    5.1350    1.6405 H   0  0  0  0  0  0  0  0  0  0  0  0
  1  9  1  0  0  0  0
  1 11  1  0  0  0  0
  2 10  1  0  0  0  0
  2 32  1  0  0  0  0
  3 25  1  0  0  0  0
  3 62  1  0  0  0  0
  4 27  2  0  0  0  0
  5  9  1  0  0  0  0
  5 14  1  0  0  0  0
  5 18  1  0  0  0  0
  6 11  1  0  0  0  0
  6 15  1  0  0  0  0
  6 21  1  0  0  0  0
  7 12  1  0  0  0  0
  7 31  1  0  0  0  0
  7 45  1  0  0  0  0
  8 25  1  0  0  0  0
  8 27  1  0  0  0  0
  8 50  1  0  0  0  0
  9 10  1  0  0  0  0
  9 19  1  0  0  0  0
 10 12  1  0  0  0  0
 10 37  1  0  0  0  0
 11 13  1  0  0  0  0
 11 38  1  0  0  0  0
 12 13  1  0  0  0  0
 12 39  1  0  0  0  0
 13 40  1  0  0  0  0
 13 41  1  0  0  0  0
 14 15  2  0  0  0  0
 14 16  1  0  0  0  0
 15 17  1  0  0  0  0
 16 20  2  0  0  0  0
 16 22  1  0  0  0  0
 17 23  2  0  0  0  0
 17 24  1  0  0  0  0
 18 22  1  0  0  0  0
 18 26  2  0  0  0  0
 19 42  1  0  0  0  0
 19 43  1  0  0  0  0
 19 44  1  0  0  0  0
 20 23  1  0  0  0  0
 20 25  1  0  0  0  0
 21 24  1  0  0  0  0
 21 29  2  0  0  0  0
 22 28  2  0  0  0  0
 23 27  1  0  0  0  0
 24 30  2  0  0  0  0
 25 46  1  0  0  0  0
 26 33  1  0  0  0  0
 26 47  1  0  0  0  0
 28 34  1  0  0  0  0
 28 48  1  0  0  0  0
 29 35  1  0  0  0  0
 29 49  1  0  0  0  0
 30 36  1  0  0  0  0
 30 51  1  0  0  0  0
 31 52  1  0  0  0  0
 31 53  1  0  0  0  0
 31 54  1  0  0  0  0
 32 55  1  0  0  0  0
 32 56  1  0  0  0  0
 32 57  1  0  0  0  0
 33 34  2  0  0  0  0
 33 58  1  0  0  0  0
 34 59  1  0  0  0  0
 35 36  2  0  0  0  0
 35 60  1  0  0  0  0
 36 61  1  0  0  0  0
M  END
> <PUBCHEM_COMPOUND_CID>
44352971

> <PUBCHEM_CONFORMER_RMSD>
0.8

> <PUBCHEM_CONFORMER_DIVERSEORDER>
1
2

> <PUBCHEM_MMFF94_PARTIAL_CHARGES>
43
1 -0.56
10 0.28
11 0.54
12 0.27
14 -0.05
15 -0.05
16 -0.01
17 -0.01
18 -0.15
2 -0.56
20 -0.14
21 -0.15
23 0.09
25 0.72
26 -0.15
27 0.54
28 -0.15
29 -0.15
3 -0.68
30 -0.15
31 0.27
32 0.28
33 -0.15
34 -0.15
35 -0.15
36 -0.15
4 -0.57
45 0.36
47 0.15
48 0.15
49 0.15
5 -0.04
50 0.37
51 0.15
58 0.15
59 0.15
6 -0.04
60 0.15
61 0.15
62 0.4
7 -0.9
8 -0.73
9 0.54

> <PUBCHEM_EFFECTIVE_ROTOR_COUNT>
3.2

> <PUBCHEM_PHARMACOPHORE_FEATURES>
18
1 1 acceptor
1 2 acceptor
1 3 acceptor
1 3 donor
1 4 acceptor
1 5 cation
1 6 cation
1 7 cation
1 7 donor
1 8 donor
5 5 14 16 18 22 rings
5 6 15 17 21 24 rings
5 8 20 23 25 27 rings
6 1 9 10 11 12 13 rings
6 14 15 16 17 20 23 rings
6 18 22 26 28 33 34 rings
6 21 24 29 30 35 36 rings
7 1 5 6 9 11 14 15 rings

> <PUBCHEM_HEAVY_ATOM_COUNT>
36

> <PUBCHEM_ATOM_DEF_STEREO_COUNT>
5

> <PUBCHEM_ATOM_UDEF_STEREO_COUNT>
0

> <PUBCHEM_BOND_DEF_STEREO_COUNT>
0

> <PUBCHEM_BOND_UDEF_STEREO_COUNT>
0

> <PUBCHEM_ISOTOPIC_ATOM_COUNT>
0

> <PUBCHEM_COMPONENT_COUNT>
1

> <PUBCHEM_CACTVS_TAUTO_COUNT>
2

> <PUBCHEM_CONFORMER_ID>
02A4C5CB00000001

> <PUBCHEM_MMFF94_ENERGY>
150.6128

> <PUBCHEM_FEATURE_SELFOVERLAP>
92.517

> <PUBCHEM_SHAPE_FINGERPRINT>
10006869 2 18269550697209644295
1100329 8 18338233747937512464
11007060 377 18121798364020682196
11578080 2 16701720723218944523
11607047 403 13244933474855867647
12107698 1 18409726287731117978
12553582 1 17763471616835537268
12788726 201 18337124452595957822
13140716 1 18411981360230397725
13583140 156 17387138563982752833
14725015 67 16679499902233039594
14787075 74 17829606510853526615
14790565 3 17762627591559091629
14955137 171 18119535327891698466
15484559 13 17548976659954519309
19319366 153 17534362053849685306
19591789 44 18124598849235761893
20600515 1 17982726373249567060
20642791 35 18339935887059788175
20691752 17 17676491670059809902
20764821 26 18411139130155206589
20905425 154 18341899644300637758
21197605 99 16465875801084572771
21421861 104 18335704974610414339
23558518 356 18334867138065493405
23559900 14 18201446831005296796
350125 39 18410858793276231708
392239 28 18193279812883597434
5265222 85 16466143411912256634
57527573 199 17831585644926907652
59755656 215 18194120947842218822
70251023 43 18197804221596433726

> <PUBCHEM_SHAPE_MULTIPOLES>
697.46
8.11
6.36
1.44
2.73
3.91
-0.76
-1.29
0.17
0.18
-1.65
-1.1
-1.41
-1.17

> <PUBCHEM_SHAPE_SELFOVERLAP>
1604.287

> <PUBCHEM_SHAPE_VOLUME>
356.3

> <PUBCHEM_COORDINATE_TYPE>
2
5
10

$$$$
