10384072
  -OEChem-10062122003D

 37 41  0     0  0  0  0  0  0999 V2000
   -3.0046   -0.6719   -2.5500 Cl  0  0  0  0  0  0  0  0  0  0  0  0
    1.7715    3.0137   -0.0394 O   0  0  0  0  0  0  0  0  0  0  0  0
   -2.7829    2.3725    0.0936 O   0  0  0  0  0  0  0  0  0  0  0  0
    6.2449    0.8289   -0.0800 O   0  0  0  0  0  0  0  0  0  0  0  0
    1.7202   -2.2526    0.1183 N   0  0  0  0  0  0  0  0  0  0  0  0
   -0.5578    3.0675    0.0168 N   0  0  0  0  0  0  0  0  0  0  0  0
    1.3171   -0.0542    0.0635 C   0  0  0  0  0  0  0  0  0  0  0  0
    0.4363    1.0341    0.0528 C   0  0  0  0  0  0  0  0  0  0  0  0
    0.7120   -1.3199    0.1159 C   0  0  0  0  0  0  0  0  0  0  0  0
    2.7365   -0.2648    0.0354 C   0  0  0  0  0  0  0  0  0  0  0  0
   -0.9446    0.8465    0.0928 C   0  0  0  0  0  0  0  0  0  0  0  0
   -1.5276   -0.3997    0.1442 C   0  0  0  0  0  0  0  0  0  0  0  0
    2.9506   -1.6454    0.0708 C   0  0  0  0  0  0  0  0  0  0  0  0
   -0.6865   -1.5156    0.1565 C   0  0  0  0  0  0  0  0  0  0  0  0
    0.6835    2.4744    0.0034 C   0  0  0  0  0  0  0  0  0  0  0  0
   -1.5856    2.1600    0.0700 C   0  0  0  0  0  0  0  0  0  0  0  0
   -2.9603   -0.5921    0.1856 C   0  0  0  0  0  0  0  0  0  0  0  0
    3.8718    0.5736   -0.0163 C   0  0  0  0  0  0  0  0  0  0  0  0
    4.2268   -2.2222    0.0574 C   0  0  0  0  0  0  0  0  0  0  0  0
    5.1550    0.0121   -0.0303 C   0  0  0  0  0  0  0  0  0  0  0  0
    5.3280   -1.3669    0.0061 C   0  0  0  0  0  0  0  0  0  0  0  0
   -3.7227   -0.7272   -0.9776 C   0  0  0  0  0  0  0  0  0  0  0  0
   -3.5872   -0.6439    1.4332 C   0  0  0  0  0  0  0  0  0  0  0  0
   -5.1026   -0.9130   -0.8936 C   0  0  0  0  0  0  0  0  0  0  0  0
   -4.9671   -0.8296    1.5171 C   0  0  0  0  0  0  0  0  0  0  0  0
   -5.7248   -0.9641    0.3538 C   0  0  0  0  0  0  0  0  0  0  0  0
   -1.0888   -2.5250    0.1960 H   0  0  0  0  0  0  0  0  0  0  0  0
    1.5754   -3.2522    0.1512 H   0  0  0  0  0  0  0  0  0  0  0  0
    3.7620    1.6518   -0.0451 H   0  0  0  0  0  0  0  0  0  0  0  0
   -0.6981    4.0713   -0.0096 H   0  0  0  0  0  0  0  0  0  0  0  0
    4.3593   -3.2988    0.0859 H   0  0  0  0  0  0  0  0  0  0  0  0
    6.3291   -1.7911   -0.0052 H   0  0  0  0  0  0  0  0  0  0  0  0
   -3.0144   -0.5408    2.3522 H   0  0  0  0  0  0  0  0  0  0  0  0
   -5.7082   -1.0196   -1.7900 H   0  0  0  0  0  0  0  0  0  0  0  0
   -5.4517   -0.8692    2.4882 H   0  0  0  0  0  0  0  0  0  0  0  0
   -6.7992   -1.1086    0.4195 H   0  0  0  0  0  0  0  0  0  0  0  0
    5.9463    1.7543   -0.1001 H   0  0  0  0  0  0  0  0  0  0  0  0
  1 22  1  0  0  0  0
  2 15  2  0  0  0  0
  3 16  2  0  0  0  0
  4 20  1  0  0  0  0
  4 37  1  0  0  0  0
  5  9  1  0  0  0  0
  5 13  1  0  0  0  0
  5 28  1  0  0  0  0
  6 15  1  0  0  0  0
  6 16  1  0  0  0  0
  6 30  1  0  0  0  0
  7  8  1  0  0  0  0
  7  9  2  0  0  0  0
  7 10  1  0  0  0  0
  8 11  2  0  0  0  0
  8 15  1  0  0  0  0
  9 14  1  0  0  0  0
 10 13  2  0  0  0  0
 10 18  1  0  0  0  0
 11 12  1  0  0  0  0
 11 16  1  0  0  0  0
 12 14  2  0  0  0  0
 12 17  1  0  0  0  0
 13 19  1  0  0  0  0
 14 27  1  0  0  0  0
 17 22  1  0  0  0  0
 17 23  2  0  0  0  0
 18 20  2  0  0  0  0
 18 29  1  0  0  0  0
 19 21  2  0  0  0  0
 19 31  1  0  0  0  0
 20 21  1  0  0  0  0
 21 32  1  0  0  0  0
 22 24  2  0  0  0  0
 23 25  1  0  0  0  0
 23 33  1  0  0  0  0
 24 26  1  0  0  0  0
 24 34  1  0  0  0  0
 25 26  2  0  0  0  0
 25 35  1  0  0  0  0
 26 36  1  0  0  0  0
M  END
> <PUBCHEM_COMPOUND_CID>
10384072

> <PUBCHEM_CONFORMER_RMSD>
0.6

> <PUBCHEM_CONFORMER_DIVERSEORDER>
2
1

> <PUBCHEM_MMFF94_PARTIAL_CHARGES>
33
1 -0.18
11 0.09
13 -0.15
14 -0.15
15 0.54
16 0.54
18 -0.15
19 -0.15
2 -0.57
20 0.08
21 -0.15
22 0.18
23 -0.15
24 -0.15
25 -0.15
26 -0.15
27 0.15
28 0.27
29 0.15
3 -0.57
30 0.37
31 0.15
32 0.15
33 0.15
34 0.15
35 0.15
36 0.15
37 0.45
4 -0.53
5 0.03
6 -0.49
8 0.09
9 -0.15

> <PUBCHEM_EFFECTIVE_ROTOR_COUNT>
1.2

> <PUBCHEM_PHARMACOPHORE_FEATURES>
11
1 2 acceptor
1 3 acceptor
1 4 donor
1 5 cation
1 5 donor
1 6 donor
5 5 7 9 10 13 rings
5 6 8 11 15 16 rings
6 10 13 18 19 20 21 rings
6 17 22 23 24 25 26 rings
6 7 8 9 11 12 14 rings

> <PUBCHEM_HEAVY_ATOM_COUNT>
26

> <PUBCHEM_ATOM_DEF_STEREO_COUNT>
0

> <PUBCHEM_ATOM_UDEF_STEREO_COUNT>
0

> <PUBCHEM_BOND_DEF_STEREO_COUNT>
0

> <PUBCHEM_BOND_UDEF_STEREO_COUNT>
0

> <PUBCHEM_ISOTOPIC_ATOM_COUNT>
0

> <PUBCHEM_COMPONENT_COUNT>
1

> <PUBCHEM_CACTVS_TAUTO_COUNT>
66

> <PUBCHEM_CONFORMER_ID>
009E72C800000002

> <PUBCHEM_MMFF94_ENERGY>
75.3025

> <PUBCHEM_FEATURE_SELFOVERLAP>
56.088

> <PUBCHEM_SHAPE_FINGERPRINT>
10411042 1 18410294687797110155
10670039 82 18261690177609531892
10906281 52 18265917845944774626
1100329 8 18266179620123016746
12166972 35 17748830704989198934
12236239 1 17775005721807858907
12422481 6 17702677535944930143
12516196 113 18411982476863898427
12553582 1 18412252943712958698
12788726 201 18334288725960346513
13140716 1 18122067769168009402
13544653 18 18408326570509931135
13583140 156 13470688148417323975
13690498 29 17982748372289089438
13782708 43 17458911556397813835
13862211 1 18410571790671557034
13911987 19 18261110802841860022
14347332 77 18126853699141060678
14787075 74 18333454252844147626
14790565 3 18411149051287430944
14840074 17 18131069354821406006
15196674 1 18338237059884669016
15849732 13 17917712414256258215
15927050 60 17692818507463350500
16087824 20 18194401088319645693
17349148 13 18113901529068588250
17357779 13 18335689542624179629
17492 89 18193556658482402450
1813 80 18200889399831454791
18222031 100 18341884212615310627
19319366 153 18113616815935203530
19489759 90 15357694180155942463
200 152 18410569574352140943
21029758 11 18410571794728816224
21033648 29 17822837775702384869
21236236 1 18339644443057775465
21267235 1 18410582756192516562
21641784 216 18042140803212638220
21792934 111 18339348691578059800
21792961 116 17968651623196518143
22182313 1 18263902458322161949
23175994 123 18333453149280087071
23352939 185 18272655649137025232
23402539 116 18341608187830785710
23559900 14 18263077867608479737
23569914 152 17114358370131539399
24771293 8 18129654339877127568
25147074 1 18340505416560702593
314194 84 18412263951703725323
329604 57 18260271845431001406
335352 9 18410573968963560477
34934 24 18193275196268670225
350125 39 18411422812613660881
46194498 28 17386004030648151589
5104073 3 18339075965977031290
5283173 99 17896310333831370533
550186 7 14835578933639323899
57527295 17 17970321816684115015
9709674 26 17837491856356127390
9849439 229 15334660374565701523

> <PUBCHEM_SHAPE_MULTIPOLES>
509.37
11.91
2.73
1.15
4.02
2.16
-0.51
-5.08
0.42
1.11
0.07
-1.95
-0.37
-0.12

> <PUBCHEM_SHAPE_SELFOVERLAP>
1173.913

> <PUBCHEM_SHAPE_VOLUME>
264.5

> <PUBCHEM_COORDINATE_TYPE>
2
5
10

$$$$
