49830674
  -OEChem-10052115183D

 61 65  0     0  0  0  0  0  0999 V2000
   11.2782    0.1392    0.1487 Cl  0  0  0  0  0  0  0  0  0  0  0  0
   -5.8808    1.1874    0.6956 O   0  0  0  0  0  0  0  0  0  0  0  0
    4.4358   -1.1809   -0.0864 O   0  0  0  0  0  0  0  0  0  0  0  0
   -4.2081    1.7780   -1.7742 N   0  0  0  0  0  0  0  0  0  0  0  0
   -6.9456   -2.0011   -0.2973 N   0  0  0  0  0  0  0  0  0  0  0  0
   -3.2036    1.9774   -2.6437 N   0  0  0  0  0  0  0  0  0  0  0  0
   -0.8370    1.8598   -2.3709 N   0  0  0  0  0  0  0  0  0  0  0  0
    3.9496    1.0391    0.4834 N   0  0  0  0  0  0  0  0  0  0  0  0
    6.1501    0.3670    0.2797 N   0  0  0  0  0  0  0  0  0  0  0  0
   -2.4098    1.4355   -0.5668 C   0  0  0  0  0  0  0  0  0  0  0  0
   -3.7990    1.4496   -0.5100 C   0  0  0  0  0  0  0  0  0  0  0  0
   -1.6768    1.1274    0.5913 C   0  0  0  0  0  0  0  0  0  0  0  0
   -4.5165    1.1696    0.6551 C   0  0  0  0  0  0  0  0  0  0  0  0
   -7.8804   -0.0780    1.0813 C   0  0  0  0  0  0  0  0  0  0  0  0
   -7.8185   -0.7716   -0.2812 C   0  0  0  0  0  0  0  0  0  0  0  0
   -6.5101    0.3095    1.6252 C   0  0  0  0  0  0  0  0  0  0  0  0
   -0.2340    1.1047    0.5637 C   0  0  0  0  0  0  0  0  0  0  0  0
   -2.3770    0.8433    1.7705 C   0  0  0  0  0  0  0  0  0  0  0  0
   -2.1111    1.7682   -1.9056 C   0  0  0  0  0  0  0  0  0  0  0  0
   -3.7726    0.8646    1.7997 C   0  0  0  0  0  0  0  0  0  0  0  0
    0.4392   -0.0771    0.2539 C   0  0  0  0  0  0  0  0  0  0  0  0
    0.4873    2.2647    0.8464 C   0  0  0  0  0  0  0  0  0  0  0  0
   -5.6693   -2.0577   -0.7933 C   0  0  0  0  0  0  0  0  0  0  0  0
   -7.3069   -3.2331    0.1821 C   0  0  0  0  0  0  0  0  0  0  0  0
    2.5548    1.0610    0.5101 C   0  0  0  0  0  0  0  0  0  0  0  0
    1.8335   -0.0989    0.2272 C   0  0  0  0  0  0  0  0  0  0  0  0
    1.8817    2.2428    0.8196 C   0  0  0  0  0  0  0  0  0  0  0  0
   -5.2088   -3.3451   -0.6271 C   0  0  0  0  0  0  0  0  0  0  0  0
   -6.2448   -4.0888   -0.0098 C   0  0  0  0  0  0  0  0  0  0  0  0
    4.8112   -0.0473    0.1951 C   0  0  0  0  0  0  0  0  0  0  0  0
    7.3160   -0.4057    0.0663 C   0  0  0  0  0  0  0  0  0  0  0  0
    8.5752    0.1800    0.1968 C   0  0  0  0  0  0  0  0  0  0  0  0
    7.2056   -1.7538   -0.2742 C   0  0  0  0  0  0  0  0  0  0  0  0
    9.7241   -0.5825   -0.0132 C   0  0  0  0  0  0  0  0  0  0  0  0
    8.3545   -2.5164   -0.4842 C   0  0  0  0  0  0  0  0  0  0  0  0
    9.6138   -1.9308   -0.3538 C   0  0  0  0  0  0  0  0  0  0  0  0
   -8.3774   -0.7322    1.8071 H   0  0  0  0  0  0  0  0  0  0  0  0
   -8.4977    0.8219    0.9741 H   0  0  0  0  0  0  0  0  0  0  0  0
   -8.8110   -1.1141   -0.5948 H   0  0  0  0  0  0  0  0  0  0  0  0
   -7.4220   -0.1104   -1.0597 H   0  0  0  0  0  0  0  0  0  0  0  0
   -5.9256   -0.6006    1.8058 H   0  0  0  0  0  0  0  0  0  0  0  0
   -6.6374    0.8375    2.5774 H   0  0  0  0  0  0  0  0  0  0  0  0
   -1.8380    0.6066    2.6859 H   0  0  0  0  0  0  0  0  0  0  0  0
   -4.2529    0.6620    2.7536 H   0  0  0  0  0  0  0  0  0  0  0  0
   -5.1580    1.8806   -2.1091 H   0  0  0  0  0  0  0  0  0  0  0  0
   -0.1093   -0.9893    0.0304 H   0  0  0  0  0  0  0  0  0  0  0  0
   -0.0219    3.1945    1.0889 H   0  0  0  0  0  0  0  0  0  0  0  0
   -5.1984   -1.1905   -1.2328 H   0  0  0  0  0  0  0  0  0  0  0  0
   -8.2827   -3.3985    0.6183 H   0  0  0  0  0  0  0  0  0  0  0  0
    2.2793   -1.0514   -0.0213 H   0  0  0  0  0  0  0  0  0  0  0  0
    2.4310    3.1542    1.0418 H   0  0  0  0  0  0  0  0  0  0  0  0
   -0.6509    2.1012   -3.3397 H   0  0  0  0  0  0  0  0  0  0  0  0
   -0.0050    1.7023   -1.8165 H   0  0  0  0  0  0  0  0  0  0  0  0
   -4.2342   -3.7080   -0.9219 H   0  0  0  0  0  0  0  0  0  0  0  0
   -6.2205   -5.1340    0.2644 H   0  0  0  0  0  0  0  0  0  0  0  0
    4.4046    1.9224    0.7003 H   0  0  0  0  0  0  0  0  0  0  0  0
    6.3118    1.3407    0.5243 H   0  0  0  0  0  0  0  0  0  0  0  0
    8.6601    1.2316    0.4626 H   0  0  0  0  0  0  0  0  0  0  0  0
    6.2697   -2.2801   -0.3944 H   0  0  0  0  0  0  0  0  0  0  0  0
    8.2700   -3.5663   -0.7494 H   0  0  0  0  0  0  0  0  0  0  0  0
   10.5003   -2.5373   -0.5203 H   0  0  0  0  0  0  0  0  0  0  0  0
  1 34  1  0  0  0  0
  2 13  1  0  0  0  0
  2 16  1  0  0  0  0
  3 30  2  0  0  0  0
  4  6  1  0  0  0  0
  4 11  1  0  0  0  0
  4 45  1  0  0  0  0
  5 15  1  0  0  0  0
  5 23  1  0  0  0  0
  5 24  1  0  0  0  0
  6 19  2  0  0  0  0
  7 19  1  0  0  0  0
  7 52  1  0  0  0  0
  7 53  1  0  0  0  0
  8 25  1  0  0  0  0
  8 30  1  0  0  0  0
  8 56  1  0  0  0  0
  9 30  1  0  0  0  0
  9 31  1  0  0  0  0
  9 57  1  0  0  0  0
 10 11  1  0  0  0  0
 10 12  2  0  0  0  0
 10 19  1  0  0  0  0
 11 13  2  0  0  0  0
 12 17  1  0  0  0  0
 12 18  1  0  0  0  0
 13 20  1  0  0  0  0
 14 15  1  0  0  0  0
 14 16  1  0  0  0  0
 14 37  1  0  0  0  0
 14 38  1  0  0  0  0
 15 39  1  0  0  0  0
 15 40  1  0  0  0  0
 16 41  1  0  0  0  0
 16 42  1  0  0  0  0
 17 21  2  0  0  0  0
 17 22  1  0  0  0  0
 18 20  2  0  0  0  0
 18 43  1  0  0  0  0
 20 44  1  0  0  0  0
 21 26  1  0  0  0  0
 21 46  1  0  0  0  0
 22 27  2  0  0  0  0
 22 47  1  0  0  0  0
 23 28  2  0  0  0  0
 23 48  1  0  0  0  0
 24 29  2  0  0  0  0
 24 49  1  0  0  0  0
 25 26  2  0  0  0  0
 25 27  1  0  0  0  0
 26 50  1  0  0  0  0
 27 51  1  0  0  0  0
 28 29  1  0  0  0  0
 28 54  1  0  0  0  0
 29 55  1  0  0  0  0
 31 32  2  0  0  0  0
 31 33  1  0  0  0  0
 32 34  1  0  0  0  0
 32 58  1  0  0  0  0
 33 35  2  0  0  0  0
 33 59  1  0  0  0  0
 34 36  2  0  0  0  0
 35 36  1  0  0  0  0
 35 60  1  0  0  0  0
 36 61  1  0  0  0  0
M  END
> <PUBCHEM_COMPOUND_CID>
49830674

> <PUBCHEM_CONFORMER_RMSD>
1

> <PUBCHEM_CONFORMER_DIVERSEORDER>
2
6
60
37
25
77
97
107
84
131
125
74
68
64
105
115
118
138
127
124
48
79
93
99
136
132
65
69
133
29
130
53
126
95
33
144
112
148
1
129
88
73
38
70
89
111
50
141
75
86
52
62
59
66
45
140
76
39
36
146
35
23
109
117
134
128
61
12
71
122
26
49
82
110
56
27
147
96
67
101
54
119
123
31
113
143
17
30
104
72
87
100
80
63
47
114
142
145
90
108
92
85
81
7
102
55
19
103
15
137
57
116
24
14
43
42
98
139
120
46
20
3
11
83
21
78
32
91
5
4
121
44
16
94
22
28
135
10
34
13
9
58
51
41
8
40
106
18

> <PUBCHEM_MMFF94_PARTIAL_CHARGES>
51
1 -0.18
11 -0.15
13 0.08
15 0.26
16 0.28
18 -0.15
19 0.37
2 -0.36
20 -0.15
21 -0.15
22 -0.15
23 -0.3
24 -0.3
25 0.12
26 -0.15
27 -0.15
28 -0.15
29 -0.15
3 -0.57
30 0.69
31 0.12
32 -0.15
33 -0.15
34 0.18
35 -0.15
36 -0.15
4 0.3
43 0.15
44 0.15
45 0.27
46 0.15
47 0.15
48 0.15
49 0.15
5 0.05
50 0.15
51 0.15
52 0.4
53 0.4
54 0.15
55 0.15
56 0.37
57 0.37
58 0.15
59 0.15
6 -0.71
60 0.15
61 0.15
7 -0.88
8 -0.55
9 -0.55

> <PUBCHEM_EFFECTIVE_ROTOR_COUNT>
10

> <PUBCHEM_PHARMACOPHORE_FEATURES>
13
1 2 acceptor
1 3 acceptor
1 4 donor
1 5 cation
1 7 donor
1 8 donor
1 9 donor
3 6 7 19 cation
5 4 6 10 11 19 rings
5 5 23 24 28 29 rings
6 10 11 12 13 18 20 rings
6 17 21 22 25 26 27 rings
6 31 32 33 34 35 36 rings

> <PUBCHEM_HEAVY_ATOM_COUNT>
36

> <PUBCHEM_ATOM_DEF_STEREO_COUNT>
0

> <PUBCHEM_ATOM_UDEF_STEREO_COUNT>
0

> <PUBCHEM_BOND_DEF_STEREO_COUNT>
0

> <PUBCHEM_BOND_UDEF_STEREO_COUNT>
0

> <PUBCHEM_ISOTOPIC_ATOM_COUNT>
0

> <PUBCHEM_COMPONENT_COUNT>
1

> <PUBCHEM_CACTVS_TAUTO_COUNT>
124

> <PUBCHEM_CONFORMER_ID>
02F85B1200000002

> <PUBCHEM_MMFF94_ENERGY>
98.6787

> <PUBCHEM_FEATURE_SELFOVERLAP>
66.113

> <PUBCHEM_SHAPE_FINGERPRINT>
10076449 9 18333734602613539568
10299344 5 16845286108953858944
11061554 47 11458426869283197190
11135609 99 18201720699568246567
11477941 20 16805600352791981253
11621639 254 14056988396646296143
12082328 90 18131069303730177752
12104220 1 17917714578698216665
13383668 251 18339912831707440296
13782708 43 18334006220334208113
13974486 27 17267242215195586687
14118638 360 16443340928294553632
14178184 131 17846492690306390631
15461852 350 18113898256498532038
17324776 126 16911696834399879743
18603816 31 18409735075787931659
18608769 82 18413388730929967854
18643901 69 18260830401828070759
19246450 95 16702027457241330945
2026 5 18188772739414207426
21362267 20 18343301470636499710
21867018 265 18040995163235124214
22899556 56 17203067248746482427
23729398 52 18128532868335567680
4339292 15 18113333133001657954
437795 83 12540687107499373343
44280117 145 18334013895361599437
45377200 153 18411138056672508546
4625314 4 18409166627743718365
504579 68 15719395040499555792
54039377 194 18343300396350181102
54583773 228 18338802329716698300
58260988 114 18343025527882315859
6201320 82 11530753748241938702
6691757 9 14476954589046691877
9962374 69 18408042936225324808
999808 66 18130783473292587119

> <PUBCHEM_SHAPE_MULTIPOLES>
701.11
33.89
3.38
1.52
75.87
3.5
0.75
26
-1.82
-6.19
0.66
-2.71
-1.16
0.75

> <PUBCHEM_SHAPE_SELFOVERLAP>
1534.053

> <PUBCHEM_SHAPE_VOLUME>
380.9

> <PUBCHEM_COORDINATE_TYPE>
2
5
10

$$$$
