49830330
  -OEChem-10052115183D

 42 45  0     1  0  0  0  0  0999 V2000
   -0.0616   -5.0805    0.3919 Cl  0  0  0  0  0  0  0  0  0  0  0  0
    3.7240    2.0455    2.3892 O   0  0  0  0  0  0  0  0  0  0  0  0
    2.3867   -0.7779   -0.6699 N   0  0  0  0  0  0  0  0  0  0  0  0
    0.0670   -0.6928   -0.2945 N   0  0  0  0  0  0  0  0  0  0  0  0
   -1.1254   -2.7248    0.2124 N   0  0  0  0  0  0  0  0  0  0  0  0
   -4.4381   -0.2837    0.3917 N   0  0  0  0  0  0  0  0  0  0  0  0
   -4.5390    2.0979    0.0429 N   0  0  0  0  0  0  0  0  0  0  0  0
    2.4862    0.6502   -0.9030 C   0  0  1  0  0  0  0  0  0  0  0  0
    2.4675    1.4026    0.4301 C   0  0  0  0  0  0  0  0  0  0  0  0
    3.7517    0.9654   -1.7075 C   0  0  0  0  0  0  0  0  0  0  0  0
    3.7531    1.2079    1.2378 C   0  0  1  0  0  0  0  0  0  0  0  0
    5.0336    0.7784   -0.8949 C   0  0  0  0  0  0  0  0  0  0  0  0
    4.9885    1.5593    0.4132 C   0  0  0  0  0  0  0  0  0  0  0  0
    1.1999   -1.4212   -0.3734 C   0  0  0  0  0  0  0  0  0  0  0  0
    1.2494   -2.7859   -0.1749 C   0  0  0  0  0  0  0  0  0  0  0  0
   -1.0426   -1.3980   -0.0025 C   0  0  0  0  0  0  0  0  0  0  0  0
   -2.2656   -0.6572    0.0896 C   0  0  0  0  0  0  0  0  0  0  0  0
   -2.5067    0.7314   -0.0839 C   0  0  0  0  0  0  0  0  0  0  0  0
    0.0441   -3.3908    0.1181 C   0  0  0  0  0  0  0  0  0  0  0  0
   -3.8703    0.9312    0.1113 C   0  0  0  0  0  0  0  0  0  0  0  0
   -3.4721   -1.2561    0.3817 C   0  0  0  0  0  0  0  0  0  0  0  0
   -1.7252    1.8585   -0.3858 C   0  0  0  0  0  0  0  0  0  0  0  0
   -2.3674    3.0926   -0.4688 C   0  0  0  0  0  0  0  0  0  0  0  0
   -3.7376    3.1482   -0.2509 C   0  0  0  0  0  0  0  0  0  0  0  0
    1.6326    0.9764   -1.5109 H   0  0  0  0  0  0  0  0  0  0  0  0
    2.3333    2.4752    0.2336 H   0  0  0  0  0  0  0  0  0  0  0  0
    1.6062    1.1158    1.0454 H   0  0  0  0  0  0  0  0  0  0  0  0
    3.7981    0.3379   -2.6059 H   0  0  0  0  0  0  0  0  0  0  0  0
    3.7035    2.0069   -2.0506 H   0  0  0  0  0  0  0  0  0  0  0  0
    3.8281    0.1711    1.5861 H   0  0  0  0  0  0  0  0  0  0  0  0
    5.8919    1.1123   -1.4894 H   0  0  0  0  0  0  0  0  0  0  0  0
    5.1962   -0.2848   -0.6836 H   0  0  0  0  0  0  0  0  0  0  0  0
    4.9999    2.6371    0.2044 H   0  0  0  0  0  0  0  0  0  0  0  0
    5.8940    1.3629    0.9998 H   0  0  0  0  0  0  0  0  0  0  0  0
    3.2410   -1.2755   -0.4417 H   0  0  0  0  0  0  0  0  0  0  0  0
    2.9360    1.8055    2.9060 H   0  0  0  0  0  0  0  0  0  0  0  0
    2.1719   -3.3507   -0.2442 H   0  0  0  0  0  0  0  0  0  0  0  0
   -3.7455   -2.2831    0.5844 H   0  0  0  0  0  0  0  0  0  0  0  0
   -5.4193   -0.4382    0.5777 H   0  0  0  0  0  0  0  0  0  0  0  0
   -0.6557    1.7970   -0.5528 H   0  0  0  0  0  0  0  0  0  0  0  0
   -1.8065    3.9919   -0.6993 H   0  0  0  0  0  0  0  0  0  0  0  0
   -4.2545    4.1023   -0.3117 H   0  0  0  0  0  0  0  0  0  0  0  0
  1 19  1  0  0  0  0
  2 11  1  0  0  0  0
  2 36  1  0  0  0  0
  3  8  1  0  0  0  0
  3 14  1  0  0  0  0
  3 35  1  0  0  0  0
  4 14  1  0  0  0  0
  4 16  2  0  0  0  0
  5 16  1  0  0  0  0
  5 19  2  0  0  0  0
  6 20  1  0  0  0  0
  6 21  1  0  0  0  0
  6 39  1  0  0  0  0
  7 20  1  0  0  0  0
  7 24  2  0  0  0  0
  8  9  1  0  0  0  0
  8 10  1  0  0  0  0
  8 25  1  0  0  0  0
  9 11  1  0  0  0  0
  9 26  1  0  0  0  0
  9 27  1  0  0  0  0
 10 12  1  0  0  0  0
 10 28  1  0  0  0  0
 10 29  1  0  0  0  0
 11 13  1  0  0  0  0
 11 30  1  0  0  0  0
 12 13  1  0  0  0  0
 12 31  1  0  0  0  0
 12 32  1  0  0  0  0
 13 33  1  0  0  0  0
 13 34  1  0  0  0  0
 14 15  2  0  0  0  0
 15 19  1  0  0  0  0
 15 37  1  0  0  0  0
 16 17  1  0  0  0  0
 17 18  1  0  0  0  0
 17 21  2  0  0  0  0
 18 20  2  0  0  0  0
 18 22  1  0  0  0  0
 21 38  1  0  0  0  0
 22 23  2  0  0  0  0
 22 40  1  0  0  0  0
 23 24  1  0  0  0  0
 23 41  1  0  0  0  0
 24 42  1  0  0  0  0
M  END
> <PUBCHEM_COMPOUND_CID>
49830330

> <PUBCHEM_CONFORMER_RMSD>
0.8

> <PUBCHEM_CONFORMER_DIVERSEORDER>
1
143
50
139
99
13
111
155
57
147
141
18
15
149
33
37
3
109
114
67
24
131
53
31
138
126
151
92
27
150
23
142
8
120
112
9
134
59
165
87
101
152
77
135
17
93
62
88
146
46
86
125
49
28
108
121
36
128
7
70
132
159
25
140
54
51
116
40
81
97
74
153
137
148
58
136
154
124
30
94
66
76
133
157
145
130
61
41
103
144
100
39
63
122
164
64
34
55
113
72
127
65
60
90
19
79
42
91
163
95
162
43
104
161
4
118
73
85
129
110
26
96
32
156
52
2
78
80
117
6
160
115
21
119
10
45
105
106
89
5
158
20
38
123
102
69
11
98
84
29
82
83
68
14
107
22
71
16
44
12
48
47
75
56
35

> <PUBCHEM_MMFF94_PARTIAL_CHARGES>
27
1 -0.18
11 0.28
14 0.41
15 -0.15
16 0.67
17 -0.05
19 0.49
2 -0.68
20 0.11
21 -0.3
22 -0.15
23 -0.15
24 0.16
3 -0.87
35 0.4
36 0.4
37 0.15
38 0.15
39 0.27
4 -0.62
40 0.15
41 0.15
42 0.15
5 -0.62
6 0.03
7 -0.57
8 0.37

> <PUBCHEM_EFFECTIVE_ROTOR_COUNT>
4.2

> <PUBCHEM_PHARMACOPHORE_FEATURES>
13
1 2 acceptor
1 2 donor
1 3 cation
1 3 donor
1 5 acceptor
1 6 cation
1 6 donor
1 7 acceptor
3 4 5 16 cation
5 6 17 18 20 21 rings
6 4 5 14 15 16 19 rings
6 7 18 20 22 23 24 rings
6 8 9 10 11 12 13 rings

> <PUBCHEM_HEAVY_ATOM_COUNT>
24

> <PUBCHEM_ATOM_DEF_STEREO_COUNT>
0

> <PUBCHEM_ATOM_UDEF_STEREO_COUNT>
2

> <PUBCHEM_BOND_DEF_STEREO_COUNT>
0

> <PUBCHEM_BOND_UDEF_STEREO_COUNT>
0

> <PUBCHEM_ISOTOPIC_ATOM_COUNT>
0

> <PUBCHEM_COMPONENT_COUNT>
1

> <PUBCHEM_CACTVS_TAUTO_COUNT>
9

> <PUBCHEM_CONFORMER_ID>
02F859BA00000001

> <PUBCHEM_MMFF94_ENERGY>
51.7578

> <PUBCHEM_FEATURE_SELFOVERLAP>
66.085

> <PUBCHEM_SHAPE_FINGERPRINT>
10319926 262 18125989698097607888
10411042 1 17473271349628413822
10498660 4 18409170982814189501
10670039 82 18261685834764937148
1100329 8 17760652864581104967
11370993 70 18410571764711758252
11582403 64 17702926128810193710
11595378 159 17894904144342959792
11725454 13 17846774156998322214
12107183 9 18334283259564282850
12173636 292 18410011056915973055
12403259 415 18273217525612645480
12596602 18 16878510162625097288
12769317 202 18200308819169177752
12788726 201 17537453090442080130
13140716 1 18264205799061090467
13402501 40 18201438133586064176
138480 1 17616253576564594279
13878862 14 17684919212398239413
13965767 371 17969213435110115732
14114211 68 18048912643524641405
14251757 17 17918280844092239440
14251757 5 18266475380588423324
14347329 18 18336280006634334972
14466204 15 18048592621591183786
14468879 13 18188219701902063265
14508225 48 17621316175018671471
15042514 8 18047479103616320771
20101258 96 17326354605987710098
20775438 99 17467306130296857341
21033648 29 18341890818496857032
21279426 13 18270972224548287414
212916 134 18339633525424696578
21524375 3 18342464728916673734
22149856 69 18191331312089335369
22393880 68 18269844128979382460
23366157 5 17825395076535033643
23559900 14 17979066086077067363
3091708 16 9121475320827043506
3187 122 17260442186531546658
3298306 158 18343297033522513856
350125 39 18264213525886734118
3524813 1 18273214239498446976
508706 21 18270394031070324652
5104073 3 18190471463345652281
5265222 85 18266193901906965950
57124632 79 18192703445457728384
6442390 28 18410016533035743878
7064713 232 18333735701793085764
7364860 26 18050006597485977999
7808743 9 18192999433799111724
79837 15 18334582385781160722
84936 182 18197499528120719266
9981440 41 18334017181280703755

> <PUBCHEM_SHAPE_MULTIPOLES>
465
9.51
4.95
1.13
3.49
5.83
-0.32
-9.18
-0.55
-2.19
-0.48
1.72
-0.66
1.07

> <PUBCHEM_SHAPE_SELFOVERLAP>
1012.114

> <PUBCHEM_SHAPE_VOLUME>
253.5

> <PUBCHEM_COORDINATE_TYPE>
2
5
10

$$$$
