16048554
  -OEChem-10052120443D

 57 60  0     1  0  0  0  0  0999 V2000
   -3.0154   -2.0375   -3.5857 O   0  0  0  0  0  0  0  0  0  0  0  0
    6.9139   -0.6451    1.7983 O   0  5  0  0  0  0  0  0  0  0  0  0
   -2.6641   -1.2072    0.5231 N   0  0  0  0  0  0  0  0  0  0  0  0
   -2.2005    1.0510    0.4565 N   0  0  0  0  0  0  0  0  0  0  0  0
    0.0790    1.7741    0.1744 N   0  0  0  0  0  0  0  0  0  0  0  0
    1.9016    0.2788   -0.0431 N   0  0  0  0  0  0  0  0  0  0  0  0
    0.7988    2.9282    0.0814 N   0  0  0  0  0  0  0  0  0  0  0  0
    6.1819   -0.6950    0.7572 N   0  3  0  0  0  0  0  0  0  0  0  0
   -4.0004   -1.1218   -0.0855 C   0  0  2  0  0  0  0  0  0  0  0  0
   -5.0651   -1.6479    0.8866 C   0  0  0  0  0  0  0  0  0  0  0  0
   -4.7101   -3.0097    1.4772 C   0  0  0  0  0  0  0  0  0  0  0  0
   -2.2735   -2.4896    1.1127 C   0  0  0  0  0  0  0  0  0  0  0  0
   -3.3235   -2.9675    2.1092 C   0  0  0  0  0  0  0  0  0  0  0  0
   -4.0208   -1.8462   -1.4317 C   0  0  0  0  0  0  0  0  0  0  0  0
   -1.7757   -0.1898    0.4097 C   0  0  0  0  0  0  0  0  0  0  0  0
   -2.9281   -1.3370   -2.3526 C   0  0  0  0  0  0  0  0  0  0  0  0
   -0.3257   -0.5464    0.2335 C   0  0  0  0  0  0  0  0  0  0  0  0
    0.5578    0.4578    0.1211 C   0  0  0  0  0  0  0  0  0  0  0  0
   -1.2787    2.0440    0.3394 C   0  0  0  0  0  0  0  0  0  0  0  0
   -1.4079    3.4143    0.3490 C   0  0  0  0  0  0  0  0  0  0  0  0
   -2.6456    4.1994    0.4967 C   0  0  0  0  0  0  0  0  0  0  0  0
   -0.1054    3.8997    0.1877 C   0  0  0  0  0  0  0  0  0  0  0  0
    2.5242   -1.0169   -0.1146 C   0  0  0  0  0  0  0  0  0  0  0  0
   -3.3263    4.5168   -0.8388 C   0  0  0  0  0  0  0  0  0  0  0  0
    4.0141   -0.8784   -0.2612 C   0  0  0  0  0  0  0  0  0  0  0  0
    4.8108   -0.8231    0.8693 C   0  0  0  0  0  0  0  0  0  0  0  0
    4.5795   -0.8059   -1.5220 C   0  0  0  0  0  0  0  0  0  0  0  0
    5.9584   -0.6768   -1.6463 C   0  0  0  0  0  0  0  0  0  0  0  0
    6.7467   -0.6224   -0.5015 C   0  0  0  0  0  0  0  0  0  0  0  0
   -4.2602   -0.0735   -0.2832 H   0  0  0  0  0  0  0  0  0  0  0  0
   -5.1711   -0.9310    1.7117 H   0  0  0  0  0  0  0  0  0  0  0  0
   -6.0414   -1.7013    0.3909 H   0  0  0  0  0  0  0  0  0  0  0  0
   -4.7436   -3.7819    0.7005 H   0  0  0  0  0  0  0  0  0  0  0  0
   -5.4524   -3.2879    2.2339 H   0  0  0  0  0  0  0  0  0  0  0  0
   -1.3339   -2.4172    1.6720 H   0  0  0  0  0  0  0  0  0  0  0  0
   -2.1264   -3.2343    0.3220 H   0  0  0  0  0  0  0  0  0  0  0  0
   -3.3419   -2.2919    2.9738 H   0  0  0  0  0  0  0  0  0  0  0  0
   -3.0556   -3.9617    2.4837 H   0  0  0  0  0  0  0  0  0  0  0  0
   -4.9980   -1.7155   -1.9138 H   0  0  0  0  0  0  0  0  0  0  0  0
   -3.9006   -2.9293   -1.3088 H   0  0  0  0  0  0  0  0  0  0  0  0
   -1.9295   -1.5317   -1.9573 H   0  0  0  0  0  0  0  0  0  0  0  0
   -3.0403   -0.2664   -2.5501 H   0  0  0  0  0  0  0  0  0  0  0  0
   -0.0367   -1.5864    0.1614 H   0  0  0  0  0  0  0  0  0  0  0  0
   -2.3133   -1.6903   -4.1622 H   0  0  0  0  0  0  0  0  0  0  0  0
    2.4738    1.1140   -0.1226 H   0  0  0  0  0  0  0  0  0  0  0  0
   -3.3566    3.6628    1.1367 H   0  0  0  0  0  0  0  0  0  0  0  0
   -2.4245    5.1431    1.0106 H   0  0  0  0  0  0  0  0  0  0  0  0
    0.2305    4.9259    0.1416 H   0  0  0  0  0  0  0  0  0  0  0  0
    2.3086   -1.6027    0.7887 H   0  0  0  0  0  0  0  0  0  0  0  0
    2.1306   -1.5901   -0.9643 H   0  0  0  0  0  0  0  0  0  0  0  0
   -3.6031    3.5976   -1.3662 H   0  0  0  0  0  0  0  0  0  0  0  0
   -4.2352    5.1026   -0.6703 H   0  0  0  0  0  0  0  0  0  0  0  0
   -2.6620    5.0934   -1.4910 H   0  0  0  0  0  0  0  0  0  0  0  0
    4.4441   -0.8717    1.8845 H   0  0  0  0  0  0  0  0  0  0  0  0
    3.9639   -0.8461   -2.4162 H   0  0  0  0  0  0  0  0  0  0  0  0
    6.4173   -0.6180   -2.6281 H   0  0  0  0  0  0  0  0  0  0  0  0
    7.8223   -0.5230   -0.5145 H   0  0  0  0  0  0  0  0  0  0  0  0
  1 16  1  0  0  0  0
  1 44  1  0  0  0  0
  2  8  1  0  0  0  0
  3  9  1  0  0  0  0
  3 12  1  0  0  0  0
  3 15  1  0  0  0  0
  4 15  2  0  0  0  0
  4 19  1  0  0  0  0
  5  7  1  0  0  0  0
  5 18  1  0  0  0  0
  5 19  1  0  0  0  0
  6 18  1  0  0  0  0
  6 23  1  0  0  0  0
  6 45  1  0  0  0  0
  7 22  2  0  0  0  0
  8 26  1  0  0  0  0
  8 29  2  0  0  0  0
  9 10  1  0  0  0  0
  9 14  1  0  0  0  0
  9 30  1  0  0  0  0
 10 11  1  0  0  0  0
 10 31  1  0  0  0  0
 10 32  1  0  0  0  0
 11 13  1  0  0  0  0
 11 33  1  0  0  0  0
 11 34  1  0  0  0  0
 12 13  1  0  0  0  0
 12 35  1  0  0  0  0
 12 36  1  0  0  0  0
 13 37  1  0  0  0  0
 13 38  1  0  0  0  0
 14 16  1  0  0  0  0
 14 39  1  0  0  0  0
 14 40  1  0  0  0  0
 15 17  1  0  0  0  0
 16 41  1  0  0  0  0
 16 42  1  0  0  0  0
 17 18  2  0  0  0  0
 17 43  1  0  0  0  0
 19 20  2  0  0  0  0
 20 21  1  0  0  0  0
 20 22  1  0  0  0  0
 21 24  1  0  0  0  0
 21 46  1  0  0  0  0
 21 47  1  0  0  0  0
 22 48  1  0  0  0  0
 23 25  1  0  0  0  0
 23 49  1  0  0  0  0
 23 50  1  0  0  0  0
 24 51  1  0  0  0  0
 24 52  1  0  0  0  0
 24 53  1  0  0  0  0
 25 26  2  0  0  0  0
 25 27  1  0  0  0  0
 26 54  1  0  0  0  0
 27 28  2  0  0  0  0
 27 55  1  0  0  0  0
 28 29  1  0  0  0  0
 28 56  1  0  0  0  0
 29 57  1  0  0  0  0
M  CHG  2   2  -1   8   1
M  END
> <PUBCHEM_COMPOUND_CID>
16048554

> <PUBCHEM_CONFORMER_RMSD>
1

> <PUBCHEM_CONFORMER_DIVERSEORDER>
1
83
157
24
180
44
115
143
127
104
187
146
158
169
102
108
91
33
46
101
36
18
92
184
174
75
76
142
171
116
105
124
150
110
152
100
166
117
183
52
81
103
12
106
136
89
111
188
132
186
133
55
38
31
113
167
135
78
6
65
107
175
181
121
59
134
61
109
170
94
71
69
144
88
164
16
23
57
93
162
19
43
95
182
178
53
82
99
84
172
13
64
74
137
48
128
45
160
42
119
17
129
86
14
98
123
68
96
79
70
21
139
27
67
66
153
154
120
90
37
34
179
10
156
62
189
138
56
25
60
32
97
131
20
77
149
147
185
15
28
54
50
35
118
9
26
8
40
7
5
177
29
122
87
159
39
125
155
141
190
51
191
145
58
85
140
176
163
130
148
161
73
4
11
126
47
114
112
165
22
173
3
80
72
151
63
2
41
30
168
49

> <PUBCHEM_MMFF94_PARTIAL_CHARGES>
32
1 -0.68
12 0.37
15 0.49
16 0.28
17 -0.14
18 0.07
19 -0.03
2 -0.75
20 -0.18
21 0.18
22 0.14
23 0.51
25 -0.14
26 -0.06
27 -0.15
28 -0.15
29 -0.06
3 -0.79
4 -0.58
43 0.15
44 0.4
45 0.4
48 0.15
5 0.6
54 0.15
55 0.15
56 0.15
57 0.15
6 -0.87
7 -0.71
8 0.57
9 0.37

> <PUBCHEM_EFFECTIVE_ROTOR_COUNT>
8.2

> <PUBCHEM_PHARMACOPHORE_FEATURES>
12
1 1 acceptor
1 1 donor
1 2 anion
1 24 hydrophobe
1 6 cation
1 6 donor
1 7 acceptor
3 3 4 15 cation
5 5 7 19 20 22 rings
6 3 9 10 11 12 13 rings
6 4 5 15 17 18 19 rings
6 8 25 26 27 28 29 rings

> <PUBCHEM_HEAVY_ATOM_COUNT>
29

> <PUBCHEM_ATOM_DEF_STEREO_COUNT>
0

> <PUBCHEM_ATOM_UDEF_STEREO_COUNT>
1

> <PUBCHEM_BOND_DEF_STEREO_COUNT>
0

> <PUBCHEM_BOND_UDEF_STEREO_COUNT>
0

> <PUBCHEM_ISOTOPIC_ATOM_COUNT>
0

> <PUBCHEM_COMPONENT_COUNT>
1

> <PUBCHEM_CACTVS_TAUTO_COUNT>
5

> <PUBCHEM_CONFORMER_ID>
00F4E1AA00000001

> <PUBCHEM_MMFF94_ENERGY>
65.1799

> <PUBCHEM_FEATURE_SELFOVERLAP>
61.021

> <PUBCHEM_SHAPE_FINGERPRINT>
10319926 262 18196076769798871290
10411042 1 18337400460232236251
11056379 131 18265629705669287968
11578080 2 17274238670028466641
12166972 35 17603873351088490454
12422481 6 17417544578226454462
12516196 113 18338523039955590898
12553582 1 18412261769897392066
12788726 201 18334854983281594547
13583140 156 14620798163089840642
13673619 4 17677623136656446043
13782708 43 17917716752358408934
14114206 34 18187910782178893151
14674994 50 17775275046343409525
14790565 3 17617101300188345953
14840074 17 17917719027778361870
15131766 46 16228905455951384956
16087824 20 18265901260121871601
17686467 74 18335419102537024464
1813 80 18130242547847135055
19427546 20 18262249832548109284
20101258 96 18341336660088016481
21304303 282 17972019363082851517
2132832 1 18260556640708122036
23557571 272 18199201606976296092
23559900 14 18191306198592193819
314173 85 18342745134557096042
329604 57 18261403290504691438
4409770 3 18261115115595640777
469060 322 18266481874356961714
497634 4 17822301175426306142
5080951 261 18201428126047909569
513202 73 18129113242284993318
5219985 13 17688311183635890356
5969126 39 18271232881143365268
621550 5 17460604855965125111
6371380 46 18260830428125713971
6677587 24 15317640295192371405

> <PUBCHEM_SHAPE_MULTIPOLES>
555.18
13.92
5.09
1.93
28.38
7.56
-1.59
-10.61
0.53
-8.97
0.87
-1.23
-1.95
0.71

> <PUBCHEM_SHAPE_SELFOVERLAP>
1182.359

> <PUBCHEM_SHAPE_VOLUME>
306.7

> <PUBCHEM_COORDINATE_TYPE>
2
5
10

$$$$
