49830605
  -OEChem-10052120433D

 44 47  0     0  0  0  0  0  0999 V2000
   -4.3115   -4.3774    0.6535 F   0  0  0  0  0  0  0  0  0  0  0  0
    5.6674   -1.6912    1.2740 O   0  0  0  0  0  0  0  0  0  0  0  0
   -0.5732    2.2655   -0.1515 N   0  0  0  0  0  0  0  0  0  0  0  0
   -2.5283    1.7837    0.8145 N   0  0  0  0  0  0  0  0  0  0  0  0
    1.4381    0.0320   -0.4212 N   0  0  0  0  0  0  0  0  0  0  0  0
    3.6228   -0.8211   -0.4887 N   0  0  0  0  0  0  0  0  0  0  0  0
   -0.8215    4.9697    0.4744 N   0  0  0  0  0  0  0  0  0  0  0  0
    2.1034   -1.5327   -2.1291 N   0  0  0  0  0  0  0  0  0  0  0  0
   -0.7398    0.9189   -0.3068 C   0  0  0  0  0  0  0  0  0  0  0  0
   -1.9510    0.6460    0.2964 C   0  0  0  0  0  0  0  0  0  0  0  0
   -1.6715    2.7321    0.5253 C   0  0  0  0  0  0  0  0  0  0  0  0
    0.2076    0.0555   -0.9742 C   0  0  0  0  0  0  0  0  0  0  0  0
   -2.5590   -0.6480    0.3883 C   0  0  0  0  0  0  0  0  0  0  0  0
    0.4238    3.1459   -0.5288 C   0  0  0  0  0  0  0  0  0  0  0  0
   -1.7601    4.1331    0.8280 C   0  0  0  0  0  0  0  0  0  0  0  0
   -0.1459   -0.6767   -2.0892 C   0  0  0  0  0  0  0  0  0  0  0  0
   -1.8969   -1.6846    1.0463 C   0  0  0  0  0  0  0  0  0  0  0  0
   -3.8132   -0.8712   -0.1798 C   0  0  0  0  0  0  0  0  0  0  0  0
    2.3240   -0.7715   -1.0402 C   0  0  0  0  0  0  0  0  0  0  0  0
    0.2700    4.4458   -0.2091 C   0  0  0  0  0  0  0  0  0  0  0  0
    4.0042   -0.0687    0.6652 C   0  0  0  0  0  0  0  0  0  0  0  0
    0.8526   -1.4610   -2.6298 C   0  0  0  0  0  0  0  0  0  0  0  0
   -2.4888   -2.9443    1.1358 C   0  0  0  0  0  0  0  0  0  0  0  0
   -4.4053   -2.1309   -0.0903 C   0  0  0  0  0  0  0  0  0  0  0  0
    5.4694   -0.3132    0.9841 C   0  0  0  0  0  0  0  0  0  0  0  0
   -3.7430   -3.1675    0.5676 C   0  0  0  0  0  0  0  0  0  0  0  0
    7.0259   -1.9680    1.5854 C   0  0  0  0  0  0  0  0  0  0  0  0
    1.2854    2.7715   -1.0659 H   0  0  0  0  0  0  0  0  0  0  0  0
   -2.6417    4.5086    1.3714 H   0  0  0  0  0  0  0  0  0  0  0  0
   -1.1355   -0.6468   -2.5278 H   0  0  0  0  0  0  0  0  0  0  0  0
   -0.9223   -1.5308    1.5037 H   0  0  0  0  0  0  0  0  0  0  0  0
   -4.3425   -0.0748   -0.6977 H   0  0  0  0  0  0  0  0  0  0  0  0
    1.0309    5.1661   -0.4900 H   0  0  0  0  0  0  0  0  0  0  0  0
    3.8484    1.0029    0.4957 H   0  0  0  0  0  0  0  0  0  0  0  0
    3.3932   -0.3765    1.5221 H   0  0  0  0  0  0  0  0  0  0  0  0
    4.2876   -1.4310   -0.9506 H   0  0  0  0  0  0  0  0  0  0  0  0
    0.6691   -2.0711   -3.5078 H   0  0  0  0  0  0  0  0  0  0  0  0
   -1.9744   -3.7513    1.6492 H   0  0  0  0  0  0  0  0  0  0  0  0
   -5.3815   -2.3054   -0.5329 H   0  0  0  0  0  0  0  0  0  0  0  0
    6.0969   -0.0248    0.1319 H   0  0  0  0  0  0  0  0  0  0  0  0
    5.7587    0.2885    1.8534 H   0  0  0  0  0  0  0  0  0  0  0  0
    7.1191   -3.0361    1.7995 H   0  0  0  0  0  0  0  0  0  0  0  0
    7.3391   -1.4060    2.4705 H   0  0  0  0  0  0  0  0  0  0  0  0
    7.6715   -1.7249    0.7359 H   0  0  0  0  0  0  0  0  0  0  0  0
  1 26  1  0  0  0  0
  2 25  1  0  0  0  0
  2 27  1  0  0  0  0
  3  9  1  0  0  0  0
  3 11  1  0  0  0  0
  3 14  1  0  0  0  0
  4 10  1  0  0  0  0
  4 11  2  0  0  0  0
  5 12  2  0  0  0  0
  5 19  1  0  0  0  0
  6 19  1  0  0  0  0
  6 21  1  0  0  0  0
  6 36  1  0  0  0  0
  7 15  2  0  0  0  0
  7 20  1  0  0  0  0
  8 19  2  0  0  0  0
  8 22  1  0  0  0  0
  9 10  2  0  0  0  0
  9 12  1  0  0  0  0
 10 13  1  0  0  0  0
 11 15  1  0  0  0  0
 12 16  1  0  0  0  0
 13 17  2  0  0  0  0
 13 18  1  0  0  0  0
 14 20  2  0  0  0  0
 14 28  1  0  0  0  0
 15 29  1  0  0  0  0
 16 22  2  0  0  0  0
 16 30  1  0  0  0  0
 17 23  1  0  0  0  0
 17 31  1  0  0  0  0
 18 24  2  0  0  0  0
 18 32  1  0  0  0  0
 20 33  1  0  0  0  0
 21 25  1  0  0  0  0
 21 34  1  0  0  0  0
 21 35  1  0  0  0  0
 22 37  1  0  0  0  0
 23 26  2  0  0  0  0
 23 38  1  0  0  0  0
 24 26  1  0  0  0  0
 24 39  1  0  0  0  0
 25 40  1  0  0  0  0
 25 41  1  0  0  0  0
 27 42  1  0  0  0  0
 27 43  1  0  0  0  0
 27 44  1  0  0  0  0
M  END
> <PUBCHEM_COMPOUND_CID>
49830605

> <PUBCHEM_CONFORMER_RMSD>
0.8

> <PUBCHEM_CONFORMER_DIVERSEORDER>
2
48
5
36
11
6
44
45
25
33
49
1
12
26
27
55
64
28
47
31
13
59
3
8
20
61
23
30
16
34
65
52
17
53
51
24
60
4
18
37
19
42
21
38
62
41
15
63
35
50
22
7
46
56
10
54
29
39
58
57
43
14
9
32
40

> <PUBCHEM_MMFF94_PARTIAL_CHARGES>
37
1 -0.19
10 0.17
11 0.1
12 0.36
13 0.05
14 -0.18
15 0.47
16 -0.15
17 -0.15
18 -0.15
19 0.72
2 -0.56
20 0.02
21 0.37
22 0.16
23 -0.15
24 -0.15
25 0.28
26 0.19
27 0.28
28 0.15
29 0.06
3 0.33
30 0.15
31 0.15
32 0.15
33 0.15
36 0.4
37 0.15
38 0.15
39 0.15
4 -0.57
5 -0.62
6 -0.87
7 -0.62
8 -0.62
9 -0.2

> <PUBCHEM_EFFECTIVE_ROTOR_COUNT>
6

> <PUBCHEM_PHARMACOPHORE_FEATURES>
10
1 2 acceptor
1 5 acceptor
1 6 donor
1 7 acceptor
3 3 4 11 cation
4 5 6 8 19 cation
5 3 4 9 10 11 rings
6 13 17 18 23 24 26 rings
6 3 7 11 14 15 20 rings
6 5 8 12 16 19 22 rings

> <PUBCHEM_HEAVY_ATOM_COUNT>
27

> <PUBCHEM_ATOM_DEF_STEREO_COUNT>
0

> <PUBCHEM_ATOM_UDEF_STEREO_COUNT>
0

> <PUBCHEM_BOND_DEF_STEREO_COUNT>
0

> <PUBCHEM_BOND_UDEF_STEREO_COUNT>
0

> <PUBCHEM_ISOTOPIC_ATOM_COUNT>
0

> <PUBCHEM_COMPONENT_COUNT>
1

> <PUBCHEM_CACTVS_TAUTO_COUNT>
3

> <PUBCHEM_CONFORMER_ID>
02F85ACD00000002

> <PUBCHEM_MMFF94_ENERGY>
77.2284

> <PUBCHEM_FEATURE_SELFOVERLAP>
50.866

> <PUBCHEM_SHAPE_FINGERPRINT>
10074138 170 18266732489698576057
10319926 262 18125440813983186958
10906281 52 18271262551120766109
1100329 8 18410304605631464553
11552529 35 18189043232043153322
11963148 33 16971110151491262247
12160290 23 17899163553857728965
12553582 1 18124348049300178959
12592029 89 17333101213857265521
12788726 201 18262540120454332440
12930653 34 18268144250139597662
13083527 12 18126011700423676487
13140716 1 18341902912919124857
140371 6 18342187635218120125
14081887 123 18340496547294337574
14178342 30 18264497178538574846
14844126 61 18261957345100717705
14950920 106 18189036631010443098
15475509 35 17101746310736853187
19591789 44 16758613036853602453
20600515 1 18270696311111268833
20642791 13 18129665176058587397
21033648 29 17274834544552396722
21304303 282 17975115562304953749
21421861 104 17693976220377350475
21650355 55 18409451362452673345
22182313 1 17559963126120366886
22956985 138 17830449840672473682
23366157 5 17757003559523163757
23419403 2 17973143304611065021
23559900 14 18192138511666967691
3187 122 18341606023330941632
376196 1 17051888539168148140
3886686 26 17689714165216084842
484985 159 17679278799161793706
56638632 33 18043247057748676648
613672 6 18341900722702296511
7288768 16 17484808108552941464
81228 2 18055102907295752489
9981440 41 17628900254265792830

> <PUBCHEM_SHAPE_MULTIPOLES>
512.62
9.89
5.87
1.69
19.07
6.65
-1.06
-12.53
6.42
-5.93
1.78
1.39
-1.13
-0.32

> <PUBCHEM_SHAPE_SELFOVERLAP>
1128.545

> <PUBCHEM_SHAPE_VOLUME>
277.8

> <PUBCHEM_COORDINATE_TYPE>
2
5
10

$$$$
