53384644
  -OEChem-10052115173D

 69 71  0     0  0  0  0  0  0999 V2000
   -1.4897    4.2117    1.2088 Cl  0  0  0  0  0  0  0  0  0  0  0  0
   -1.3301    7.3384    0.5011 Cl  0  0  0  0  0  0  0  0  0  0  0  0
    3.7512   -0.7443   -0.2887 S   0  0  0  0  0  0  0  0  0  0  0  0
   -3.2107   -1.9356   -2.5981 O   0  0  0  0  0  0  0  0  0  0  0  0
    0.5926   -2.2480    2.7682 O   0  0  0  0  0  0  0  0  0  0  0  0
    3.0070    1.9453   -0.4808 O   0  0  0  0  0  0  0  0  0  0  0  0
   -0.5054   -2.7048    0.7484 N   0  0  0  0  0  0  0  0  0  0  0  0
   -3.3894   -1.9753   -0.2828 N   0  0  0  0  0  0  0  0  0  0  0  0
   -7.0641   -1.3069   -0.3487 N   0  0  0  0  0  0  0  0  0  0  0  0
    1.5392    0.4149    0.5301 N   0  0  0  0  0  0  0  0  0  0  0  0
    0.9464    2.6669    0.3572 N   0  0  0  0  0  0  0  0  0  0  0  0
   -1.8061   -2.9121    1.3883 C   0  0  0  0  0  0  0  0  0  0  0  0
   -2.7816   -1.7919    1.0394 C   0  0  0  0  0  0  0  0  0  0  0  0
   -0.4810   -2.8126   -0.7165 C   0  0  0  0  0  0  0  0  0  0  0  0
    5.2079   -3.0763   -0.5093 C   0  0  0  0  0  0  0  0  0  0  0  0
   -1.1905   -1.6348   -1.3770 C   0  0  0  0  0  0  0  0  0  0  0  0
   -4.8164   -2.2693   -0.3034 C   0  0  0  0  0  0  0  0  0  0  0  0
   -2.6886   -1.8606   -1.4826 C   0  0  0  0  0  0  0  0  0  0  0  0
    3.9622   -2.4264   -0.0480 C   0  0  0  0  0  0  0  0  0  0  0  0
    0.5916   -2.3441    1.5418 C   0  0  0  0  0  0  0  0  0  0  0  0
    1.8629   -2.0427    0.8727 C   0  0  0  0  0  0  0  0  0  0  0  0
   -5.6423   -0.9913   -0.2991 C   0  0  0  0  0  0  0  0  0  0  0  0
    2.8794   -2.9982    0.5830 C   0  0  0  0  0  0  0  0  0  0  0  0
    6.4704   -2.4663    0.1855 C   0  0  0  0  0  0  0  0  0  0  0  0
    5.2087   -4.6101   -0.1996 C   0  0  0  0  0  0  0  0  0  0  0  0
    5.5035   -2.9737   -2.0481 C   0  0  0  0  0  0  0  0  0  0  0  0
    2.2077   -0.7770    0.4523 C   0  0  0  0  0  0  0  0  0  0  0  0
   -7.8295   -0.1640   -0.8505 C   0  0  0  0  0  0  0  0  0  0  0  0
   -7.5519   -1.7022    0.9740 C   0  0  0  0  0  0  0  0  0  0  0  0
    1.9386    1.7140    0.0763 C   0  0  0  0  0  0  0  0  0  0  0  0
    0.9626    4.0521    0.0689 C   0  0  0  0  0  0  0  0  0  0  0  0
   -0.1025    4.8857    0.4096 C   0  0  0  0  0  0  0  0  0  0  0  0
    2.0833    4.5792   -0.5730 C   0  0  0  0  0  0  0  0  0  0  0  0
   -0.0472    6.2465    0.1084 C   0  0  0  0  0  0  0  0  0  0  0  0
    2.1387    5.9400   -0.8742 C   0  0  0  0  0  0  0  0  0  0  0  0
    1.0733    6.7737   -0.5335 C   0  0  0  0  0  0  0  0  0  0  0  0
   -2.1889   -3.8927    1.0828 H   0  0  0  0  0  0  0  0  0  0  0  0
   -1.6745   -2.9366    2.4751 H   0  0  0  0  0  0  0  0  0  0  0  0
   -2.2824   -0.8161    1.0567 H   0  0  0  0  0  0  0  0  0  0  0  0
   -3.5792   -1.7593    1.7905 H   0  0  0  0  0  0  0  0  0  0  0  0
    0.5492   -2.8513   -1.0769 H   0  0  0  0  0  0  0  0  0  0  0  0
   -0.9468   -3.7670   -0.9896 H   0  0  0  0  0  0  0  0  0  0  0  0
   -0.9937   -0.6862   -0.8671 H   0  0  0  0  0  0  0  0  0  0  0  0
   -0.8130   -1.5298   -2.4019 H   0  0  0  0  0  0  0  0  0  0  0  0
   -5.0387   -2.9244    0.5455 H   0  0  0  0  0  0  0  0  0  0  0  0
   -5.0418   -2.8449   -1.2101 H   0  0  0  0  0  0  0  0  0  0  0  0
   -5.3547   -0.4141   -1.1886 H   0  0  0  0  0  0  0  0  0  0  0  0
   -5.3937   -0.3574    0.5623 H   0  0  0  0  0  0  0  0  0  0  0  0
    2.7984   -4.0481    0.8337 H   0  0  0  0  0  0  0  0  0  0  0  0
    6.3697   -2.5070    1.2765 H   0  0  0  0  0  0  0  0  0  0  0  0
    6.6279   -1.4191   -0.0956 H   0  0  0  0  0  0  0  0  0  0  0  0
    7.3784   -3.0175   -0.0856 H   0  0  0  0  0  0  0  0  0  0  0  0
    4.3851   -5.1208   -0.7123 H   0  0  0  0  0  0  0  0  0  0  0  0
    5.1126   -4.7986    0.8762 H   0  0  0  0  0  0  0  0  0  0  0  0
    6.1426   -5.0815   -0.5277 H   0  0  0  0  0  0  0  0  0  0  0  0
    5.6285   -1.9319   -2.3631 H   0  0  0  0  0  0  0  0  0  0  0  0
    4.6717   -3.3937   -2.6255 H   0  0  0  0  0  0  0  0  0  0  0  0
    6.4160   -3.5156   -2.3214 H   0  0  0  0  0  0  0  0  0  0  0  0
    0.6260    0.3644    0.9746 H   0  0  0  0  0  0  0  0  0  0  0  0
   -7.5142    0.0960   -1.8672 H   0  0  0  0  0  0  0  0  0  0  0  0
   -7.7139    0.7212   -0.2145 H   0  0  0  0  0  0  0  0  0  0  0  0
   -8.8957   -0.4102   -0.9094 H   0  0  0  0  0  0  0  0  0  0  0  0
   -7.0564   -2.6084    1.3354 H   0  0  0  0  0  0  0  0  0  0  0  0
   -8.6207   -1.9417    0.9281 H   0  0  0  0  0  0  0  0  0  0  0  0
   -7.4146   -0.9111    1.7204 H   0  0  0  0  0  0  0  0  0  0  0  0
    0.1085    2.3309    0.8251 H   0  0  0  0  0  0  0  0  0  0  0  0
    2.9529    4.0163   -0.8750 H   0  0  0  0  0  0  0  0  0  0  0  0
    3.0106    6.3522   -1.3741 H   0  0  0  0  0  0  0  0  0  0  0  0
    1.1340    7.8317   -0.7761 H   0  0  0  0  0  0  0  0  0  0  0  0
  1 32  1  0  0  0  0
  2 34  1  0  0  0  0
  3 19  1  0  0  0  0
  3 27  1  0  0  0  0
  4 18  2  0  0  0  0
  5 20  2  0  0  0  0
  6 30  2  0  0  0  0
  7 12  1  0  0  0  0
  7 14  1  0  0  0  0
  7 20  1  0  0  0  0
  8 13  1  0  0  0  0
  8 17  1  0  0  0  0
  8 18  1  0  0  0  0
  9 22  1  0  0  0  0
  9 28  1  0  0  0  0
  9 29  1  0  0  0  0
 10 27  1  0  0  0  0
 10 30  1  0  0  0  0
 10 59  1  0  0  0  0
 11 30  1  0  0  0  0
 11 31  1  0  0  0  0
 11 66  1  0  0  0  0
 12 13  1  0  0  0  0
 12 37  1  0  0  0  0
 12 38  1  0  0  0  0
 13 39  1  0  0  0  0
 13 40  1  0  0  0  0
 14 16  1  0  0  0  0
 14 41  1  0  0  0  0
 14 42  1  0  0  0  0
 15 19  1  0  0  0  0
 15 24  1  0  0  0  0
 15 25  1  0  0  0  0
 15 26  1  0  0  0  0
 16 18  1  0  0  0  0
 16 43  1  0  0  0  0
 16 44  1  0  0  0  0
 17 22  1  0  0  0  0
 17 45  1  0  0  0  0
 17 46  1  0  0  0  0
 19 23  2  0  0  0  0
 20 21  1  0  0  0  0
 21 23  1  0  0  0  0
 21 27  2  0  0  0  0
 22 47  1  0  0  0  0
 22 48  1  0  0  0  0
 23 49  1  0  0  0  0
 24 50  1  0  0  0  0
 24 51  1  0  0  0  0
 24 52  1  0  0  0  0
 25 53  1  0  0  0  0
 25 54  1  0  0  0  0
 25 55  1  0  0  0  0
 26 56  1  0  0  0  0
 26 57  1  0  0  0  0
 26 58  1  0  0  0  0
 28 60  1  0  0  0  0
 28 61  1  0  0  0  0
 28 62  1  0  0  0  0
 29 63  1  0  0  0  0
 29 64  1  0  0  0  0
 29 65  1  0  0  0  0
 31 32  2  0  0  0  0
 31 33  1  0  0  0  0
 32 34  1  0  0  0  0
 33 35  2  0  0  0  0
 33 67  1  0  0  0  0
 34 36  2  0  0  0  0
 35 36  1  0  0  0  0
 35 68  1  0  0  0  0
 36 69  1  0  0  0  0
M  END
> <PUBCHEM_COMPOUND_CID>
53384644

> <PUBCHEM_CONFORMER_RMSD>
1.2

> <PUBCHEM_CONFORMER_DIVERSEORDER>
1
112
21
2
56
93
41
17
61
43
66
90
5
126
108
115
71
139
107
123
103
75
55
59
58
141
121
117
57
114
47
95
78
127
81
51
134
158
146
32
128
159
130
99
137
119
29
14
73
12
64
30
133
76
63
147
48
104
37
15
6
84
46
153
132
145
144
138
28
33
116
136
23
65
106
86
156
143
26
89
85
67
20
77
10
154
53
31
60
69
24
13
39
152
118
79
70
25
148
129
40
80
101
45
98
49
87
35
157
62
94
111
113
122
150
50
19
54
16
96
18
110
97
38
34
142
11
151
83
3
7
9
125
109
124
131
72
149
88
27
44
155
36
8
4
91
140
68
135
120
74
42
52
82
22
105
92
100
102

> <PUBCHEM_MMFF94_PARTIAL_CHARGES>
39
1 -0.18
10 -0.49
11 -0.55
12 0.3
13 0.3
14 0.3
15 0.18
16 0.06
17 0.3
18 0.57
19 -0.14
2 -0.18
20 0.72
21 -0.09
22 0.27
23 -0.15
27 0.1
28 0.27
29 0.27
3 -0.08
30 0.69
31 0.12
32 0.18
33 -0.15
34 0.18
35 -0.15
36 -0.15
4 -0.57
49 0.15
5 -0.57
59 0.37
6 -0.57
66 0.37
67 0.15
68 0.15
69 0.15
7 -0.66
8 -0.66
9 -0.81

> <PUBCHEM_EFFECTIVE_ROTOR_COUNT>
11.2

> <PUBCHEM_PHARMACOPHORE_FEATURES>
10
1 10 donor
1 11 donor
1 4 acceptor
1 5 acceptor
1 6 acceptor
1 9 cation
4 15 24 25 26 hydrophobe
5 3 19 21 23 27 rings
6 31 32 33 34 35 36 rings
7 7 8 12 13 14 16 18 rings

> <PUBCHEM_HEAVY_ATOM_COUNT>
36

> <PUBCHEM_ATOM_DEF_STEREO_COUNT>
0

> <PUBCHEM_ATOM_UDEF_STEREO_COUNT>
0

> <PUBCHEM_BOND_DEF_STEREO_COUNT>
0

> <PUBCHEM_BOND_UDEF_STEREO_COUNT>
0

> <PUBCHEM_ISOTOPIC_ATOM_COUNT>
0

> <PUBCHEM_COMPONENT_COUNT>
1

> <PUBCHEM_CACTVS_TAUTO_COUNT>
14

> <PUBCHEM_CONFORMER_ID>
032E95C400000001

> <PUBCHEM_MMFF94_ENERGY>
106.2694

> <PUBCHEM_FEATURE_SELFOVERLAP>
50.789

> <PUBCHEM_SHAPE_FINGERPRINT>
10190206 1 17904757787721475670
10462674 296 18339925897040100625
10675989 125 18193838365482182393
11297750 10 18128523891842440418
11386260 185 18339911693667272207
11479125 193 17905612456359722401
11991303 11 17546459877748986030
13590594 115 18338242561242163306
13944108 23 18262517125274088621
14028597 1 17678165011173723962
14068700 686 16823632060131246880
15082195 135 17981586467813841631
15198563 99 18267310820082488406
15264996 163 18118405038607770853
15320295 198 18187632567837157053
15400415 2 17473825508390467557
15629462 23 18046072561877575211
16988056 13 18337388343849880036
16992779 147 18123203552501501745
18365409 1 17760941644959251924
19301679 30 18194678164564244394
19311894 1 18267019458064928487
21987440 362 17613435962387130940
23576562 1 18270120252549285735
3103668 31 18122065299466855740
376196 1 17613143487945797314
4066623 53 18412543180849974344
4173938 77 18341326773653511191
4394409 98 17621034695868280720
7288768 16 17176009563812118883
9658208 31 17620465815308405818

> <PUBCHEM_SHAPE_MULTIPOLES>
705.94
13.81
12.01
1.55
9.61
34.14
0.06
-24.01
3.32
6.01
0.32
0.21
-1.41
-1.07

> <PUBCHEM_SHAPE_SELFOVERLAP>
1441.246

> <PUBCHEM_SHAPE_VOLUME>
412.9

> <PUBCHEM_COORDINATE_TYPE>
2
5
10

$$$$
