9927718
  -OEChem-10052115163D

 36 38  0     0  0  0  0  0  0999 V2000
   -3.2814   -2.7083    0.5453 Cl  0  0  0  0  0  0  0  0  0  0  0  0
    1.4622    0.0549   -1.3657 S   0  0  0  0  0  0  0  0  0  0  0  0
    4.9880    0.4456    1.6633 O   0  0  0  0  0  0  0  0  0  0  0  0
   -1.4420   -0.1223   -1.8663 O   0  0  0  0  0  0  0  0  0  0  0  0
    3.9015    0.2210   -0.4201 N   0  0  0  0  0  0  0  0  0  0  0  0
    2.0640    0.2997    1.1364 N   0  0  0  0  0  0  0  0  0  0  0  0
   -2.1392    0.0868    0.3462 N   0  0  0  0  0  0  0  0  0  0  0  0
    6.3223    0.3191   -0.2521 C   0  0  0  0  0  0  0  0  0  0  0  0
    6.6339   -0.8300   -1.1444 C   0  0  0  0  0  0  0  0  0  0  0  0
    7.3301   -0.6876    0.1772 C   0  0  0  0  0  0  0  0  0  0  0  0
    4.9967    0.3359    0.4453 C   0  0  0  0  0  0  0  0  0  0  0  0
    2.5773    0.2081   -0.0703 C   0  0  0  0  0  0  0  0  0  0  0  0
    0.2222    0.1159   -0.2177 C   0  0  0  0  0  0  0  0  0  0  0  0
    0.6872    0.2454    1.0412 C   0  0  0  0  0  0  0  0  0  0  0  0
   -3.5318   -0.0062    0.2322 C   0  0  0  0  0  0  0  0  0  0  0  0
   -4.2823    1.1538    0.0406 C   0  0  0  0  0  0  0  0  0  0  0  0
   -1.1748    0.0272   -0.6759 C   0  0  0  0  0  0  0  0  0  0  0  0
   -4.1690   -1.2445    0.3088 C   0  0  0  0  0  0  0  0  0  0  0  0
   -5.6703    1.0754   -0.0744 C   0  0  0  0  0  0  0  0  0  0  0  0
   -3.6303    2.4959   -0.0457 C   0  0  0  0  0  0  0  0  0  0  0  0
   -5.5569   -1.3230    0.1938 C   0  0  0  0  0  0  0  0  0  0  0  0
   -6.3076   -0.1630    0.0022 C   0  0  0  0  0  0  0  0  0  0  0  0
    6.6987    1.2955   -0.5379 H   0  0  0  0  0  0  0  0  0  0  0  0
    7.2093   -0.6324   -2.0409 H   0  0  0  0  0  0  0  0  0  0  0  0
    5.9214   -1.6397   -1.2446 H   0  0  0  0  0  0  0  0  0  0  0  0
    7.0722   -1.3930    0.9577 H   0  0  0  0  0  0  0  0  0  0  0  0
    8.3734   -0.3962    0.1677 H   0  0  0  0  0  0  0  0  0  0  0  0
    4.0830    0.1432   -1.4174 H   0  0  0  0  0  0  0  0  0  0  0  0
    0.1162    0.3091    1.9569 H   0  0  0  0  0  0  0  0  0  0  0  0
   -1.8238    0.1680    1.3084 H   0  0  0  0  0  0  0  0  0  0  0  0
   -6.2707    1.9687   -0.2247 H   0  0  0  0  0  0  0  0  0  0  0  0
   -3.0178    2.6855    0.8422 H   0  0  0  0  0  0  0  0  0  0  0  0
   -3.0012    2.5580   -0.9397 H   0  0  0  0  0  0  0  0  0  0  0  0
   -4.3674    3.3042   -0.1057 H   0  0  0  0  0  0  0  0  0  0  0  0
   -6.0693   -2.2800    0.2512 H   0  0  0  0  0  0  0  0  0  0  0  0
   -7.3882   -0.2241   -0.0876 H   0  0  0  0  0  0  0  0  0  0  0  0
  1 18  1  0  0  0  0
  2 12  1  0  0  0  0
  2 13  1  0  0  0  0
  3 11  2  0  0  0  0
  4 17  2  0  0  0  0
  5 11  1  0  0  0  0
  5 12  1  0  0  0  0
  5 28  1  0  0  0  0
  6 12  2  0  0  0  0
  6 14  1  0  0  0  0
  7 15  1  0  0  0  0
  7 17  1  0  0  0  0
  7 30  1  0  0  0  0
  8  9  1  0  0  0  0
  8 10  1  0  0  0  0
  8 11  1  0  0  0  0
  8 23  1  0  0  0  0
  9 10  1  0  0  0  0
  9 24  1  0  0  0  0
  9 25  1  0  0  0  0
 10 26  1  0  0  0  0
 10 27  1  0  0  0  0
 13 14  2  0  0  0  0
 13 17  1  0  0  0  0
 14 29  1  0  0  0  0
 15 16  2  0  0  0  0
 15 18  1  0  0  0  0
 16 19  1  0  0  0  0
 16 20  1  0  0  0  0
 18 21  2  0  0  0  0
 19 22  2  0  0  0  0
 19 31  1  0  0  0  0
 20 32  1  0  0  0  0
 20 33  1  0  0  0  0
 20 34  1  0  0  0  0
 21 22  1  0  0  0  0
 21 35  1  0  0  0  0
 22 36  1  0  0  0  0
M  END
> <PUBCHEM_COMPOUND_CID>
9927718

> <PUBCHEM_CONFORMER_RMSD>
0.8

> <PUBCHEM_CONFORMER_DIVERSEORDER>
2
31
28
16
25
21
29
10
32
15
18
30
22
27
14
17
13
26
7
3
24
19
12
23
9
20
4
6
8
11
1
5

> <PUBCHEM_MMFF94_PARTIAL_CHARGES>
33
1 -0.18
10 -0.2
11 0.63
12 0.44
13 -0.05
14 0.08
15 0.12
16 -0.14
17 0.71
18 0.18
19 -0.15
2 -0.08
20 0.14
21 -0.15
22 -0.15
23 0.1
24 0.1
25 0.1
26 0.1
27 0.1
28 0.37
29 0.15
3 -0.57
30 0.37
31 0.15
35 0.15
36 0.15
4 -0.57
5 -0.49
6 -0.57
7 -0.55
8 -0.1
9 -0.2

> <PUBCHEM_EFFECTIVE_ROTOR_COUNT>
6.6

> <PUBCHEM_PHARMACOPHORE_FEATURES>
6
1 3 acceptor
1 4 acceptor
1 5 donor
1 7 donor
5 2 6 12 13 14 rings
6 15 16 18 19 21 22 rings

> <PUBCHEM_HEAVY_ATOM_COUNT>
22

> <PUBCHEM_ATOM_DEF_STEREO_COUNT>
0

> <PUBCHEM_ATOM_UDEF_STEREO_COUNT>
0

> <PUBCHEM_BOND_DEF_STEREO_COUNT>
0

> <PUBCHEM_BOND_UDEF_STEREO_COUNT>
0

> <PUBCHEM_ISOTOPIC_ATOM_COUNT>
0

> <PUBCHEM_COMPONENT_COUNT>
1

> <PUBCHEM_CACTVS_TAUTO_COUNT>
9

> <PUBCHEM_CONFORMER_ID>
00977C2600000002

> <PUBCHEM_MMFF94_ENERGY>
69.5093

> <PUBCHEM_FEATURE_SELFOVERLAP>
30.446

> <PUBCHEM_SHAPE_FINGERPRINT>
10 15 17988914609617040128
10299344 5 17894631440232624130
10411042 1 18120658196480246299
10638233 991 16660655067854901996
10968037 39 14418135119238291513
11045977 3 18271804670123560186
11089746 13 13039183715249230522
11315181 36 18040157335954773117
11524674 6 17989486337814383687
12091667 2 16443064989224517605
12107183 9 17539960685596295729
12166972 35 18335143111384705364
12236239 1 17530683225566417297
13288520 33 18333732438218586327
13885169 127 18410293580228278136
14123256 10 15357696392855091790
14251764 46 15052014563092683844
14341114 176 18338237166810958881
14840074 17 16226043401092751834
14856354 85 18261681440659990967
14933364 13 18413109468093471232
15183329 4 17967533463321539274
15348495 7 18058725935447969026
17844677 252 18411987979075967088
18927931 339 18408888464666535543
19489759 90 18411702080330050481
200 152 15864063278391942757
20281389 69 16988559113397246040
20567600 75 18130792226631024158
21033648 29 17274526664448904449
21267235 1 18114750429882053139
21315759 40 17676768691672431616
21623969 137 17060064735386473982
21641784 216 14201680789387308686
220451 1 17530963583814825050
2297311 6 18411421713418147889
23035841 295 18040714766611442562
23081809 10 16660357061443547264
23198884 109 18187367622875797472
23402539 116 18333730234235790444
23522609 53 17241631445752523964
23536379 177 18408887322015129360
23559900 14 18338513166094562489
23569943 247 17024297523604134658
3545911 37 18342458127440624049
397830 11 17986383602353111754
4073 2 18187089502981032946
4325135 7 16877660158759184118
4463277 17 15285357314701879732
57527293 21 17627805424616937471
58260988 114 15647919135937656769
59755656 215 18411139108759738174
59755656 520 18411412925714957799

> <PUBCHEM_SHAPE_MULTIPOLES>
431.79
19.05
1.64
1.15
20.68
0.38
0.14
2.06
-0.45
-3.2
-0.18
1.07
-0.01
0.59

> <PUBCHEM_SHAPE_SELFOVERLAP>
902.773

> <PUBCHEM_SHAPE_VOLUME>
246.9

> <PUBCHEM_COORDINATE_TYPE>
2
5
10

$$$$
