44411161
  -OEChem-10062122003D

 58 60  0     1  0  0  0  0  0999 V2000
    6.8992   -1.1590   -2.2053 Cl  0  0  0  0  0  0  0  0  0  0  0  0
    4.4326    0.2013   -1.3137 F   0  0  0  0  0  0  0  0  0  0  0  0
   -2.7406    2.4924   -0.1116 O   0  0  0  0  0  0  0  0  0  0  0  0
   -5.2998    0.3278    1.1284 O   0  0  0  0  0  0  0  0  0  0  0  0
   -3.0306   -0.3104   -0.9633 N   0  0  1  0  0  0  0  0  0  0  0  0
   -5.5744   -2.7188    0.3612 N   0  0  0  0  0  0  0  0  0  0  0  0
   -5.7644    1.0750   -0.9937 N   0  0  0  0  0  0  0  0  0  0  0  0
    1.8872    3.5403    0.2644 N   0  0  0  0  0  0  0  0  0  0  0  0
    2.8566   -0.4373    0.8709 N   0  0  0  0  0  0  0  0  0  0  0  0
    3.5177    1.8108    0.6607 N   0  0  0  0  0  0  0  0  0  0  0  0
   -4.3584   -0.8851   -0.7523 C   0  0  1  0  0  0  0  0  0  0  0  0
   -4.2533   -2.1466    0.1122 C   0  0  0  0  0  0  0  0  0  0  0  0
   -2.2750   -0.2969    0.2899 C   0  0  0  0  0  0  0  0  0  0  0  0
   -1.1818    0.7192    0.2823 C   0  0  0  0  0  0  0  0  0  0  0  0
   -2.3054   -1.0599   -1.9881 C   0  0  0  0  0  0  0  0  0  0  0  0
   -5.1839    0.2109   -0.0895 C   0  0  0  0  0  0  0  0  0  0  0  0
    0.1342    0.3122    0.4779 C   0  0  0  0  0  0  0  0  0  0  0  0
   -1.4606    2.0667    0.0823 C   0  0  0  0  0  0  0  0  0  0  0  0
    1.1715    1.2608    0.4724 C   0  0  0  0  0  0  0  0  0  0  0  0
    0.9027    2.6245    0.2716 C   0  0  0  0  0  0  0  0  0  0  0  0
   -0.4233    3.0040    0.0783 C   0  0  0  0  0  0  0  0  0  0  0  0
   -5.5272   -3.6435    1.4940 C   0  0  0  0  0  0  0  0  0  0  0  0
   -6.0710   -3.4013   -0.8338 C   0  0  0  0  0  0  0  0  0  0  0  0
    2.5079    0.9203    0.6619 C   0  0  0  0  0  0  0  0  0  0  0  0
    3.1409    3.0838    0.4595 C   0  0  0  0  0  0  0  0  0  0  0  0
    4.0103   -1.1766    0.5656 C   0  0  0  0  0  0  0  0  0  0  0  0
   -2.9347    3.8914   -0.3087 C   0  0  0  0  0  0  0  0  0  0  0  0
    4.7885   -0.8363   -0.5408 C   0  0  0  0  0  0  0  0  0  0  0  0
    4.3774   -2.2542    1.3718 C   0  0  0  0  0  0  0  0  0  0  0  0
    5.9339   -1.5735   -0.8411 C   0  0  0  0  0  0  0  0  0  0  0  0
    5.5227   -2.9912    1.0715 C   0  0  0  0  0  0  0  0  0  0  0  0
    6.3010   -2.6511   -0.0350 C   0  0  0  0  0  0  0  0  0  0  0  0
   -4.8210   -1.1059   -1.7216 H   0  0  0  0  0  0  0  0  0  0  0  0
   -3.8466   -1.9095    1.1010 H   0  0  0  0  0  0  0  0  0  0  0  0
   -3.5903   -2.9005   -0.3299 H   0  0  0  0  0  0  0  0  0  0  0  0
   -1.8540   -1.2851    0.5223 H   0  0  0  0  0  0  0  0  0  0  0  0
   -2.8858   -0.0157    1.1564 H   0  0  0  0  0  0  0  0  0  0  0  0
   -2.8736   -1.0813   -2.9253 H   0  0  0  0  0  0  0  0  0  0  0  0
   -2.0800   -2.0926   -1.7026 H   0  0  0  0  0  0  0  0  0  0  0  0
   -1.3563   -0.5669   -2.2275 H   0  0  0  0  0  0  0  0  0  0  0  0
    0.3381   -0.7454    0.6231 H   0  0  0  0  0  0  0  0  0  0  0  0
   -0.5890    4.0668   -0.0735 H   0  0  0  0  0  0  0  0  0  0  0  0
   -4.8326   -4.4737    1.3214 H   0  0  0  0  0  0  0  0  0  0  0  0
   -6.5208   -4.0616    1.6910 H   0  0  0  0  0  0  0  0  0  0  0  0
   -5.2254   -3.1228    2.4099 H   0  0  0  0  0  0  0  0  0  0  0  0
   -7.0487   -3.8548   -0.6322 H   0  0  0  0  0  0  0  0  0  0  0  0
   -5.3954   -4.1962   -1.1706 H   0  0  0  0  0  0  0  0  0  0  0  0
   -6.2340   -2.7077   -1.6637 H   0  0  0  0  0  0  0  0  0  0  0  0
   -5.6441    0.9760   -1.9966 H   0  0  0  0  0  0  0  0  0  0  0  0
   -6.3333    1.8536   -0.6782 H   0  0  0  0  0  0  0  0  0  0  0  0
    2.2470   -0.9022    1.5382 H   0  0  0  0  0  0  0  0  0  0  0  0
    3.9295    3.8264    0.4524 H   0  0  0  0  0  0  0  0  0  0  0  0
   -4.0097    4.0492   -0.4464 H   0  0  0  0  0  0  0  0  0  0  0  0
   -2.4446    4.2431   -1.2231 H   0  0  0  0  0  0  0  0  0  0  0  0
   -2.6416    4.4693    0.5744 H   0  0  0  0  0  0  0  0  0  0  0  0
    3.7807   -2.5302    2.2376 H   0  0  0  0  0  0  0  0  0  0  0  0
    5.8087   -3.8301    1.6992 H   0  0  0  0  0  0  0  0  0  0  0  0
    7.1908   -3.2348   -0.2565 H   0  0  0  0  0  0  0  0  0  0  0  0
  1 30  1  0  0  0  0
  2 28  1  0  0  0  0
  3 18  1  0  0  0  0
  3 27  1  0  0  0  0
  4 16  2  0  0  0  0
  5 11  1  0  0  0  0
  5 13  1  0  0  0  0
  5 15  1  0  0  0  0
  6 12  1  0  0  0  0
  6 22  1  0  0  0  0
  6 23  1  0  0  0  0
  7 16  1  0  0  0  0
  7 49  1  0  0  0  0
  7 50  1  0  0  0  0
  8 20  1  0  0  0  0
  8 25  2  0  0  0  0
  9 24  1  0  0  0  0
  9 26  1  0  0  0  0
  9 51  1  0  0  0  0
 10 24  2  0  0  0  0
 10 25  1  0  0  0  0
 11 12  1  0  0  0  0
 11 16  1  0  0  0  0
 11 33  1  0  0  0  0
 12 34  1  0  0  0  0
 12 35  1  0  0  0  0
 13 14  1  0  0  0  0
 13 36  1  0  0  0  0
 13 37  1  0  0  0  0
 14 17  2  0  0  0  0
 14 18  1  0  0  0  0
 15 38  1  0  0  0  0
 15 39  1  0  0  0  0
 15 40  1  0  0  0  0
 17 19  1  0  0  0  0
 17 41  1  0  0  0  0
 18 21  2  0  0  0  0
 19 20  2  0  0  0  0
 19 24  1  0  0  0  0
 20 21  1  0  0  0  0
 21 42  1  0  0  0  0
 22 43  1  0  0  0  0
 22 44  1  0  0  0  0
 22 45  1  0  0  0  0
 23 46  1  0  0  0  0
 23 47  1  0  0  0  0
 23 48  1  0  0  0  0
 25 52  1  0  0  0  0
 26 28  2  0  0  0  0
 26 29  1  0  0  0  0
 27 53  1  0  0  0  0
 27 54  1  0  0  0  0
 27 55  1  0  0  0  0
 28 30  1  0  0  0  0
 29 31  2  0  0  0  0
 29 56  1  0  0  0  0
 30 32  2  0  0  0  0
 31 32  1  0  0  0  0
 31 57  1  0  0  0  0
 32 58  1  0  0  0  0
M  END
> <PUBCHEM_COMPOUND_CID>
44411161

> <PUBCHEM_CONFORMER_RMSD>
1

> <PUBCHEM_CONFORMER_DIVERSEORDER>
6
25
18
22
23
36
88
68
41
78
106
24
56
65
17
30
109
33
99
14
92
108
27
10
45
103
77
13
84
7
12
90
3
63
115
39
44
50
74
102
15
16
47
69
72
64
85
105
21
32
110
54
80
71
53
31
8
57
40
52
5
37
62
1
91
114
82
111
46
104
26
94
61
83
20
59
86
4
100
42
48
49
79
51
112
87
66
67
81
19
113
35
97
76
38
101
60
9
2
70
89
11
95
34
29
107
28
43
58
55
98
96
93
75
73

> <PUBCHEM_MMFF94_PARTIAL_CHARGES>
40
1 -0.18
10 -0.62
11 0.33
12 0.27
13 0.41
14 -0.14
15 0.27
16 0.57
17 -0.15
18 0.08
2 -0.19
20 0.31
21 -0.15
22 0.27
23 0.27
24 0.41
25 0.47
26 0.1
27 0.28
28 0.19
29 -0.15
3 -0.36
30 0.18
31 -0.15
32 -0.15
4 -0.57
41 0.15
42 0.15
49 0.37
5 -0.81
50 0.37
51 0.4
52 0.15
56 0.15
57 0.15
58 0.15
6 -0.81
7 -0.8
8 -0.62
9 -0.6

> <PUBCHEM_EFFECTIVE_ROTOR_COUNT>
9

> <PUBCHEM_PHARMACOPHORE_FEATURES>
11
1 3 acceptor
1 4 acceptor
1 5 cation
1 6 cation
1 7 donor
1 9 donor
3 8 10 25 cation
3 9 10 24 cation
6 14 17 18 19 20 21 rings
6 26 28 29 30 31 32 rings
6 8 10 19 20 24 25 rings

> <PUBCHEM_HEAVY_ATOM_COUNT>
32

> <PUBCHEM_ATOM_DEF_STEREO_COUNT>
1

> <PUBCHEM_ATOM_UDEF_STEREO_COUNT>
0

> <PUBCHEM_BOND_DEF_STEREO_COUNT>
0

> <PUBCHEM_BOND_UDEF_STEREO_COUNT>
0

> <PUBCHEM_ISOTOPIC_ATOM_COUNT>
0

> <PUBCHEM_COMPONENT_COUNT>
1

> <PUBCHEM_CACTVS_TAUTO_COUNT>
6

> <PUBCHEM_CONFORMER_ID>
02A5A91900000006

> <PUBCHEM_MMFF94_ENERGY>
121.8635

> <PUBCHEM_FEATURE_SELFOVERLAP>
55.994

> <PUBCHEM_SHAPE_FINGERPRINT>
10 15 11023808600822997108
10050765 1 18411416202654074880
10622 236 17629173169373183871
11135926 11 18125141987032600076
117089 54 18265622159428638723
11763715 3 18261692448862040165
11963148 33 17979629357747315406
11991303 11 17969776381459842133
12107183 9 18342464690936799001
12166972 35 17967257481608247334
12422481 6 17346599664191456279
13540713 4 18269254859678303040
1361 87 17822860908718826419
13690498 29 18411142407336560172
13782708 43 17775560944445195399
13911852 28 18339918346481903335
14251764 30 18408604790197291755
14347332 77 18409727339744586028
14420673 8 18411420584005396139
14866123 147 18339641119328049577
15064986 96 17917726716391969487
15250474 111 18043242436617788962
15361156 5 18260841396754386009
17492 89 18410848893165611249
17686467 74 18341038620651423866
17909252 39 18411419531669538642
18393751 57 17407938347099461024
19841028 212 18055627568028213359
20775438 99 17977087282827535858
21682296 61 18341896346446814327
21703447 108 18339631348008711800
22950370 63 18409450301700927971
23522609 53 18123503576793935296
23559900 14 18411125953069266849
2748736 6 9079115535929237458
3004659 81 18114461155118333634
335352 9 18339356354443709645
3737641 26 18338513174357462081
44062 13 18268144271382026804
44880168 125 17418374654098833462
46194498 28 17532645939594925556
50009960 94 18117811452568199258
5104073 3 18131635616627122897
6201320 77 15839892616164228654
6697151 62 18128796643049761645
7970288 3 18410287004138385490
8863177 126 18335986462351038803

> <PUBCHEM_SHAPE_MULTIPOLES>
611.52
17.42
4.95
1.37
3.98
1.16
-0.48
-19.16
-3.17
-2.7
0.97
0.88
-0.89
0.71

> <PUBCHEM_SHAPE_SELFOVERLAP>
1300.958

> <PUBCHEM_SHAPE_VOLUME>
343.5

> <PUBCHEM_COORDINATE_TYPE>
2
5
10

$$$$
