49838879
  -OEChem-10052115143D

 48 51  0     0  0  0  0  0  0999 V2000
    5.8211    0.2308    1.9744 F   0  0  0  0  0  0  0  0  0  0  0  0
   -0.1322   -0.4159   -0.2617 O   0  0  0  0  0  0  0  0  0  0  0  0
   -5.9328    0.4675   -0.7595 O   0  0  0  0  0  0  0  0  0  0  0  0
   -5.5042   -4.3005    0.5943 O   0  0  0  0  0  0  0  0  0  0  0  0
    4.0012    0.1643   -0.1255 N   0  0  0  0  0  0  0  0  0  0  0  0
   -0.2342    1.9184   -0.0011 N   0  0  0  0  0  0  0  0  0  0  0  0
    4.0345    1.5007    0.0126 N   0  0  0  0  0  0  0  0  0  0  0  0
    2.5127   -1.6760   -0.3340 N   0  0  0  0  0  0  0  0  0  0  0  0
   -4.3606   -0.9780    0.2125 N   0  0  0  0  0  0  0  0  0  0  0  0
   -4.5143   -3.3361    0.7382 N   0  0  0  0  0  0  0  0  0  0  0  0
   -1.6059    2.1834   -0.0161 C   0  0  0  0  0  0  0  0  0  0  0  0
    1.8896    0.7226   -0.0962 C   0  0  0  0  0  0  0  0  0  0  0  0
   -2.0824    3.4908    0.0809 C   0  0  0  0  0  0  0  0  0  0  0  0
    2.7404   -0.3513   -0.1954 C   0  0  0  0  0  0  0  0  0  0  0  0
   -2.5025    1.1211   -0.1312 C   0  0  0  0  0  0  0  0  0  0  0  0
    0.4040    0.6780   -0.1204 C   0  0  0  0  0  0  0  0  0  0  0  0
   -3.8757    1.3661   -0.1495 C   0  0  0  0  0  0  0  0  0  0  0  0
    5.1998   -0.5497   -0.1831 C   0  0  0  0  0  0  0  0  0  0  0  0
   -3.4555    3.7358    0.0627 C   0  0  0  0  0  0  0  0  0  0  0  0
    2.7417    1.8361    0.0299 C   0  0  0  0  0  0  0  0  0  0  0  0
   -4.3522    2.6734   -0.0526 C   0  0  0  0  0  0  0  0  0  0  0  0
   -1.1454    4.6480    0.2048 C   0  0  0  0  0  0  0  0  0  0  0  0
    6.0967   -0.4997    0.8841 C   0  0  0  0  0  0  0  0  0  0  0  0
    5.4998   -1.3136   -1.3111 C   0  0  0  0  0  0  0  0  0  0  0  0
   -4.8108    0.2589   -0.2702 C   0  0  0  0  0  0  0  0  0  0  0  0
    7.2937   -1.2133    0.8232 C   0  0  0  0  0  0  0  0  0  0  0  0
    6.6967   -2.0272   -1.3719 C   0  0  0  0  0  0  0  0  0  0  0  0
    7.5937   -1.9768   -0.3049 C   0  0  0  0  0  0  0  0  0  0  0  0
   -5.0512   -2.2142    0.2502 C   0  0  0  0  0  0  0  0  0  0  0  0
   -6.3646   -2.4080   -0.2114 C   0  0  0  0  0  0  0  0  0  0  0  0
   -6.6011   -3.7358    0.0278 C   0  0  0  0  0  0  0  0  0  0  0  0
    0.3633    2.7324    0.0974 H   0  0  0  0  0  0  0  0  0  0  0  0
   -2.1701    0.1057   -0.2634 H   0  0  0  0  0  0  0  0  0  0  0  0
   -3.8441    4.7479    0.1384 H   0  0  0  0  0  0  0  0  0  0  0  0
    2.4927    2.8823    0.1343 H   0  0  0  0  0  0  0  0  0  0  0  0
   -5.4179    2.8866   -0.0597 H   0  0  0  0  0  0  0  0  0  0  0  0
   -0.5419    4.5598    1.1143 H   0  0  0  0  0  0  0  0  0  0  0  0
   -0.4871    4.7065   -0.6684 H   0  0  0  0  0  0  0  0  0  0  0  0
   -1.6832    5.6006    0.2664 H   0  0  0  0  0  0  0  0  0  0  0  0
    4.8202   -1.3569   -2.1588 H   0  0  0  0  0  0  0  0  0  0  0  0
    3.2507   -2.3716   -0.3600 H   0  0  0  0  0  0  0  0  0  0  0  0
    1.5699   -2.0488   -0.3911 H   0  0  0  0  0  0  0  0  0  0  0  0
    7.9919   -1.1740    1.6540 H   0  0  0  0  0  0  0  0  0  0  0  0
    6.9318   -2.6198   -2.2512 H   0  0  0  0  0  0  0  0  0  0  0  0
    8.5260   -2.5319   -0.3526 H   0  0  0  0  0  0  0  0  0  0  0  0
   -3.4451   -1.0484    0.6460 H   0  0  0  0  0  0  0  0  0  0  0  0
   -7.0613   -1.7134   -0.6545 H   0  0  0  0  0  0  0  0  0  0  0  0
   -7.4411   -4.3947   -0.1339 H   0  0  0  0  0  0  0  0  0  0  0  0
  1 23  1  0  0  0  0
  2 16  2  0  0  0  0
  3 25  2  0  0  0  0
  4 10  1  0  0  0  0
  4 31  1  0  0  0  0
  5  7  1  0  0  0  0
  5 14  1  0  0  0  0
  5 18  1  0  0  0  0
  6 11  1  0  0  0  0
  6 16  1  0  0  0  0
  6 32  1  0  0  0  0
  7 20  2  0  0  0  0
  8 14  1  0  0  0  0
  8 41  1  0  0  0  0
  8 42  1  0  0  0  0
  9 25  1  0  0  0  0
  9 29  1  0  0  0  0
  9 46  1  0  0  0  0
 10 29  2  0  0  0  0
 11 13  2  0  0  0  0
 11 15  1  0  0  0  0
 12 14  2  0  0  0  0
 12 16  1  0  0  0  0
 12 20  1  0  0  0  0
 13 19  1  0  0  0  0
 13 22  1  0  0  0  0
 15 17  2  0  0  0  0
 15 33  1  0  0  0  0
 17 21  1  0  0  0  0
 17 25  1  0  0  0  0
 18 23  1  0  0  0  0
 18 24  2  0  0  0  0
 19 21  2  0  0  0  0
 19 34  1  0  0  0  0
 20 35  1  0  0  0  0
 21 36  1  0  0  0  0
 22 37  1  0  0  0  0
 22 38  1  0  0  0  0
 22 39  1  0  0  0  0
 23 26  2  0  0  0  0
 24 27  1  0  0  0  0
 24 40  1  0  0  0  0
 26 28  1  0  0  0  0
 26 43  1  0  0  0  0
 27 28  2  0  0  0  0
 27 44  1  0  0  0  0
 28 45  1  0  0  0  0
 29 30  1  0  0  0  0
 30 31  2  0  0  0  0
 30 47  1  0  0  0  0
 31 48  1  0  0  0  0
M  END
> <PUBCHEM_COMPOUND_CID>
49838879

> <PUBCHEM_CONFORMER_RMSD>
1

> <PUBCHEM_CONFORMER_DIVERSEORDER>
1
22
14
50
64
53
6
27
54
52
11
67
26
38
20
10
31
49
41
18
36
17
51
29
44
45
5
35
32
62
59
58
61
21
34
25
2
47
8
65
55
63
19
28
56
30
42
33
9
66
7
15
37
39
23
46
48
60
13
43
57
16
12
24
40
4
3

> <PUBCHEM_MMFF94_PARTIAL_CHARGES>
45
1 -0.19
10 -0.41
11 0.12
12 -0.09
13 -0.14
14 -0.07
15 -0.15
16 0.72
17 0.09
18 -0.02
19 -0.15
2 -0.57
20 0.14
21 -0.15
22 0.14
23 0.19
24 -0.15
25 0.54
26 -0.15
27 -0.15
28 -0.15
29 0.35
3 -0.57
30 -0.15
31 -0.01
32 0.37
33 0.15
34 0.15
35 0.15
36 0.15
4 -0.02
40 0.15
41 0.4
42 0.4
43 0.15
44 0.15
45 0.15
46 0.37
47 0.15
48 0.15
5 0.59
6 -0.55
7 -0.71
8 -0.88
9 -0.49

> <PUBCHEM_EFFECTIVE_ROTOR_COUNT>
7

> <PUBCHEM_PHARMACOPHORE_FEATURES>
11
1 2 acceptor
1 3 acceptor
1 6 donor
1 7 acceptor
1 8 cation
1 8 donor
1 9 donor
5 4 10 29 30 31 rings
5 5 7 12 14 20 rings
6 11 13 15 17 19 21 rings
6 18 23 24 26 27 28 rings

> <PUBCHEM_HEAVY_ATOM_COUNT>
31

> <PUBCHEM_ATOM_DEF_STEREO_COUNT>
0

> <PUBCHEM_ATOM_UDEF_STEREO_COUNT>
0

> <PUBCHEM_BOND_DEF_STEREO_COUNT>
0

> <PUBCHEM_BOND_UDEF_STEREO_COUNT>
0

> <PUBCHEM_ISOTOPIC_ATOM_COUNT>
0

> <PUBCHEM_COMPONENT_COUNT>
1

> <PUBCHEM_CACTVS_TAUTO_COUNT>
89

> <PUBCHEM_CONFORMER_ID>
02F87B1F00000001

> <PUBCHEM_MMFF94_ENERGY>
95.9369

> <PUBCHEM_FEATURE_SELFOVERLAP>
55.822

> <PUBCHEM_SHAPE_FINGERPRINT>
10050765 1 18409731793700311116
10100884 174 18261106417912996242
10290309 65 17759804737262576413
10391435 84 18410844477981383448
10411042 1 18338517564541629591
10816530 145 17987524701960292273
11315621 246 18334577897724433061
117089 54 18339087089557809287
11761917 87 15984277214770147070
12166972 35 17749672990545602117
12522641 68 16956452067959506773
12758862 56 18335982052331905041
1361 4 18410577318610594820
13631057 29 18408602556872014923
13782708 43 18202846556530729974
14068700 675 18187366544844430517
14211702 104 18412829092401535078
14931854 50 17822280336846820419
15042514 8 18411982472853832725
15082195 135 17678469777573301772
15152005 304 18193851563727506055
15250474 111 18115863005872227875
15351339 4 17968082119782880715
15400415 2 17617378385703419517
15467298 65 18115580427432664858
15510800 12 18342172293636909535
17492 89 18338237166826997469
17686467 74 18410847798835570496
18608769 82 18411983529615935656
19301676 85 18048592918361509251
19611394 137 18343018891240153552
20028762 73 18410856585927461034
20691028 202 9511195040012879219
21130935 74 18340764837581578794
21307412 95 18410282628631464229
2303208 19 17845656950347866868
23522609 53 17752514004792754004
23559900 14 18340478980725921792
23569914 152 12109990772306307560
25025965 108 17987497278641683935
255183 313 17274818103559980887
32027 91 18123185969100706483
397830 11 18272642476957754920
4073 2 18340771429786334240
4616759 239 17916295052787915033
49967989 163 17895493504235570066
5104073 3 18273214209634318352
54583773 228 18335429015295027484
5718773 13 18339359777168543375
58902169 19 17313112916749710390
6376802 90 18053670170118945189
9980921 52 17413573289237810119

> <PUBCHEM_SHAPE_MULTIPOLES>
583.2
21.41
5.27
0.91
19.08
0.33
0.08
-22.01
0.36
-12.29
0.52
1.41
-0.28
1.64

> <PUBCHEM_SHAPE_SELFOVERLAP>
1287.55

> <PUBCHEM_SHAPE_VOLUME>
313.7

> <PUBCHEM_COORDINATE_TYPE>
2
5
10

$$$$
