49830510
  -OEChem-10052115183D

 57 61  0     0  0  0  0  0  0999 V2000
    6.9191    0.4589   -0.0107 Cl  0  0  0  0  0  0  0  0  0  0  0  0
   -6.1923    0.1714   -0.3437 N   0  0  0  0  0  0  0  0  0  0  0  0
   -3.5287    1.1584   -0.0435 N   0  0  0  0  0  0  0  0  0  0  0  0
    1.7323    3.0738    0.0361 N   0  0  0  0  0  0  0  0  0  0  0  0
    4.2239   -0.9196   -0.0530 N   0  0  0  0  0  0  0  0  0  0  0  0
    2.9655    1.0817   -0.0093 N   0  0  0  0  0  0  0  0  0  0  0  0
    0.1112   -4.5703   -0.0191 N   0  0  0  0  0  0  0  0  0  0  0  0
    4.0708    3.2222    0.0503 N   0  0  0  0  0  0  0  0  0  0  0  0
   -0.8720   -3.9465    0.6512 N   0  0  0  0  0  0  0  0  0  0  0  0
   -5.9488    1.6082   -0.1645 C   0  0  0  0  0  0  0  0  0  0  0  0
   -5.1932   -0.6013    0.4042 C   0  0  0  0  0  0  0  0  0  0  0  0
   -4.5580    1.9968   -0.6710 C   0  0  0  0  0  0  0  0  0  0  0  0
   -3.7766   -0.2861   -0.0823 C   0  0  0  0  0  0  0  0  0  0  0  0
   -7.5436   -0.1781    0.0930 C   0  0  0  0  0  0  0  0  0  0  0  0
   -2.2137    1.6366   -0.0230 C   0  0  0  0  0  0  0  0  0  0  0  0
   -7.8277   -1.6540   -0.1289 C   0  0  0  0  0  0  0  0  0  0  0  0
   -1.1968    0.9079   -0.6397 C   0  0  0  0  0  0  0  0  0  0  0  0
   -1.9201    2.8423    0.6139 C   0  0  0  0  0  0  0  0  0  0  0  0
    0.1139    1.3846   -0.6194 C   0  0  0  0  0  0  0  0  0  0  0  0
   -0.6095    3.3192    0.6344 C   0  0  0  0  0  0  0  0  0  0  0  0
    0.4075    2.5903    0.0177 C   0  0  0  0  0  0  0  0  0  0  0  0
    2.9838    2.4278    0.0250 C   0  0  0  0  0  0  0  0  0  0  0  0
    0.9904   -2.6265    0.4885 C   0  0  0  0  0  0  0  0  0  0  0  0
    3.2171   -1.8980   -0.0822 C   0  0  0  0  0  0  0  0  0  0  0  0
    1.2561   -3.8318   -0.1516 C   0  0  0  0  0  0  0  0  0  0  0  0
    1.9846   -1.6347    0.5287 C   0  0  0  0  0  0  0  0  0  0  0  0
    4.1809    0.4959   -0.0186 C   0  0  0  0  0  0  0  0  0  0  0  0
    3.4575   -3.1173   -0.7184 C   0  0  0  0  0  0  0  0  0  0  0  0
    2.4777   -4.1143   -0.7667 C   0  0  0  0  0  0  0  0  0  0  0  0
   -0.3334   -2.7643    0.9584 C   0  0  0  0  0  0  0  0  0  0  0  0
    5.3698    1.1960    0.0047 C   0  0  0  0  0  0  0  0  0  0  0  0
    5.2523    2.5707    0.0392 C   0  0  0  0  0  0  0  0  0  0  0  0
   -6.0459    1.8897    0.8928 H   0  0  0  0  0  0  0  0  0  0  0  0
   -6.6915    2.1877   -0.7263 H   0  0  0  0  0  0  0  0  0  0  0  0
   -5.2676   -0.3953    1.4806 H   0  0  0  0  0  0  0  0  0  0  0  0
   -5.3246   -1.6789    0.2648 H   0  0  0  0  0  0  0  0  0  0  0  0
   -4.4029    3.0605   -0.4571 H   0  0  0  0  0  0  0  0  0  0  0  0
   -4.5057    1.8756   -1.7608 H   0  0  0  0  0  0  0  0  0  0  0  0
   -3.6471   -0.6603   -1.1061 H   0  0  0  0  0  0  0  0  0  0  0  0
   -3.0695   -0.8177    0.5663 H   0  0  0  0  0  0  0  0  0  0  0  0
   -8.2694    0.3954   -0.4967 H   0  0  0  0  0  0  0  0  0  0  0  0
   -7.7105    0.0743    1.1478 H   0  0  0  0  0  0  0  0  0  0  0  0
   -8.9033   -1.8375   -0.0275 H   0  0  0  0  0  0  0  0  0  0  0  0
   -7.3325   -2.2921    0.6094 H   0  0  0  0  0  0  0  0  0  0  0  0
   -7.5357   -1.9779   -1.1338 H   0  0  0  0  0  0  0  0  0  0  0  0
   -1.3934   -0.0221   -1.1656 H   0  0  0  0  0  0  0  0  0  0  0  0
   -2.6957    3.4177    1.1127 H   0  0  0  0  0  0  0  0  0  0  0  0
    0.8631    0.8129   -1.1564 H   0  0  0  0  0  0  0  0  0  0  0  0
   -0.3929    4.2583    1.1372 H   0  0  0  0  0  0  0  0  0  0  0  0
    1.8108    4.0732    0.1990 H   0  0  0  0  0  0  0  0  0  0  0  0
    1.7811   -0.7198    1.0721 H   0  0  0  0  0  0  0  0  0  0  0  0
    5.1329   -1.2723   -0.3430 H   0  0  0  0  0  0  0  0  0  0  0  0
    4.4188   -3.3102   -1.1904 H   0  0  0  0  0  0  0  0  0  0  0  0
    2.6622   -5.0618   -1.2605 H   0  0  0  0  0  0  0  0  0  0  0  0
   -0.9263   -2.0506    1.5127 H   0  0  0  0  0  0  0  0  0  0  0  0
   -0.0641   -5.5061   -0.3630 H   0  0  0  0  0  0  0  0  0  0  0  0
    6.1242    3.2173    0.0591 H   0  0  0  0  0  0  0  0  0  0  0  0
  1 31  1  0  0  0  0
  2 10  1  0  0  0  0
  2 11  1  0  0  0  0
  2 14  1  0  0  0  0
  3 12  1  0  0  0  0
  3 13  1  0  0  0  0
  3 15  1  0  0  0  0
  4 21  1  0  0  0  0
  4 22  1  0  0  0  0
  4 50  1  0  0  0  0
  5 24  1  0  0  0  0
  5 27  1  0  0  0  0
  5 52  1  0  0  0  0
  6 22  1  0  0  0  0
  6 27  2  0  0  0  0
  7  9  1  0  0  0  0
  7 25  1  0  0  0  0
  7 56  1  0  0  0  0
  8 22  2  0  0  0  0
  8 32  1  0  0  0  0
  9 30  2  0  0  0  0
 10 12  1  0  0  0  0
 10 33  1  0  0  0  0
 10 34  1  0  0  0  0
 11 13  1  0  0  0  0
 11 35  1  0  0  0  0
 11 36  1  0  0  0  0
 12 37  1  0  0  0  0
 12 38  1  0  0  0  0
 13 39  1  0  0  0  0
 13 40  1  0  0  0  0
 14 16  1  0  0  0  0
 14 41  1  0  0  0  0
 14 42  1  0  0  0  0
 15 17  2  0  0  0  0
 15 18  1  0  0  0  0
 16 43  1  0  0  0  0
 16 44  1  0  0  0  0
 16 45  1  0  0  0  0
 17 19  1  0  0  0  0
 17 46  1  0  0  0  0
 18 20  2  0  0  0  0
 18 47  1  0  0  0  0
 19 21  2  0  0  0  0
 19 48  1  0  0  0  0
 20 21  1  0  0  0  0
 20 49  1  0  0  0  0
 23 25  2  0  0  0  0
 23 26  1  0  0  0  0
 23 30  1  0  0  0  0
 24 26  2  0  0  0  0
 24 28  1  0  0  0  0
 25 29  1  0  0  0  0
 26 51  1  0  0  0  0
 27 31  1  0  0  0  0
 28 29  2  0  0  0  0
 28 53  1  0  0  0  0
 29 54  1  0  0  0  0
 30 55  1  0  0  0  0
 31 32  2  0  0  0  0
 32 57  1  0  0  0  0
M  END
> <PUBCHEM_COMPOUND_CID>
49830510

> <PUBCHEM_CONFORMER_RMSD>
1

> <PUBCHEM_CONFORMER_DIVERSEORDER>
1
51
62
74
67
5
83
15
64
84
70
35
73
92
14
24
43
6
68
85
31
58
72
54
69
77
52
20
56
18
23
41
13
38
75
65
32
79
47
93
91
39
25
22
87
46
7
95
53
36
55
27
17
66
34
26
50
33
10
89
80
2
16
57
82
29
94
76
37
11
59
81
19
28
78
42
71
49
86
63
9
3
90
44
12
60
88
48
30
61
4
45
8
21
40

> <PUBCHEM_MMFF94_PARTIAL_CHARGES>
42
1 -0.18
10 0.27
11 0.27
12 0.37
13 0.37
14 0.27
15 0.1
17 -0.15
18 -0.15
19 -0.15
2 -0.81
20 -0.15
21 0.1
22 0.72
24 0.1
25 -0.15
26 -0.15
27 0.41
28 -0.15
29 -0.15
3 -0.84
30 0.14
31 0.18
32 0.16
4 -0.6
46 0.15
47 0.15
48 0.15
49 0.15
5 -0.6
50 0.4
51 0.15
52 0.4
53 0.15
54 0.15
55 0.15
56 0.27
57 0.15
6 -0.62
7 0.3
8 -0.62
9 -0.71

> <PUBCHEM_EFFECTIVE_ROTOR_COUNT>
7.2

> <PUBCHEM_PHARMACOPHORE_FEATURES>
12
1 2 cation
1 3 cation
1 4 donor
1 5 donor
1 7 donor
1 9 acceptor
4 4 6 8 22 cation
5 7 9 23 25 30 rings
6 15 17 18 19 20 21 rings
6 2 3 10 11 12 13 rings
6 23 24 25 26 28 29 rings
6 6 8 22 27 31 32 rings

> <PUBCHEM_HEAVY_ATOM_COUNT>
32

> <PUBCHEM_ATOM_DEF_STEREO_COUNT>
0

> <PUBCHEM_ATOM_UDEF_STEREO_COUNT>
0

> <PUBCHEM_BOND_DEF_STEREO_COUNT>
0

> <PUBCHEM_BOND_UDEF_STEREO_COUNT>
0

> <PUBCHEM_ISOTOPIC_ATOM_COUNT>
0

> <PUBCHEM_COMPONENT_COUNT>
1

> <PUBCHEM_CACTVS_TAUTO_COUNT>
18

> <PUBCHEM_CONFORMER_ID>
02F85A6E00000001

> <PUBCHEM_MMFF94_ENERGY>
109.5223

> <PUBCHEM_FEATURE_SELFOVERLAP>
60.992

> <PUBCHEM_SHAPE_FINGERPRINT>
10049733 57 18117013254803474139
10050765 1 18266740174186741989
10316853 100 18408605885408274746
10580692 12 18410012119096955145
10835480 77 18263355907381941845
10864689 126 18337679602783359302
1100329 8 18267020738081265956
11014199 57 17620193131480831826
11513181 2 18272654592491369742
11719270 70 18410287025691868888
13402501 40 18334859424161382810
1361 2 18410012147847780385
13692114 37 18269826666249135002
138480 1 17762056537212580112
14028597 1 17845672408130604537
14394314 77 18341337713167757657
14784336 7 17988075716721122329
14790565 3 18410294743663892069
15320467 1 18410856559650378091
15347590 135 17988352762811630608
15400415 2 18338516455744800389
15483637 11 17977947113514779107
15890870 6 18408042935702942326
15927050 60 18268991054492109519
16067689 134 17404026920915716685
17492 89 18196935465828965892
19930381 70 18265896848187183712
20028762 73 18343865515757634196
20721686 56 18335707130805712451
20764821 26 18193560201634450310
21133410 38 18129398020386161249
21133410 62 18188471533172856607
21133410 90 17489023894279544464
21197605 99 18410576231593991951
23516275 137 17202229428131061543
23559900 14 18121771730237025881
338550 245 18261958573329709485
3882209 13 16963754985552039267
437795 51 18408887343136707327
437795 96 18117571828116882787
5265222 85 18046919447797379269
5309563 4 18123470471100796726
59755656 215 18410015437703350580
653340 110 17548127192379600200

> <PUBCHEM_SHAPE_MULTIPOLES>
620.57
16.2
5.99
0.77
21.63
4.98
0.01
-3.06
-1.09
-4.5
0.21
0.06
0.16
0.69

> <PUBCHEM_SHAPE_SELFOVERLAP>
1345.138

> <PUBCHEM_SHAPE_VOLUME>
337.8

> <PUBCHEM_COORDINATE_TYPE>
2
5
10

$$$$
