10398257
  -OEChem-10052120433D

 24 26  0     0  0  0  0  0  0999 V2000
   -1.2338   -2.8016   -0.0004 O   0  0  0  0  0  0  0  0  0  0  0  0
    0.1079    1.3151   -0.0005 N   0  0  0  0  0  0  0  0  0  0  0  0
    0.6829   -1.6534   -0.0001 N   0  0  0  0  0  0  0  0  0  0  0  0
   -2.1386    1.8138   -0.0002 N   0  0  0  0  0  0  0  0  0  0  0  0
   -3.4738    1.5389    0.0001 N   0  0  0  0  0  0  0  0  0  0  0  0
    1.3743    0.7356    0.0003 C   0  0  0  0  0  0  0  0  0  0  0  0
    1.6383   -0.6287    0.0003 C   0  0  0  0  0  0  0  0  0  0  0  0
   -1.5707   -0.4970    0.0001 C   0  0  0  0  0  0  0  0  0  0  0  0
   -1.1903    0.8335   -0.0003 C   0  0  0  0  0  0  0  0  0  0  0  0
   -0.6901   -1.6900   -0.0001 C   0  0  0  0  0  0  0  0  0  0  0  0
    2.4770    1.6248    0.0001 C   0  0  0  0  0  0  0  0  0  0  0  0
    2.9794   -1.0742    0.0001 C   0  0  0  0  0  0  0  0  0  0  0  0
   -2.9498   -0.7721    0.0004 C   0  0  0  0  0  0  0  0  0  0  0  0
    3.7969    1.1767    0.0001 C   0  0  0  0  0  0  0  0  0  0  0  0
    4.0496   -0.1829   -0.0001 C   0  0  0  0  0  0  0  0  0  0  0  0
   -3.8594    0.2616    0.0003 C   0  0  0  0  0  0  0  0  0  0  0  0
    0.1226    2.3317   -0.0004 H   0  0  0  0  0  0  0  0  0  0  0  0
    1.0882   -2.5878   -0.0003 H   0  0  0  0  0  0  0  0  0  0  0  0
    2.3044    2.7007    0.0000 H   0  0  0  0  0  0  0  0  0  0  0  0
    3.2048   -2.1400   -0.0001 H   0  0  0  0  0  0  0  0  0  0  0  0
   -3.3391   -1.7865    0.0007 H   0  0  0  0  0  0  0  0  0  0  0  0
    4.6162    1.8888    0.0000 H   0  0  0  0  0  0  0  0  0  0  0  0
    5.0700   -0.5530   -0.0002 H   0  0  0  0  0  0  0  0  0  0  0  0
   -4.9274    0.0829    0.0005 H   0  0  0  0  0  0  0  0  0  0  0  0
  1 10  2  0  0  0  0
  2  6  1  0  0  0  0
  2  9  1  0  0  0  0
  2 17  1  0  0  0  0
  3  7  1  0  0  0  0
  3 10  1  0  0  0  0
  3 18  1  0  0  0  0
  4  5  2  0  0  0  0
  4  9  1  0  0  0  0
  5 16  1  0  0  0  0
  6  7  1  0  0  0  0
  6 11  2  0  0  0  0
  7 12  2  0  0  0  0
  8  9  2  0  0  0  0
  8 10  1  0  0  0  0
  8 13  1  0  0  0  0
 11 14  1  0  0  0  0
 11 19  1  0  0  0  0
 12 15  1  0  0  0  0
 12 20  1  0  0  0  0
 13 16  2  0  0  0  0
 13 21  1  0  0  0  0
 14 15  2  0  0  0  0
 14 22  1  0  0  0  0
 15 23  1  0  0  0  0
 16 24  1  0  0  0  0
M  END
> <PUBCHEM_COMPOUND_CID>
10398257

> <PUBCHEM_CONFORMER_RMSD>
0.4

> <PUBCHEM_CONFORMER_DIVERSEORDER>
1

> <PUBCHEM_MMFF94_PARTIAL_CHARGES>
24
1 -0.57
10 0.54
11 -0.15
12 -0.15
13 -0.15
14 -0.15
15 -0.15
16 0.16
17 0.4
18 0.37
19 0.15
2 -0.6
20 0.15
21 0.15
22 0.15
23 0.15
24 0.15
3 -0.55
4 -0.31
5 -0.31
6 0.1
7 0.12
8 0.09
9 0.41

> <PUBCHEM_EFFECTIVE_ROTOR_COUNT>
0.4

> <PUBCHEM_PHARMACOPHORE_FEATURES>
7
1 1 acceptor
1 2 cation
1 2 donor
1 3 donor
6 4 5 8 9 13 16 rings
6 6 7 11 12 14 15 rings
7 2 3 6 7 8 9 10 rings

> <PUBCHEM_HEAVY_ATOM_COUNT>
16

> <PUBCHEM_ATOM_DEF_STEREO_COUNT>
0

> <PUBCHEM_ATOM_UDEF_STEREO_COUNT>
0

> <PUBCHEM_BOND_DEF_STEREO_COUNT>
0

> <PUBCHEM_BOND_UDEF_STEREO_COUNT>
0

> <PUBCHEM_ISOTOPIC_ATOM_COUNT>
0

> <PUBCHEM_COMPONENT_COUNT>
1

> <PUBCHEM_CACTVS_TAUTO_COUNT>
7

> <PUBCHEM_CONFORMER_ID>
009EAA3100000001

> <PUBCHEM_MMFF94_ENERGY>
69.6533

> <PUBCHEM_FEATURE_SELFOVERLAP>
35.535

> <PUBCHEM_SHAPE_FINGERPRINT>
10411042 1 16465020385975877062
10608611 8 18340484573078607624
10616163 171 18267307706310663862
10967382 1 18410573963877061734
11132069 177 18412820309187860680
11471102 20 18411133619611737628
12251169 10 18408317800693140920
13140716 1 18122345945493629834
13221675 6 18410011048214962954
13380535 76 18412825780749582830
14144814 61 18409729560411359792
14325111 11 18410575076094535648
14897335 6 18411416232775854614
15196674 1 18410855460143999054
15309172 13 18410864230815351409
15442244 35 18410007694278203418
15536298 74 18342739594207162774
15775835 57 18408043991763587664
16945 1 18338516468465165030
18186145 218 18342181007624275980
193761 8 17906172106897193957
200 152 18059847373005155725
20510252 161 18272091586771399193
20528008 55 18413103987245508160
20645476 183 17823718514612867438
21267235 1 18410582789956052042
21501502 16 18337950220398931566
21524375 3 18411417289258993487
2334 1 18338516339637225666
23402539 116 18343010099441825836
23402655 69 18343016670736793212
23463225 33 18335420140837363500
23559900 14 18272088306254855848
2748010 2 18337676299879239639
335352 9 18266458711492923294
474 4 17096656607108492380
5104073 3 18410573993799454472
53812653 166 18413666898697178840
54173680 148 18193277622608869643
69090 78 18412822499473527487
7364860 26 18124877858816848558
8809292 202 18335986462493281546
9709674 26 18341899623053050718

> <PUBCHEM_SHAPE_MULTIPOLES>
303.48
6.85
2.21
0.59
1.03
0.67
0
-1.75
0
-0.59
0
0.04
0
0

> <PUBCHEM_SHAPE_SELFOVERLAP>
673.42

> <PUBCHEM_SHAPE_VOLUME>
158.2

> <PUBCHEM_COORDINATE_TYPE>
2
5
10

$$$$
