24905297
  -OEChem-10052115163D

 43 45  0     0  0  0  0  0  0999 V2000
   -4.6901    0.9156    0.4645 O   0  0  0  0  0  0  0  0  0  0  0  0
   -3.5977    0.2925   -2.0139 O   0  0  0  0  0  0  0  0  0  0  0  0
    2.8423    0.9306   -0.4653 N   0  0  0  0  0  0  0  0  0  0  0  0
    1.5919    1.4263   -0.4166 N   0  0  0  0  0  0  0  0  0  0  0  0
    4.0144   -1.1677   -0.1716 N   0  0  0  0  0  0  0  0  0  0  0  0
    2.4859   -2.9835    0.3912 N   0  0  0  0  0  0  0  0  0  0  0  0
    0.1304   -2.6658    0.6099 N   0  0  0  0  0  0  0  0  0  0  0  0
    0.8463    0.3606   -0.1046 C   0  0  0  0  0  0  0  0  0  0  0  0
    1.6103   -0.8117    0.0463 C   0  0  0  0  0  0  0  0  0  0  0  0
    2.9105   -0.4041   -0.1962 C   0  0  0  0  0  0  0  0  0  0  0  0
   -0.5806    0.5021    0.0394 C   0  0  0  0  0  0  0  0  0  0  0  0
    3.9442    1.8081   -0.7815 C   0  0  0  0  0  0  0  0  0  0  0  0
    1.4149   -2.1551    0.3491 C   0  0  0  0  0  0  0  0  0  0  0  0
   -1.4135    0.3273   -1.0659 C   0  0  0  0  0  0  0  0  0  0  0  0
   -1.1289    0.8147    1.2833 C   0  0  0  0  0  0  0  0  0  0  0  0
   -2.7947    0.4649   -0.9272 C   0  0  0  0  0  0  0  0  0  0  0  0
   -3.3429    0.7777    0.3167 C   0  0  0  0  0  0  0  0  0  0  0  0
   -2.5100    0.9526    1.4218 C   0  0  0  0  0  0  0  0  0  0  0  0
    4.7120    2.2271    0.4375 C   0  0  0  0  0  0  0  0  0  0  0  0
    3.7018   -2.4459    0.1320 C   0  0  0  0  0  0  0  0  0  0  0  0
   -5.3345    0.0373    1.3851 C   0  0  0  0  0  0  0  0  0  0  0  0
    6.0238    2.0215    0.6005 C   0  0  0  0  0  0  0  0  0  0  0  0
   -6.7585   -0.1975    0.9283 C   0  0  0  0  0  0  0  0  0  0  0  0
   -4.0772   -1.0275   -2.2627 C   0  0  0  0  0  0  0  0  0  0  0  0
    4.5787    1.2881   -1.5087 H   0  0  0  0  0  0  0  0  0  0  0  0
    3.5391    2.6956   -1.2815 H   0  0  0  0  0  0  0  0  0  0  0  0
   -0.9946    0.0838   -2.0401 H   0  0  0  0  0  0  0  0  0  0  0  0
   -0.4933    0.9556    2.1543 H   0  0  0  0  0  0  0  0  0  0  0  0
   -2.9220    1.2046    2.3952 H   0  0  0  0  0  0  0  0  0  0  0  0
    4.1650    2.7423    1.2232 H   0  0  0  0  0  0  0  0  0  0  0  0
    4.5371   -3.1367    0.1743 H   0  0  0  0  0  0  0  0  0  0  0  0
   -0.6863   -2.0732    0.5844 H   0  0  0  0  0  0  0  0  0  0  0  0
    0.0327   -3.6490    0.8251 H   0  0  0  0  0  0  0  0  0  0  0  0
   -4.8110   -0.9253    1.4421 H   0  0  0  0  0  0  0  0  0  0  0  0
   -5.3336    0.4995    2.3781 H   0  0  0  0  0  0  0  0  0  0  0  0
    6.5242    2.3554    1.5028 H   0  0  0  0  0  0  0  0  0  0  0  0
    6.6172    1.5195   -0.1557 H   0  0  0  0  0  0  0  0  0  0  0  0
   -7.3032    0.7501    0.8623 H   0  0  0  0  0  0  0  0  0  0  0  0
   -6.7753   -0.6437   -0.0714 H   0  0  0  0  0  0  0  0  0  0  0  0
   -7.2865   -0.8604    1.6194 H   0  0  0  0  0  0  0  0  0  0  0  0
   -4.7498   -0.9913   -3.1240 H   0  0  0  0  0  0  0  0  0  0  0  0
   -4.6325   -1.4099   -1.4009 H   0  0  0  0  0  0  0  0  0  0  0  0
   -3.2434   -1.6967   -2.4974 H   0  0  0  0  0  0  0  0  0  0  0  0
  1 17  1  0  0  0  0
  1 21  1  0  0  0  0
  2 16  1  0  0  0  0
  2 24  1  0  0  0  0
  3  4  1  0  0  0  0
  3 10  1  0  0  0  0
  3 12  1  0  0  0  0
  4  8  2  0  0  0  0
  5 10  2  0  0  0  0
  5 20  1  0  0  0  0
  6 13  1  0  0  0  0
  6 20  2  0  0  0  0
  7 13  1  0  0  0  0
  7 32  1  0  0  0  0
  7 33  1  0  0  0  0
  8  9  1  0  0  0  0
  8 11  1  0  0  0  0
  9 10  1  0  0  0  0
  9 13  2  0  0  0  0
 11 14  2  0  0  0  0
 11 15  1  0  0  0  0
 12 19  1  0  0  0  0
 12 25  1  0  0  0  0
 12 26  1  0  0  0  0
 14 16  1  0  0  0  0
 14 27  1  0  0  0  0
 15 18  2  0  0  0  0
 15 28  1  0  0  0  0
 16 17  2  0  0  0  0
 17 18  1  0  0  0  0
 18 29  1  0  0  0  0
 19 22  2  0  0  0  0
 19 30  1  0  0  0  0
 20 31  1  0  0  0  0
 21 23  1  0  0  0  0
 21 34  1  0  0  0  0
 21 35  1  0  0  0  0
 22 36  1  0  0  0  0
 22 37  1  0  0  0  0
 23 38  1  0  0  0  0
 23 39  1  0  0  0  0
 23 40  1  0  0  0  0
 24 41  1  0  0  0  0
 24 42  1  0  0  0  0
 24 43  1  0  0  0  0
M  END
> <PUBCHEM_COMPOUND_CID>
24905297

> <PUBCHEM_CONFORMER_RMSD>
0.8

> <PUBCHEM_CONFORMER_DIVERSEORDER>
1
8
9
6
19
16
18
22
27
20
26
12
23
11
10
14
13
2
21
25
3
15
5
24
17
7
4

> <PUBCHEM_MMFF94_PARTIAL_CHARGES>
31
1 -0.36
10 0.11
11 0.05
12 0.39
13 0.41
14 -0.15
15 -0.15
16 0.08
17 0.08
18 -0.15
19 -0.29
2 -0.36
20 0.47
21 0.28
22 -0.3
24 0.28
27 0.15
28 0.15
29 0.15
3 0.31
30 0.15
31 0.15
32 0.4
33 0.4
36 0.15
37 0.15
4 -0.71
5 -0.57
6 -0.62
7 -0.9
8 0.23

> <PUBCHEM_EFFECTIVE_ROTOR_COUNT>
6

> <PUBCHEM_PHARMACOPHORE_FEATURES>
11
1 1 acceptor
1 2 acceptor
1 22 hydrophobe
1 4 acceptor
1 7 cation
1 7 donor
3 3 5 10 cation
3 5 6 20 cation
5 3 4 8 9 10 rings
6 11 14 15 16 17 18 rings
6 5 6 9 10 13 20 rings

> <PUBCHEM_HEAVY_ATOM_COUNT>
24

> <PUBCHEM_ATOM_DEF_STEREO_COUNT>
0

> <PUBCHEM_ATOM_UDEF_STEREO_COUNT>
0

> <PUBCHEM_BOND_DEF_STEREO_COUNT>
0

> <PUBCHEM_BOND_UDEF_STEREO_COUNT>
0

> <PUBCHEM_ISOTOPIC_ATOM_COUNT>
0

> <PUBCHEM_COMPONENT_COUNT>
1

> <PUBCHEM_CACTVS_TAUTO_COUNT>
5

> <PUBCHEM_CONFORMER_ID>
017C065100000001

> <PUBCHEM_MMFF94_ENERGY>
73.3827

> <PUBCHEM_FEATURE_SELFOVERLAP>
56.104

> <PUBCHEM_SHAPE_FINGERPRINT>
11578080 2 18125698137842314976
12236239 1 17988928851064058809
12403259 415 17967534545088814829
12596602 18 18059868250941148985
12616971 3 18201153265347260519
12730499 353 18334868229055336128
12788726 201 17346611733471648897
13009979 54 17629202602831405426
13140716 1 18335703862768084402
13533116 47 18339933631594997563
13631057 29 17983845955006771503
13726171 33 16844734277626275609
13911987 19 18116437127537142564
14341114 328 18060422413090892651
15375462 189 18202279169981528587
15537594 2 18059858389506546933
15961568 22 15647919139151267598
17138139 8 17697003162255227678
1813 80 17839756867879767934
19377110 9 18272362092353818753
200 152 18338800005421764913
204376 136 18335140951231887588
20645477 70 18114467773119364538
21033648 29 17385721361665322429
22079108 93 18340493364586564329
22182313 1 17603867775719779943
22224240 67 18337109081071659328
23557571 272 16660652808606898407
23559900 14 15937251084874424506
283562 15 17689148333492185722
33824 294 18334018272286519778
42630746 31 18410579479010754272
4340502 62 18410298042419788992
4409770 3 16178725140823501241
474 4 18340769338322351784
5104073 3 18261680259844834337
59755656 520 18341615970706846902
7399639 24 18040149604591718917
77492 1 18060135388589180588

> <PUBCHEM_SHAPE_MULTIPOLES>
457.27
12.79
2.56
1.43
6.82
1.72
-0.56
-4.44
2
-4.48
0.47
2.28
0
-0.77

> <PUBCHEM_SHAPE_SELFOVERLAP>
986.534

> <PUBCHEM_SHAPE_VOLUME>
251.5

> <PUBCHEM_COORDINATE_TYPE>
2
5
10

$$$$
