49830534
  -OEChem-10062121553D

 75 79  0     1  0  0  0  0  0999 V2000
    6.5126   -1.8276   -0.5848 O   0  0  0  0  0  0  0  0  0  0  0  0
   -5.5925    1.8755    0.6855 O   0  0  0  0  0  0  0  0  0  0  0  0
   -1.4414    4.5026   -0.5733 O   0  0  0  0  0  0  0  0  0  0  0  0
    3.0486   -1.1556   -0.1576 N   0  0  0  0  0  0  0  0  0  0  0  0
    5.4725    0.2275   -0.2751 N   0  0  0  0  0  0  0  0  0  0  0  0
    1.8627    0.8994    0.0994 N   0  0  0  0  0  0  0  0  0  0  0  0
   -4.8376   -0.3152    0.5974 N   0  0  0  0  0  0  0  0  0  0  0  0
    3.0237    2.9974    0.1804 N   0  0  0  0  0  0  0  0  0  0  0  0
    0.6890    2.9154    0.3470 N   0  0  0  0  0  0  0  0  0  0  0  0
    1.7919   -1.8577   -0.1828 C   0  0  0  0  0  0  0  0  0  0  0  0
    1.9839   -3.3511   -0.4035 C   0  0  0  0  0  0  0  0  0  0  0  0
    0.9505   -1.4476   -1.3822 C   0  0  0  0  0  0  0  0  0  0  0  0
    0.6300   -3.8242   -0.9213 C   0  0  0  0  0  0  0  0  0  0  0  0
   -0.0310   -2.6013   -1.5597 C   0  0  0  0  0  0  0  0  0  0  0  0
    4.2623   -1.8832    0.1855 C   0  0  2  0  0  0  0  0  0  0  0  0
    3.0397    0.2316   -0.0310 C   0  0  0  0  0  0  0  0  0  0  0  0
    4.3520   -2.1166    1.6933 C   0  0  0  0  0  0  0  0  0  0  0  0
    5.5120   -1.1661   -0.2940 C   0  0  0  0  0  0  0  0  0  0  0  0
    4.2487    0.9260   -0.0754 C   0  0  0  0  0  0  0  0  0  0  0  0
   -6.1395   -0.9431    0.6382 C   0  0  0  0  0  0  0  0  0  0  0  0
   -6.7212   -1.0970   -0.7711 C   0  0  0  0  0  0  0  0  0  0  0  0
   -6.0786   -2.2912    1.3643 C   0  0  0  0  0  0  0  0  0  0  0  0
   -6.0026   -2.1723   -1.5862 C   0  0  0  0  0  0  0  0  0  0  0  0
   -5.3609   -3.3645    0.5456 C   0  0  0  0  0  0  0  0  0  0  0  0
   -5.9646   -3.5069   -0.8481 C   0  0  0  0  0  0  0  0  0  0  0  0
    5.6078   -2.8826    2.0595 C   0  0  0  0  0  0  0  0  0  0  0  0
    4.1733    2.3105    0.0344 C   0  0  0  0  0  0  0  0  0  0  0  0
    6.6947    0.9876   -0.5177 C   0  0  0  0  0  0  0  0  0  0  0  0
    1.9202    2.2396    0.2024 C   0  0  0  0  0  0  0  0  0  0  0  0
   -4.6459    1.0711    0.6240 C   0  0  0  0  0  0  0  0  0  0  0  0
   -3.2743    1.5493    0.5513 C   0  0  0  0  0  0  0  0  0  0  0  0
   -0.6429    2.4652    0.4104 C   0  0  0  0  0  0  0  0  0  0  0  0
   -1.6864    3.2678   -0.0507 C   0  0  0  0  0  0  0  0  0  0  0  0
   -3.0021    2.8098    0.0197 C   0  0  0  0  0  0  0  0  0  0  0  0
   -2.2309    0.7466    1.0123 C   0  0  0  0  0  0  0  0  0  0  0  0
   -0.9152    1.2045    0.9417 C   0  0  0  0  0  0  0  0  0  0  0  0
   -1.2084    4.5762   -1.9782 C   0  0  0  0  0  0  0  0  0  0  0  0
    1.2344   -1.7011    0.7509 H   0  0  0  0  0  0  0  0  0  0  0  0
    2.7046   -3.5665   -1.2018 H   0  0  0  0  0  0  0  0  0  0  0  0
    2.2805   -3.9005    0.4943 H   0  0  0  0  0  0  0  0  0  0  0  0
    0.4060   -0.5090   -1.2572 H   0  0  0  0  0  0  0  0  0  0  0  0
    1.5691   -1.3501   -2.2840 H   0  0  0  0  0  0  0  0  0  0  0  0
    0.0114   -4.1863   -0.0917 H   0  0  0  0  0  0  0  0  0  0  0  0
    0.7364   -4.6486   -1.6338 H   0  0  0  0  0  0  0  0  0  0  0  0
   -0.2607   -2.7688   -2.6168 H   0  0  0  0  0  0  0  0  0  0  0  0
   -0.9761   -2.3821   -1.0489 H   0  0  0  0  0  0  0  0  0  0  0  0
    4.3166   -2.8462   -0.3292 H   0  0  0  0  0  0  0  0  0  0  0  0
    3.4793   -2.6773    2.0460 H   0  0  0  0  0  0  0  0  0  0  0  0
    4.3476   -1.1662    2.2416 H   0  0  0  0  0  0  0  0  0  0  0  0
   -6.8012   -0.2791    1.2081 H   0  0  0  0  0  0  0  0  0  0  0  0
   -7.7818   -1.3678   -0.6902 H   0  0  0  0  0  0  0  0  0  0  0  0
   -6.6788   -0.1439   -1.3116 H   0  0  0  0  0  0  0  0  0  0  0  0
   -7.1013   -2.6312    1.5714 H   0  0  0  0  0  0  0  0  0  0  0  0
   -5.5783   -2.1790    2.3338 H   0  0  0  0  0  0  0  0  0  0  0  0
   -4.9787   -1.8468   -1.8072 H   0  0  0  0  0  0  0  0  0  0  0  0
   -6.5085   -2.3004   -2.5499 H   0  0  0  0  0  0  0  0  0  0  0  0
   -5.4246   -4.3249    1.0702 H   0  0  0  0  0  0  0  0  0  0  0  0
   -4.2944   -3.1250    0.4615 H   0  0  0  0  0  0  0  0  0  0  0  0
   -5.3849   -4.2333   -1.4287 H   0  0  0  0  0  0  0  0  0  0  0  0
   -6.9832   -3.9055   -0.7646 H   0  0  0  0  0  0  0  0  0  0  0  0
    6.5105   -2.2753    1.9442 H   0  0  0  0  0  0  0  0  0  0  0  0
    5.5624   -3.1810    3.1126 H   0  0  0  0  0  0  0  0  0  0  0  0
    5.7132   -3.7943    1.4629 H   0  0  0  0  0  0  0  0  0  0  0  0
    5.0530    2.9448    0.0082 H   0  0  0  0  0  0  0  0  0  0  0  0
    6.9295    1.5888    0.3661 H   0  0  0  0  0  0  0  0  0  0  0  0
    6.5593    1.6292   -1.3940 H   0  0  0  0  0  0  0  0  0  0  0  0
    7.5436    0.3251   -0.7091 H   0  0  0  0  0  0  0  0  0  0  0  0
   -4.0414   -0.9221    0.4355 H   0  0  0  0  0  0  0  0  0  0  0  0
    0.7874    3.9239    0.2786 H   0  0  0  0  0  0  0  0  0  0  0  0
   -3.8061    3.4438   -0.3467 H   0  0  0  0  0  0  0  0  0  0  0  0
   -2.4028   -0.2238    1.4692 H   0  0  0  0  0  0  0  0  0  0  0  0
   -0.1433    0.5687    1.3620 H   0  0  0  0  0  0  0  0  0  0  0  0
   -0.3399    3.9727   -2.2601 H   0  0  0  0  0  0  0  0  0  0  0  0
   -2.0925    4.2422   -2.5305 H   0  0  0  0  0  0  0  0  0  0  0  0
   -1.0077    5.6192   -2.2377 H   0  0  0  0  0  0  0  0  0  0  0  0
  1 18  2  0  0  0  0
  2 30  2  0  0  0  0
  3 33  1  0  0  0  0
  3 37  1  0  0  0  0
  4 10  1  0  0  0  0
  4 15  1  0  0  0  0
  4 16  1  0  0  0  0
  5 18  1  0  0  0  0
  5 19  1  0  0  0  0
  5 28  1  0  0  0  0
  6 16  2  0  0  0  0
  6 29  1  0  0  0  0
  7 20  1  0  0  0  0
  7 30  1  0  0  0  0
  7 68  1  0  0  0  0
  8 27  1  0  0  0  0
  8 29  2  0  0  0  0
  9 29  1  0  0  0  0
  9 32  1  0  0  0  0
  9 69  1  0  0  0  0
 10 11  1  0  0  0  0
 10 12  1  0  0  0  0
 10 38  1  0  0  0  0
 11 13  1  0  0  0  0
 11 39  1  0  0  0  0
 11 40  1  0  0  0  0
 12 14  1  0  0  0  0
 12 41  1  0  0  0  0
 12 42  1  0  0  0  0
 13 14  1  0  0  0  0
 13 43  1  0  0  0  0
 13 44  1  0  0  0  0
 14 45  1  0  0  0  0
 14 46  1  0  0  0  0
 15 17  1  0  0  0  0
 15 18  1  0  0  0  0
 15 47  1  0  0  0  0
 16 19  1  0  0  0  0
 17 26  1  0  0  0  0
 17 48  1  0  0  0  0
 17 49  1  0  0  0  0
 19 27  2  0  0  0  0
 20 21  1  0  0  0  0
 20 22  1  0  0  0  0
 20 50  1  0  0  0  0
 21 23  1  0  0  0  0
 21 51  1  0  0  0  0
 21 52  1  0  0  0  0
 22 24  1  0  0  0  0
 22 53  1  0  0  0  0
 22 54  1  0  0  0  0
 23 25  1  0  0  0  0
 23 55  1  0  0  0  0
 23 56  1  0  0  0  0
 24 25  1  0  0  0  0
 24 57  1  0  0  0  0
 24 58  1  0  0  0  0
 25 59  1  0  0  0  0
 25 60  1  0  0  0  0
 26 61  1  0  0  0  0
 26 62  1  0  0  0  0
 26 63  1  0  0  0  0
 27 64  1  0  0  0  0
 28 65  1  0  0  0  0
 28 66  1  0  0  0  0
 28 67  1  0  0  0  0
 30 31  1  0  0  0  0
 31 34  2  0  0  0  0
 31 35  1  0  0  0  0
 32 33  2  0  0  0  0
 32 36  1  0  0  0  0
 33 34  1  0  0  0  0
 34 70  1  0  0  0  0
 35 36  2  0  0  0  0
 35 71  1  0  0  0  0
 36 72  1  0  0  0  0
 37 73  1  0  0  0  0
 37 74  1  0  0  0  0
 37 75  1  0  0  0  0
M  END
> <PUBCHEM_COMPOUND_CID>
49830534

> <PUBCHEM_CONFORMER_RMSD>
1.2

> <PUBCHEM_CONFORMER_DIVERSEORDER>
1
185
109
24
68
165
134
45
146
43
71
65
188
4
10
136
32
172
56
178
152
132
115
23
55
131
141
97
53
184
129
42
187
2
142
160
147
113
8
148
17
90
25
87
47
48
180
149
94
34
40
119
175
13
126
59
106
163
83
157
191
135
85
144
111
186
14
108
20
44
51
158
168
121
190
79
101
61
88
18
159
139
41
19
107
176
192
81
22
30
114
35
123
72
154
50
12
76
78
173
92
130
15
182
112
82
177
170
69
46
96
39
11
29
116
122
153
5
73
120
151
104
174
179
74
164
105
99
162
80
183
7
84
193
93
161
138
67
28
167
58
75
150
124
181
3
91
127
118
145
117
38
9
156
37
125
100
70
33
166
103
6
110
64
49
66
133
89
98
102
169
16
194
52
143
137
140
95
128
27
155
171
31
57
62
63
21
54
189
36
26
60
86
77

> <PUBCHEM_MMFF94_PARTIAL_CHARGES>
32
1 -0.57
10 0.37
15 0.43
16 0.41
18 0.57
19 0.12
2 -0.57
20 0.3
27 0.16
28 0.3
29 0.72
3 -0.36
30 0.54
31 0.09
32 0.1
33 0.08
34 -0.15
35 -0.15
36 -0.15
37 0.28
4 -0.84
5 -0.48
6 -0.62
64 0.15
68 0.37
69 0.4
7 -0.73
70 0.15
71 0.15
72 0.15
8 -0.62
9 -0.6

> <PUBCHEM_EFFECTIVE_ROTOR_COUNT>
10.8

> <PUBCHEM_PHARMACOPHORE_FEATURES>
12
1 1 acceptor
1 2 acceptor
1 26 hydrophobe
1 3 acceptor
1 7 donor
1 9 donor
4 6 8 9 29 cation
5 10 11 12 13 14 rings
6 20 21 22 23 24 25 rings
6 31 32 33 34 35 36 rings
6 4 5 15 16 18 19 rings
6 6 8 16 19 27 29 rings

> <PUBCHEM_HEAVY_ATOM_COUNT>
37

> <PUBCHEM_ATOM_DEF_STEREO_COUNT>
0

> <PUBCHEM_ATOM_UDEF_STEREO_COUNT>
1

> <PUBCHEM_BOND_DEF_STEREO_COUNT>
0

> <PUBCHEM_BOND_UDEF_STEREO_COUNT>
0

> <PUBCHEM_ISOTOPIC_ATOM_COUNT>
0

> <PUBCHEM_COMPONENT_COUNT>
1

> <PUBCHEM_CACTVS_TAUTO_COUNT>
18

> <PUBCHEM_CONFORMER_ID>
02F85A8600000001

> <PUBCHEM_MMFF94_ENERGY>
122.6422

> <PUBCHEM_FEATURE_SELFOVERLAP>
60.927

> <PUBCHEM_SHAPE_FINGERPRINT>
10622 236 17969490512135332930
10675989 125 15895576733749806743
10677394 325 17754464778637858828
11136131 41 17976247255785062032
117089 54 17831586736529927675
11963148 33 18335135397586064154
12422481 6 17632297882661065279
131258 38 18187919531334048754
1361 2 18194965364562769673
1361 4 18411702054581384626
15001296 14 18340199816704613370
15264996 151 18188768487317229043
15264996 55 17326892877038425115
15274700 208 16628549453289578832
15320467 1 18412266151217766567
15361156 5 18115326500338772953
15968369 153 18130497643292904026
18681886 176 18267306427317563104
20028762 73 18131353003331591470
21197605 99 18271250541917348670
23559900 14 17474952022323567838
373842 8 18339924926055568995
392239 28 18341902904814402383
4280585 95 18337100195264001475
439807 62 18334580148883232587
484989 97 18342184341320620934
50009960 94 18116129152559078418
5309563 4 18411984663245293401
6431902 208 18339363063145377643

> <PUBCHEM_SHAPE_MULTIPOLES>
713.95
17.43
6.04
1.38
7.99
2.34
0.03
-12.68
-1.63
2.61
1.42
0.28
-0.61
-1.37

> <PUBCHEM_SHAPE_SELFOVERLAP>
1527.459

> <PUBCHEM_SHAPE_VOLUME>
390.4

> <PUBCHEM_COORDINATE_TYPE>
2
5
10

$$$$
