4323109
  -OEChem-10052115193D

 42 45  0     0  0  0  0  0  0999 V2000
    3.6225   -1.5247   -0.4544 O   0  0  0  0  0  0  0  0  0  0  0  0
    3.9974    1.2712   -1.0016 O   0  0  0  0  0  0  0  0  0  0  0  0
   -4.4455   -1.5311   -0.8421 O   0  0  0  0  0  0  0  0  0  0  0  0
    0.2187   -0.8437   -0.0260 N   0  0  0  0  0  0  0  0  0  0  0  0
    1.1279    1.7800    0.0666 N   0  0  0  0  0  0  0  0  0  0  0  0
   -4.3020    0.7242   -0.2696 N   0  0  0  0  0  0  0  0  0  0  0  0
   -6.2411   -0.5523    0.2425 N   0  0  0  0  0  0  0  0  0  0  0  0
   -0.6476    0.1839   -0.0622 C   0  0  0  0  0  0  0  0  0  0  0  0
   -0.1872    1.5125   -0.0154 C   0  0  0  0  0  0  0  0  0  0  0  0
    1.5300   -0.5551    0.0560 C   0  0  0  0  0  0  0  0  0  0  0  0
    1.9781    0.7383    0.1018 C   0  0  0  0  0  0  0  0  0  0  0  0
   -2.9356    0.9915   -0.1859 C   0  0  0  0  0  0  0  0  0  0  0  0
   -2.0171   -0.0560   -0.1469 C   0  0  0  0  0  0  0  0  0  0  0  0
   -1.1134    2.5522   -0.0551 C   0  0  0  0  0  0  0  0  0  0  0  0
   -2.4817    2.3013   -0.1399 C   0  0  0  0  0  0  0  0  0  0  0  0
    2.3921   -1.7076    0.0877 C   0  0  0  0  0  0  0  0  0  0  0  0
    3.3673    1.1061    0.1887 C   0  0  0  0  0  0  0  0  0  0  0  0
    2.2499   -2.9904    0.5549 C   0  0  0  0  0  0  0  0  0  0  0  0
    4.2281    1.3344    1.2331 C   0  0  0  0  0  0  0  0  0  0  0  0
   -4.9463   -0.5296   -0.3259 C   0  0  0  0  0  0  0  0  0  0  0  0
    3.4758   -3.6431    0.2824 C   0  0  0  0  0  0  0  0  0  0  0  0
    5.4740    1.6626    0.6473 C   0  0  0  0  0  0  0  0  0  0  0  0
    4.2773   -2.7091   -0.3319 C   0  0  0  0  0  0  0  0  0  0  0  0
    5.2815    1.6106   -0.7137 C   0  0  0  0  0  0  0  0  0  0  0  0
   -7.0617   -1.7567    0.2534 C   0  0  0  0  0  0  0  0  0  0  0  0
   -6.8413    0.6305    0.8561 C   0  0  0  0  0  0  0  0  0  0  0  0
   -2.3277   -1.0956   -0.1548 H   0  0  0  0  0  0  0  0  0  0  0  0
   -0.7709    3.5846   -0.0197 H   0  0  0  0  0  0  0  0  0  0  0  0
   -3.1759    3.1370   -0.1686 H   0  0  0  0  0  0  0  0  0  0  0  0
   -4.8989    1.5458   -0.2363 H   0  0  0  0  0  0  0  0  0  0  0  0
    1.3773   -3.4115    1.0339 H   0  0  0  0  0  0  0  0  0  0  0  0
    3.9946    1.2729    2.2866 H   0  0  0  0  0  0  0  0  0  0  0  0
    3.7421   -4.6659    0.5061 H   0  0  0  0  0  0  0  0  0  0  0  0
    6.3968    1.9061    1.1536 H   0  0  0  0  0  0  0  0  0  0  0  0
    5.2848   -2.7280   -0.7210 H   0  0  0  0  0  0  0  0  0  0  0  0
    5.9228    1.7783   -1.5665 H   0  0  0  0  0  0  0  0  0  0  0  0
   -7.2564   -2.0416    1.2913 H   0  0  0  0  0  0  0  0  0  0  0  0
   -6.5584   -2.5833   -0.2542 H   0  0  0  0  0  0  0  0  0  0  0  0
   -8.0057   -1.5447   -0.2567 H   0  0  0  0  0  0  0  0  0  0  0  0
   -7.6751    0.3391    1.5019 H   0  0  0  0  0  0  0  0  0  0  0  0
   -7.2088    1.2852    0.0606 H   0  0  0  0  0  0  0  0  0  0  0  0
   -6.1061    1.1648    1.4641 H   0  0  0  0  0  0  0  0  0  0  0  0
  1 16  1  0  0  0  0
  1 23  1  0  0  0  0
  2 17  1  0  0  0  0
  2 24  1  0  0  0  0
  3 20  2  0  0  0  0
  4  8  1  0  0  0  0
  4 10  2  0  0  0  0
  5  9  1  0  0  0  0
  5 11  2  0  0  0  0
  6 12  1  0  0  0  0
  6 20  1  0  0  0  0
  6 30  1  0  0  0  0
  7 20  1  0  0  0  0
  7 25  1  0  0  0  0
  7 26  1  0  0  0  0
  8  9  2  0  0  0  0
  8 13  1  0  0  0  0
  9 14  1  0  0  0  0
 10 11  1  0  0  0  0
 10 16  1  0  0  0  0
 11 17  1  0  0  0  0
 12 13  2  0  0  0  0
 12 15  1  0  0  0  0
 13 27  1  0  0  0  0
 14 15  2  0  0  0  0
 14 28  1  0  0  0  0
 15 29  1  0  0  0  0
 16 18  2  0  0  0  0
 17 19  2  0  0  0  0
 18 21  1  0  0  0  0
 18 31  1  0  0  0  0
 19 22  1  0  0  0  0
 19 32  1  0  0  0  0
 21 23  2  0  0  0  0
 21 33  1  0  0  0  0
 22 24  2  0  0  0  0
 22 34  1  0  0  0  0
 23 35  1  0  0  0  0
 24 36  1  0  0  0  0
 25 37  1  0  0  0  0
 25 38  1  0  0  0  0
 25 39  1  0  0  0  0
 26 40  1  0  0  0  0
 26 41  1  0  0  0  0
 26 42  1  0  0  0  0
M  END
> <PUBCHEM_COMPOUND_CID>
4323109

> <PUBCHEM_CONFORMER_RMSD>
0.8

> <PUBCHEM_CONFORMER_DIVERSEORDER>
2
26
30
21
19
9
23
6
25
3
15
31
27
4
33
20
35
10
13
16
36
14
5
17
32
7
12
34
18
22
8
28
24
1
29
11

> <PUBCHEM_MMFF94_PARTIAL_CHARGES>
36
1 -0.28
10 0.36
11 0.36
12 0.12
13 -0.15
14 -0.15
15 -0.15
16 0.09
17 0.09
18 -0.15
19 -0.15
2 -0.28
20 0.69
21 -0.15
22 -0.15
23 -0.01
24 -0.01
25 0.3
26 0.3
27 0.15
28 0.15
29 0.15
3 -0.57
30 0.37
31 0.15
32 0.15
33 0.15
34 0.15
35 0.15
36 0.15
4 -0.62
5 -0.62
6 -0.55
7 -0.66
8 0.31
9 0.31

> <PUBCHEM_EFFECTIVE_ROTOR_COUNT>
5

> <PUBCHEM_PHARMACOPHORE_FEATURES>
10
1 1 acceptor
1 2 acceptor
1 3 acceptor
1 4 acceptor
1 5 acceptor
1 6 donor
5 1 16 18 21 23 rings
5 2 17 19 22 24 rings
6 4 5 8 9 10 11 rings
6 8 9 12 13 14 15 rings

> <PUBCHEM_HEAVY_ATOM_COUNT>
26

> <PUBCHEM_ATOM_DEF_STEREO_COUNT>
0

> <PUBCHEM_ATOM_UDEF_STEREO_COUNT>
0

> <PUBCHEM_BOND_DEF_STEREO_COUNT>
0

> <PUBCHEM_BOND_UDEF_STEREO_COUNT>
0

> <PUBCHEM_ISOTOPIC_ATOM_COUNT>
0

> <PUBCHEM_COMPONENT_COUNT>
1

> <PUBCHEM_CACTVS_TAUTO_COUNT>
3

> <PUBCHEM_CONFORMER_ID>
0041F72500000002

> <PUBCHEM_MMFF94_ENERGY>
70.2819

> <PUBCHEM_FEATURE_SELFOVERLAP>
50.793

> <PUBCHEM_SHAPE_FINGERPRINT>
10050765 1 18266177231942131280
10090160 65 18187920716100690438
10835480 77 18335129870348464477
10906281 52 18115600368621934161
11135926 11 18339349851039920662
11405975 8 18196088833212174185
11475781 23 17096066001991975597
11963148 33 18263073473899991507
12107183 9 17910401580806831089
12236239 1 17988928873145284017
12293681 25 17968115113045772242
12596602 18 17274825817547584105
12730499 353 18412266164070292608
12788726 201 17346608443626705961
13009979 54 17701540593798268122
13073987 5 18413110546420172689
13140716 1 18052812843149240776
13150687 139 18043270109862152340
13533116 47 18341895164686853043
13540713 4 18192415390892060636
14251764 18 18130791170992137665
14341114 176 18411704266637105181
14863182 85 18408045130383595646
15196674 1 18338796719740498573
15537594 2 18201153343131477855
1577012 14 18060702785052227515
16110190 28 18343582937206943639
16994733 274 15409750662027264122
17492 89 18266455404210128746
1813 80 17675926486950488685
19377110 9 18342174449251335633
20286276 3 18194966227534528972
20567600 347 18260544533416425186
20691752 17 17458915803972509360
21065198 48 18201160966893743297
21267235 1 18340773641752702478
21344244 181 17703528657140722390
21344244 246 18269850735900438334
21421861 104 18334845100688622250
21521721 280 18198345254648254888
21623969 137 18187932819608889139
21792934 111 18340195281662423113
221490 88 18337953359872357834
22149856 69 18338250314391342833
22224240 67 18341044237688139320
22311459 1 18337953501337727444
22393880 68 17751352885578200063
22950370 63 18411983551280676207
22956985 138 17826214222042179234
23366157 5 18042407929167302922
23516275 137 17344659051997128462
23522609 53 18126877987054648817
23559900 14 18124019140546220272
24771750 20 17536045698605758589
25222932 49 18271241746051200063
312423 11 18199472073550887232
314194 84 18341608244287729327
350125 39 18339642231508021708
4073 2 18260835933967786795
4093350 32 17561373867530805647
4340502 62 18410571812393949494
5104073 3 18271241599974663745
5758199 1 18270962461513039168
59755656 215 18409171034543350174
70251023 43 18194689172459182282
7364860 26 18268987593185668898
9709674 26 18334016060103971280

> <PUBCHEM_SHAPE_MULTIPOLES>
497.54
15.3
3.43
0.82
22.5
2.42
0.06
2.74
1.39
-3.98
0.14
-0.31
-0.1
0

> <PUBCHEM_SHAPE_SELFOVERLAP>
1109.937

> <PUBCHEM_SHAPE_VOLUME>
266.5

> <PUBCHEM_COORDINATE_TYPE>
2
5
10

$$$$
