25190453
  -OEChem-10062122013D

 27 29  0     0  0  0  0  0  0999 V2000
    4.7190   -0.9462    0.1850 Cl  0  0  0  0  0  0  0  0  0  0  0  0
    4.0654    1.9249   -0.1052 F   0  0  0  0  0  0  0  0  0  0  0  0
   -3.9599   -0.4099    0.1305 O   0  0  0  0  0  0  0  0  0  0  0  0
   -0.9133    2.6822   -0.1992 O   0  0  0  0  0  0  0  0  0  0  0  0
   -3.8769    1.8883   -0.1044 O   0  0  0  0  0  0  0  0  0  0  0  0
   -0.4520   -1.3692    0.2015 N   0  0  0  0  0  0  0  0  0  0  0  0
   -2.9468   -1.3453    0.1941 N   0  0  0  0  0  0  0  0  0  0  0  0
    0.7141   -0.5582    0.1267 C   0  0  0  0  0  0  0  0  0  0  0  0
   -1.7073   -0.7733    0.1365 C   0  0  0  0  0  0  0  0  0  0  0  0
    0.5940    0.8483   -0.0140 C   0  0  0  0  0  0  0  0  0  0  0  0
   -1.8806    0.5485    0.0075 C   0  0  0  0  0  0  0  0  0  0  0  0
   -0.2783   -2.8138    0.3404 C   0  0  0  0  0  0  0  0  0  0  0  0
   -0.7521    1.4761   -0.0808 C   0  0  0  0  0  0  0  0  0  0  0  0
    2.0186   -1.0825    0.1855 C   0  0  0  0  0  0  0  0  0  0  0  0
    1.7206    1.6780   -0.0915 C   0  0  0  0  0  0  0  0  0  0  0  0
   -3.3334    0.8038   -0.0030 C   0  0  0  0  0  0  0  0  0  0  0  0
    0.1316   -3.4206   -0.9877 C   0  0  0  0  0  0  0  0  0  0  0  0
    3.1430   -0.2534    0.1082 C   0  0  0  0  0  0  0  0  0  0  0  0
    2.9943    1.1224   -0.0302 C   0  0  0  0  0  0  0  0  0  0  0  0
    0.4396   -3.0601    1.1318 H   0  0  0  0  0  0  0  0  0  0  0  0
   -1.2119   -3.2901    0.6625 H   0  0  0  0  0  0  0  0  0  0  0  0
    2.1983   -2.1458    0.3147 H   0  0  0  0  0  0  0  0  0  0  0  0
   -3.1394   -2.3240    0.3442 H   0  0  0  0  0  0  0  0  0  0  0  0
    1.6233    2.7547   -0.1991 H   0  0  0  0  0  0  0  0  0  0  0  0
   -0.6433   -3.2485   -1.7435 H   0  0  0  0  0  0  0  0  0  0  0  0
    1.0660   -3.0247   -1.3916 H   0  0  0  0  0  0  0  0  0  0  0  0
    0.2522   -4.5037   -0.8800 H   0  0  0  0  0  0  0  0  0  0  0  0
  1 18  1  0  0  0  0
  2 19  1  0  0  0  0
  3  7  1  0  0  0  0
  3 16  1  0  0  0  0
  4 13  2  0  0  0  0
  5 16  2  0  0  0  0
  6  8  1  0  0  0  0
  6  9  1  0  0  0  0
  6 12  1  0  0  0  0
  7  9  1  0  0  0  0
  7 23  1  0  0  0  0
  8 10  1  0  0  0  0
  8 14  2  0  0  0  0
  9 11  2  0  0  0  0
 10 13  1  0  0  0  0
 10 15  2  0  0  0  0
 11 13  1  0  0  0  0
 11 16  1  0  0  0  0
 12 17  1  0  0  0  0
 12 20  1  0  0  0  0
 12 21  1  0  0  0  0
 14 18  1  0  0  0  0
 14 22  1  0  0  0  0
 15 19  1  0  0  0  0
 15 24  1  0  0  0  0
 17 25  1  0  0  0  0
 17 26  1  0  0  0  0
 17 27  1  0  0  0  0
 18 19  2  0  0  0  0
M  END
> <PUBCHEM_COMPOUND_CID>
25190453

> <PUBCHEM_CONFORMER_RMSD>
0.6

> <PUBCHEM_CONFORMER_DIVERSEORDER>
1

> <PUBCHEM_MMFF94_PARTIAL_CHARGES>
21
1 -0.18
10 0.09
11 0.03
12 0.37
13 0.47
14 -0.15
15 -0.15
16 0.71
18 0.18
19 0.19
2 -0.19
22 0.15
23 0.4
24 0.15
3 -0.13
4 -0.57
5 -0.57
6 -0.57
7 -0.52
8 0.1
9 0.2

> <PUBCHEM_EFFECTIVE_ROTOR_COUNT>
1

> <PUBCHEM_PHARMACOPHORE_FEATURES>
7
1 4 acceptor
1 5 acceptor
1 6 cation
1 7 donor
5 3 7 9 11 16 rings
6 6 8 9 10 11 13 rings
6 8 10 14 15 18 19 rings

> <PUBCHEM_HEAVY_ATOM_COUNT>
19

> <PUBCHEM_ATOM_DEF_STEREO_COUNT>
0

> <PUBCHEM_ATOM_UDEF_STEREO_COUNT>
0

> <PUBCHEM_BOND_DEF_STEREO_COUNT>
0

> <PUBCHEM_BOND_UDEF_STEREO_COUNT>
0

> <PUBCHEM_ISOTOPIC_ATOM_COUNT>
0

> <PUBCHEM_COMPONENT_COUNT>
1

> <PUBCHEM_CACTVS_TAUTO_COUNT>
4

> <PUBCHEM_CONFORMER_ID>
0180603500000001

> <PUBCHEM_MMFF94_ENERGY>
56.5375

> <PUBCHEM_FEATURE_SELFOVERLAP>
35.625

> <PUBCHEM_SHAPE_FINGERPRINT>
10062212 137 18410845547565526611
10411042 1 17041481086344288002
10608611 8 18410008861997767368
10616163 171 18410293566958462307
10967382 1 18410012134709670618
11132069 177 18412539890572683872
12035759 4 18056167316135018975
12715332 25 18272649060784059454
13140716 1 18409735049453378417
13380535 76 18337390435657202275
14178342 30 17909261391390690224
14790565 3 18338809943692147520
15006816 218 18268995293271246662
15042514 8 18409448128406070794
15099037 51 18410857625403972598
15196674 1 18409167722738488472
15309172 13 18411990151917559595
15442244 35 18409164437547274090
15475509 8 16189476646930440981
15536298 74 18412262852671820624
16945 1 18194405485399675289
17804303 29 18411139121813016280
18186145 218 18272099283215428840
193761 8 17762055437078570601
19591789 44 18410575123334089611
200 152 18060411396130688589
20028762 73 18058168504686746751
20510252 161 18343588464165137657
20645476 183 17823718523234359614
20739085 24 18190770594474487041
20905425 154 17980201881282618070
21267235 1 18408612460781886299
21501502 16 18266454494098782326
21524375 3 18409728456441572187
2334 1 18337954601107272449
23402539 116 18342447132619862566
23419403 2 15894397940755554945
23463225 33 18334857203557880048
23559900 14 18342174454347986688
238 59 17467588699957530197
2748010 2 18409733988617483463
335352 9 18337390418318973900
34934 24 18192989538040987136
350125 39 18336829684985791608
43471831 8 18263641762576395706
5104073 3 18408886247893803464
54173680 148 18192433197604930210
58051976 378 18268707212571167516
6138700 20 18123192303977586270
69090 78 18411415146202064666
7364860 26 18053383197594508351
81228 2 17833813242357410211
8809292 202 18260553324576215458
9709674 26 18339929319854325798

> <PUBCHEM_SHAPE_MULTIPOLES>
358.04
6.85
3.09
0.67
1.8
1.56
0.05
-1.87
-0.35
-0.13
0.55
0.05
0.22
0.04

> <PUBCHEM_SHAPE_SELFOVERLAP>
786.004

> <PUBCHEM_SHAPE_VOLUME>
196.2

> <PUBCHEM_COORDINATE_TYPE>
2
5
10

$$$$
