14802487
  -OEChem-10062121593D

 44 45  0     0  0  0  0  0  0999 V2000
   -3.4954   -0.4076   -0.3834 S   0  0  0  0  0  0  0  0  0  0  0  0
   -4.4265    0.4875    0.2766 O   0  0  0  0  0  0  0  0  0  0  0  0
   -3.9093   -1.1580   -1.5534 O   0  0  0  0  0  0  0  0  0  0  0  0
    1.1464   -3.1993   -0.4538 O   0  0  0  0  0  0  0  0  0  0  0  0
    5.2679   -0.3099   -0.7275 O   0  0  0  0  0  0  0  0  0  0  0  0
    4.0404    0.6954    0.9471 O   0  0  0  0  0  0  0  0  0  0  0  0
   -2.8429   -1.4846    0.7578 N   0  0  0  0  0  0  0  0  0  0  0  0
   -0.1037   -2.2995    1.2861 N   0  0  0  0  0  0  0  0  0  0  0  0
   -0.1690    3.2957    1.7077 N   0  0  0  0  0  0  0  0  0  0  0  0
   -2.0734    0.5327   -0.8507 C   0  0  0  0  0  0  0  0  0  0  0  0
   -2.3107   -2.7938    0.3172 C   0  0  0  0  0  0  0  0  0  0  0  0
   -1.4522    1.4486    0.0140 C   0  0  0  0  0  0  0  0  0  0  0  0
   -1.1970   -3.2440    1.2477 C   0  0  0  0  0  0  0  0  0  0  0  0
   -0.3214    2.1601   -0.4373 C   0  0  0  0  0  0  0  0  0  0  0  0
   -1.5805    0.3272   -2.1405 C   0  0  0  0  0  0  0  0  0  0  0  0
    0.1660    1.9454   -1.7372 C   0  0  0  0  0  0  0  0  0  0  0  0
   -1.9222    1.6767    1.3125 C   0  0  0  0  0  0  0  0  0  0  0  0
   -0.4633    1.0320   -2.5828 C   0  0  0  0  0  0  0  0  0  0  0  0
    1.9711   -1.2347    0.6993 C   0  0  0  0  0  0  0  0  0  0  0  0
    0.9832   -2.3580    0.4255 C   0  0  0  0  0  0  0  0  0  0  0  0
    0.2693    3.0616    0.4503 C   0  0  0  0  0  0  0  0  0  0  0  0
    3.1850   -1.2595   -0.2254 C   0  0  0  0  0  0  0  0  0  0  0  0
   -1.2534    2.5968    2.1055 C   0  0  0  0  0  0  0  0  0  0  0  0
    4.1860   -0.1704    0.0952 C   0  0  0  0  0  0  0  0  0  0  0  0
    6.3056    0.6599   -0.5505 C   0  0  0  0  0  0  0  0  0  0  0  0
   -1.9242   -2.7173   -0.7047 H   0  0  0  0  0  0  0  0  0  0  0  0
   -3.1252   -3.5249    0.3288 H   0  0  0  0  0  0  0  0  0  0  0  0
   -3.1680   -1.4326    1.7310 H   0  0  0  0  0  0  0  0  0  0  0  0
   -1.5686   -3.3412    2.2736 H   0  0  0  0  0  0  0  0  0  0  0  0
   -0.8166   -4.2203    0.9290 H   0  0  0  0  0  0  0  0  0  0  0  0
   -2.0359   -0.3767   -2.8302 H   0  0  0  0  0  0  0  0  0  0  0  0
   -0.1522   -1.5510    1.9714 H   0  0  0  0  0  0  0  0  0  0  0  0
    1.0380    2.4861   -2.0978 H   0  0  0  0  0  0  0  0  0  0  0  0
   -2.7578    1.1604    1.7639 H   0  0  0  0  0  0  0  0  0  0  0  0
   -0.0801    0.8693   -3.5860 H   0  0  0  0  0  0  0  0  0  0  0  0
    1.4440   -0.2790    0.5965 H   0  0  0  0  0  0  0  0  0  0  0  0
    2.2972   -1.3154    1.7437 H   0  0  0  0  0  0  0  0  0  0  0  0
    1.1437    3.6408    0.1662 H   0  0  0  0  0  0  0  0  0  0  0  0
    3.6932   -2.2268   -0.1361 H   0  0  0  0  0  0  0  0  0  0  0  0
    2.8599   -1.1320   -1.2643 H   0  0  0  0  0  0  0  0  0  0  0  0
   -1.5818    2.7952    3.1207 H   0  0  0  0  0  0  0  0  0  0  0  0
    5.9234    1.6647   -0.7541 H   0  0  0  0  0  0  0  0  0  0  0  0
    6.7124    0.5984    0.4633 H   0  0  0  0  0  0  0  0  0  0  0  0
    7.1042    0.4372   -1.2632 H   0  0  0  0  0  0  0  0  0  0  0  0
  1  2  2  0  0  0  0
  1  3  2  0  0  0  0
  1  7  1  0  0  0  0
  1 10  1  0  0  0  0
  4 20  2  0  0  0  0
  5 24  1  0  0  0  0
  5 25  1  0  0  0  0
  6 24  2  0  0  0  0
  7 11  1  0  0  0  0
  7 28  1  0  0  0  0
  8 13  1  0  0  0  0
  8 20  1  0  0  0  0
  8 32  1  0  0  0  0
  9 21  2  0  0  0  0
  9 23  1  0  0  0  0
 10 12  1  0  0  0  0
 10 15  2  0  0  0  0
 11 13  1  0  0  0  0
 11 26  1  0  0  0  0
 11 27  1  0  0  0  0
 12 14  2  0  0  0  0
 12 17  1  0  0  0  0
 13 29  1  0  0  0  0
 13 30  1  0  0  0  0
 14 16  1  0  0  0  0
 14 21  1  0  0  0  0
 15 18  1  0  0  0  0
 15 31  1  0  0  0  0
 16 18  2  0  0  0  0
 16 33  1  0  0  0  0
 17 23  2  0  0  0  0
 17 34  1  0  0  0  0
 18 35  1  0  0  0  0
 19 20  1  0  0  0  0
 19 22  1  0  0  0  0
 19 36  1  0  0  0  0
 19 37  1  0  0  0  0
 21 38  1  0  0  0  0
 22 24  1  0  0  0  0
 22 39  1  0  0  0  0
 22 40  1  0  0  0  0
 23 41  1  0  0  0  0
 25 42  1  0  0  0  0
 25 43  1  0  0  0  0
 25 44  1  0  0  0  0
M  END
> <PUBCHEM_COMPOUND_CID>
14802487

> <PUBCHEM_CONFORMER_RMSD>
1.2

> <PUBCHEM_CONFORMER_DIVERSEORDER>
1
69
7
36
109
47
56
59
75
103
104
8
66
64
99
22
12
78
35
89
4
68
41
55
60
6
31
38
24
2
102
110
92
107
72
23
13
10
81
45
80
91
32
94
98
65
63
37
77
74
97
50
105
88
9
62
70
106
82
3
40
17
87
100
93
49
11
46
73
20
54
44
15
52
96
101
95
42
79
28
39
86
67
76
43
61
26
57
5
108
90
14
53
21
18
30
19
27
25
84
33
51
85
83
16
29
71
58
48
34

> <PUBCHEM_MMFF94_PARTIAL_CHARGES>
31
1 1.45
10 -0.01
11 0.36
13 0.3
15 -0.15
16 -0.15
17 -0.15
18 -0.15
19 0.06
2 -0.65
20 0.57
21 0.16
22 0.06
23 0.16
24 0.66
25 0.28
28 0.42
3 -0.65
31 0.15
32 0.37
33 0.15
34 0.15
35 0.15
38 0.15
4 -0.57
41 0.15
5 -0.43
6 -0.57
7 -0.91
8 -0.73
9 -0.62

> <PUBCHEM_EFFECTIVE_ROTOR_COUNT>
10

> <PUBCHEM_PHARMACOPHORE_FEATURES>
9
1 2 acceptor
1 3 acceptor
1 4 acceptor
1 6 acceptor
1 7 donor
1 8 donor
1 9 acceptor
6 10 12 14 15 16 18 rings
6 9 12 14 17 21 23 rings

> <PUBCHEM_HEAVY_ATOM_COUNT>
25

> <PUBCHEM_ATOM_DEF_STEREO_COUNT>
0

> <PUBCHEM_ATOM_UDEF_STEREO_COUNT>
0

> <PUBCHEM_BOND_DEF_STEREO_COUNT>
0

> <PUBCHEM_BOND_UDEF_STEREO_COUNT>
0

> <PUBCHEM_ISOTOPIC_ATOM_COUNT>
0

> <PUBCHEM_COMPONENT_COUNT>
1

> <PUBCHEM_CACTVS_TAUTO_COUNT>
2

> <PUBCHEM_CONFORMER_ID>
00E1DE3700000001

> <PUBCHEM_MMFF94_ENERGY>
39.9953

> <PUBCHEM_FEATURE_SELFOVERLAP>
45.72

> <PUBCHEM_SHAPE_FINGERPRINT>
10454371 7 18193015896967862228
11112241 14 17342916450483504784
12104220 1 18411421701155978556
12156800 1 17479232673892281448
12788726 201 18200029530114744809
128993 33 17618786851470917738
13027679 85 18410570708597897429
13615921 28 18200315553725481157
14123250 116 18197500614890123442
14279260 333 17771072597455072854
14787075 74 18341044207216965468
14840074 17 17604730918323259508
17492 54 17896021252573177415
18336668 15 18042696172163334403
20600515 1 18188505647464832631
20905425 154 17470186098261845703
21623110 236 18115601468745647764
23419403 2 17977646921138625423
35225 105 17480874025878036601
392239 28 18343020034255186568
469060 322 17241061979863858242
57527585 103 17315670432425955570
6287921 2 17905349346103986646

> <PUBCHEM_SHAPE_MULTIPOLES>
474.05
8.04
4.12
1.94
13.76
1.02
0.52
1.07
1.35
-1.34
-1.92
-1.04
-1.18
-0.27

> <PUBCHEM_SHAPE_SELFOVERLAP>
975.936

> <PUBCHEM_SHAPE_VOLUME>
271.8

> <PUBCHEM_COORDINATE_TYPE>
2
5
10

$$$$
