24858860
  -OEChem-10062121553D

 34 36  0     0  0  0  0  0  0999 V2000
   -5.5420    2.5596   -0.0007 F   0  0  0  0  0  0  0  0  0  0  0  0
   -6.2238    0.8082   -1.0832 F   0  0  0  0  0  0  0  0  0  0  0  0
   -6.2040    0.7995    1.0913 F   0  0  0  0  0  0  0  0  0  0  0  0
    2.6712   -1.6886   -0.0012 O   0  0  0  0  0  0  0  0  0  0  0  0
    0.9280   -0.1247   -0.0012 N   0  0  0  0  0  0  0  0  0  0  0  0
   -2.4371   -2.6070   -0.0002 N   0  0  0  0  0  0  0  0  0  0  0  0
    3.1141    0.6076   -0.0015 N   0  0  0  0  0  0  0  0  0  0  0  0
    5.2284   -0.5013   -0.0001 N   0  0  0  0  0  0  0  0  0  0  0  0
    6.4905    2.0034    0.0013 N   0  0  0  0  0  0  0  0  0  0  0  0
   -1.5079   -0.3835   -0.0006 C   0  0  0  0  0  0  0  0  0  0  0  0
   -2.6044   -1.2710   -0.0003 C   0  0  0  0  0  0  0  0  0  0  0  0
   -0.2172   -0.9295   -0.0008 C   0  0  0  0  0  0  0  0  0  0  0  0
   -4.0968    0.6531   -0.0004 C   0  0  0  0  0  0  0  0  0  0  0  0
   -1.7192    1.0057   -0.0008 C   0  0  0  0  0  0  0  0  0  0  0  0
   -3.8863   -0.7280   -0.0002 C   0  0  0  0  0  0  0  0  0  0  0  0
   -3.0121    1.5214   -0.0007 C   0  0  0  0  0  0  0  0  0  0  0  0
   -0.0417   -2.3058   -0.0007 C   0  0  0  0  0  0  0  0  0  0  0  0
   -5.4863    1.1948   -0.0004 C   0  0  0  0  0  0  0  0  0  0  0  0
   -1.1749   -3.0935   -0.0002 C   0  0  0  0  0  0  0  0  0  0  0  0
    2.2837   -0.5246   -0.0013 C   0  0  0  0  0  0  0  0  0  0  0  0
    4.5283    0.6505   -0.0018 C   0  0  0  0  0  0  0  0  0  0  0  0
    5.1483    1.8807   -0.0010 C   0  0  0  0  0  0  0  0  0  0  0  0
    6.5707   -0.3786    0.0019 C   0  0  0  0  0  0  0  0  0  0  0  0
    7.1905    0.8516    0.0027 C   0  0  0  0  0  0  0  0  0  0  0  0
   -0.9104    1.7289   -0.0011 H   0  0  0  0  0  0  0  0  0  0  0  0
   -4.7469   -1.3958   -0.0001 H   0  0  0  0  0  0  0  0  0  0  0  0
   -3.1521    2.5985   -0.0009 H   0  0  0  0  0  0  0  0  0  0  0  0
    0.8965   -2.8347   -0.0009 H   0  0  0  0  0  0  0  0  0  0  0  0
    0.7893    0.8787   -0.0013 H   0  0  0  0  0  0  0  0  0  0  0  0
   -1.1012   -4.1763   -0.0001 H   0  0  0  0  0  0  0  0  0  0  0  0
    2.6507    1.5128   -0.0017 H   0  0  0  0  0  0  0  0  0  0  0  0
    4.5973    2.8143   -0.0015 H   0  0  0  0  0  0  0  0  0  0  0  0
    7.1337   -1.3037    0.0031 H   0  0  0  0  0  0  0  0  0  0  0  0
    8.2691    0.9493    0.0045 H   0  0  0  0  0  0  0  0  0  0  0  0
  1 18  1  0  0  0  0
  2 18  1  0  0  0  0
  3 18  1  0  0  0  0
  4 20  2  0  0  0  0
  5 12  1  0  0  0  0
  5 20  1  0  0  0  0
  5 29  1  0  0  0  0
  6 11  2  0  0  0  0
  6 19  1  0  0  0  0
  7 20  1  0  0  0  0
  7 21  1  0  0  0  0
  7 31  1  0  0  0  0
  8 21  2  0  0  0  0
  8 23  1  0  0  0  0
  9 22  2  0  0  0  0
  9 24  1  0  0  0  0
 10 11  1  0  0  0  0
 10 12  2  0  0  0  0
 10 14  1  0  0  0  0
 11 15  1  0  0  0  0
 12 17  1  0  0  0  0
 13 15  2  0  0  0  0
 13 16  1  0  0  0  0
 13 18  1  0  0  0  0
 14 16  2  0  0  0  0
 14 25  1  0  0  0  0
 15 26  1  0  0  0  0
 16 27  1  0  0  0  0
 17 19  2  0  0  0  0
 17 28  1  0  0  0  0
 19 30  1  0  0  0  0
 21 22  1  0  0  0  0
 22 32  1  0  0  0  0
 23 24  2  0  0  0  0
 23 33  1  0  0  0  0
 24 34  1  0  0  0  0
M  END
> <PUBCHEM_COMPOUND_CID>
24858860

> <PUBCHEM_CONFORMER_RMSD>
0.8

> <PUBCHEM_CONFORMER_DIVERSEORDER>
1
11
12
16
6
7
10
2
20
19
13
8
9
18
14
15
5
4
3
17

> <PUBCHEM_MMFF94_PARTIAL_CHARGES>
33
1 -0.34
11 0.31
12 0.12
13 -0.14
14 -0.15
15 -0.15
16 -0.15
17 -0.15
18 1.16
19 0.16
2 -0.34
20 0.69
21 0.43
22 0.16
23 0.16
24 0.16
25 0.15
26 0.15
27 0.15
28 0.15
29 0.37
3 -0.34
30 0.15
31 0.37
32 0.15
33 0.15
34 0.15
4 -0.57
5 -0.55
6 -0.62
7 -0.55
8 -0.62
9 -0.62

> <PUBCHEM_EFFECTIVE_ROTOR_COUNT>
5

> <PUBCHEM_PHARMACOPHORE_FEATURES>
8
1 4 acceptor
1 5 donor
1 6 acceptor
1 7 donor
1 9 acceptor
6 10 11 13 14 15 16 rings
6 6 10 11 12 17 19 rings
6 8 9 21 22 23 24 rings

> <PUBCHEM_HEAVY_ATOM_COUNT>
24

> <PUBCHEM_ATOM_DEF_STEREO_COUNT>
0

> <PUBCHEM_ATOM_UDEF_STEREO_COUNT>
0

> <PUBCHEM_BOND_DEF_STEREO_COUNT>
0

> <PUBCHEM_BOND_UDEF_STEREO_COUNT>
0

> <PUBCHEM_ISOTOPIC_ATOM_COUNT>
0

> <PUBCHEM_COMPONENT_COUNT>
1

> <PUBCHEM_CACTVS_TAUTO_COUNT>
11

> <PUBCHEM_CONFORMER_ID>
017B50EC00000001

> <PUBCHEM_MMFF94_ENERGY>
71.0229

> <PUBCHEM_FEATURE_SELFOVERLAP>
40.678

> <PUBCHEM_SHAPE_FINGERPRINT>
10 15 18186807980595644977
10411042 1 17762056940982931687
10493431 412 18408888425795370167
106641 1 18335994125527081081
10835480 77 18201152274075491856
11578080 2 13900532246873153961
12107183 9 18263353699884646954
12236239 1 18040432218082766490
12390115 104 18342752814069124739
12788726 201 17702948024057714104
12838862 33 18337372890563207045
13533116 47 17845935113915796174
14257110 125 18409448081234614283
14790565 3 18340209570744466049
14933364 13 18409732876600956792
15183329 4 18343868797365920792
15196674 1 18338799017869482402
15778101 99 18410858784681015634
15927050 60 18409165515152841650
17844677 252 18265903643358215272
17980427 23 18336266846157675902
18608769 82 18340209695678319435
19611394 137 17969799642780677683
20281389 69 18333168358093011492
20645477 56 18408885135333489231
20681677 155 18334010627339912474
21033648 29 17988068020118297608
21236236 1 18341049717876569631
21859007 373 17532642430448233460
22224240 67 18334862702023296067
23198884 109 16343707616632720601
23402539 116 18342734143545589342
23559900 14 18200588207008275120
25147074 1 18336808841029833154
2838139 119 18413384328382709341
293599 30 18411419505398593875
3004659 81 18410013231113195858
335352 9 18410856551925548694
3472631 163 18411420631112445014
3545911 37 18410576175964606252
4073 2 18042127708463857722
4214541 1 18410574033203180422
5104073 3 18186523185061179899
59682541 35 18260561030702229641
5969126 39 18127124410850859719
59755656 215 18340773646248052174
59755656 520 18408879642097094487
6327066 14 18409443661977030677
636775 72 18271239521538228544
7226269 152 18202568375641260329
77188 2 17112976821055491471
7808743 9 18409726278956041083
9981440 41 18334301971988406907

> <PUBCHEM_SHAPE_MULTIPOLES>
441.31
17.9
2.63
0.65
16.91
1.14
0
-12.21
-0.01
-1.71
0
-0.42
-0.06
0

> <PUBCHEM_SHAPE_SELFOVERLAP>
972.422

> <PUBCHEM_SHAPE_VOLUME>
236.5

> <PUBCHEM_COORDINATE_TYPE>
2
5
10

$$$$
