5111160
  -OEChem-10052120443D

 46 48  0     0  0  0  0  0  0999 V2000
   -5.6063   -3.6280   -0.0114 Cl  0  0  0  0  0  0  0  0  0  0  0  0
   -8.5071    2.3726    0.0516 F   0  0  0  0  0  0  0  0  0  0  0  0
   -6.6803    2.8670    1.1111 F   0  0  0  0  0  0  0  0  0  0  0  0
   -6.7033    2.8542   -1.0633 F   0  0  0  0  0  0  0  0  0  0  0  0
   -2.6417    0.8303   -0.0397 O   0  0  0  0  0  0  0  0  0  0  0  0
    1.3186   -2.2518    0.0162 O   0  0  0  0  0  0  0  0  0  0  0  0
    7.6870   -1.5532    0.0924 N   0  0  0  0  0  0  0  0  0  0  0  0
   -3.6787   -1.2764   -0.0307 N   0  0  0  0  0  0  0  0  0  0  0  0
    2.3430   -0.1724   -0.0472 N   0  0  0  0  0  0  0  0  0  0  0  0
    3.5869   -0.7017   -0.0074 N   0  0  0  0  0  0  0  0  0  0  0  0
    7.0684    0.5883   -0.0019 C   0  0  0  0  0  0  0  0  0  0  0  0
    8.1724   -0.2656    0.0493 C   0  0  0  0  0  0  0  0  0  0  0  0
    5.9229   -0.2368    0.0125 C   0  0  0  0  0  0  0  0  0  0  0  0
   -1.2842   -1.1632   -0.0668 C   0  0  0  0  0  0  0  0  0  0  0  0
    6.3181   -1.5429    0.0703 C   0  0  0  0  0  0  0  0  0  0  0  0
   -0.0564   -0.2582   -0.0820 C   0  0  0  0  0  0  0  0  0  0  0  0
    7.2886    1.9790   -0.0532 C   0  0  0  0  0  0  0  0  0  0  0  0
    9.4907    0.2038    0.0516 C   0  0  0  0  0  0  0  0  0  0  0  0
   -5.0565   -0.9538   -0.0084 C   0  0  0  0  0  0  0  0  0  0  0  0
   -2.6009   -0.3955   -0.0438 C   0  0  0  0  0  0  0  0  0  0  0  0
   -6.7595    0.7391    0.0217 C   0  0  0  0  0  0  0  0  0  0  0  0
    4.5308    0.1804   -0.0265 C   0  0  0  0  0  0  0  0  0  0  0  0
   -5.4099    0.3872    0.0015 C   0  0  0  0  0  0  0  0  0  0  0  0
    8.6019    2.4629   -0.0515 C   0  0  0  0  0  0  0  0  0  0  0  0
    9.6846    1.5870    0.0001 C   0  0  0  0  0  0  0  0  0  0  0  0
    1.2541   -1.0263   -0.0316 C   0  0  0  0  0  0  0  0  0  0  0  0
   -6.0195   -1.9505    0.0014 C   0  0  0  0  0  0  0  0  0  0  0  0
   -7.7391   -0.2537    0.0317 C   0  0  0  0  0  0  0  0  0  0  0  0
   -7.3691   -1.5986    0.0216 C   0  0  0  0  0  0  0  0  0  0  0  0
   -7.1553    2.1769    0.0322 C   0  0  0  0  0  0  0  0  0  0  0  0
   -1.2778   -1.8118   -0.9516 H   0  0  0  0  0  0  0  0  0  0  0  0
   -1.2553   -1.8137    0.8163 H   0  0  0  0  0  0  0  0  0  0  0  0
    8.2592   -2.3852    0.1343 H   0  0  0  0  0  0  0  0  0  0  0  0
    5.7672   -2.4730    0.0981 H   0  0  0  0  0  0  0  0  0  0  0  0
   -0.0838    0.4226    0.7779 H   0  0  0  0  0  0  0  0  0  0  0  0
   -0.0603    0.3595   -0.9885 H   0  0  0  0  0  0  0  0  0  0  0  0
    6.4567    2.6763   -0.0938 H   0  0  0  0  0  0  0  0  0  0  0  0
   10.3342   -0.4773    0.0917 H   0  0  0  0  0  0  0  0  0  0  0  0
   -3.4722   -2.2731   -0.0376 H   0  0  0  0  0  0  0  0  0  0  0  0
   -4.7155    1.2129   -0.0051 H   0  0  0  0  0  0  0  0  0  0  0  0
    4.3322    1.2665   -0.0717 H   0  0  0  0  0  0  0  0  0  0  0  0
    8.7778    3.5346   -0.0909 H   0  0  0  0  0  0  0  0  0  0  0  0
   10.6963    1.9846    0.0004 H   0  0  0  0  0  0  0  0  0  0  0  0
   -8.7953    0.0006    0.0474 H   0  0  0  0  0  0  0  0  0  0  0  0
   -8.1448   -2.3602    0.0296 H   0  0  0  0  0  0  0  0  0  0  0  0
    2.2482    0.8379   -0.0874 H   0  0  0  0  0  0  0  0  0  0  0  0
  1 27  1  0  0  0  0
  2 30  1  0  0  0  0
  3 30  1  0  0  0  0
  4 30  1  0  0  0  0
  5 20  2  0  0  0  0
  6 26  2  0  0  0  0
  7 12  1  0  0  0  0
  7 15  1  0  0  0  0
  7 33  1  0  0  0  0
  8 19  1  0  0  0  0
  8 20  1  0  0  0  0
  8 39  1  0  0  0  0
  9 10  1  0  0  0  0
  9 26  1  0  0  0  0
  9 46  1  0  0  0  0
 10 22  2  3  0  0  0
 11 12  1  0  0  0  0
 11 13  1  0  0  0  0
 11 17  2  0  0  0  0
 12 18  2  0  0  0  0
 13 15  2  0  0  0  0
 13 22  1  0  0  0  0
 14 16  1  0  0  0  0
 14 20  1  0  0  0  0
 14 31  1  0  0  0  0
 14 32  1  0  0  0  0
 15 34  1  0  0  0  0
 16 26  1  0  0  0  0
 16 35  1  0  0  0  0
 16 36  1  0  0  0  0
 17 24  1  0  0  0  0
 17 37  1  0  0  0  0
 18 25  1  0  0  0  0
 18 38  1  0  0  0  0
 19 23  1  0  0  0  0
 19 27  2  0  0  0  0
 21 23  2  0  0  0  0
 21 28  1  0  0  0  0
 21 30  1  0  0  0  0
 22 41  1  0  0  0  0
 23 40  1  0  0  0  0
 24 25  2  0  0  0  0
 24 42  1  0  0  0  0
 25 43  1  0  0  0  0
 27 29  1  0  0  0  0
 28 29  2  0  0  0  0
 28 44  1  0  0  0  0
 29 45  1  0  0  0  0
M  END
> <PUBCHEM_COMPOUND_CID>
5111160

> <PUBCHEM_CONFORMER_RMSD>
1

> <PUBCHEM_CONFORMER_DIVERSEORDER>
1
135
82
42
89
28
172
189
36
126
105
199
153
2
83
76
41
207
210
182
202
152
149
136
174
148
10
173
77
70
98
178
177
51
47
79
74
11
60
108
118
27
45
179
162
203
120
55
201
161
187
29
190
186
129
122
78
81
194
50
197
157
141
117
86
208
39
169
19
160
24
46
67
96
116
8
57
26
211
91
142
204
63
125
14
167
145
175
68
7
180
164
144
66
183
64
92
58
209
200
170
40
52
163
102
205
206
158
88
133
43
184
22
16
25
154
54
72
115
176
4
30
185
33
20
5
56
37
213
13
69
171
165
107
191
147
53
124
138
48
31
59
49
12
140
193
99
17
188
6
146
101
134
94
44
32
212
80
21
198
62
121
128
15
196
119
143
114
75
97
156
34
93
168
131
38
87
3
137
104
84
109
155
65
112
73
130
71
35
192
103
132
159
181
150
90
110
61
85
166
95
18
123
106
113
195
151
127
9
139
23
100
111

> <PUBCHEM_MMFF94_PARTIAL_CHARGES>
41
1 -0.18
10 -0.51
12 -0.15
13 -0.09
14 0.06
15 -0.3
16 0.06
17 -0.15
18 -0.15
19 0.12
2 -0.34
20 0.57
21 -0.14
22 0.48
23 -0.15
24 -0.15
25 -0.15
26 0.57
27 0.18
28 -0.15
29 -0.15
3 -0.34
30 1.16
33 0.27
34 0.15
37 0.15
38 0.15
39 0.37
4 -0.34
40 0.15
41 0.06
42 0.15
43 0.15
44 0.15
45 0.15
46 0.37
5 -0.57
6 -0.57
7 0.03
8 -0.55
9 -0.37

> <PUBCHEM_EFFECTIVE_ROTOR_COUNT>
9

> <PUBCHEM_PHARMACOPHORE_FEATURES>
10
1 10 acceptor
1 5 acceptor
1 6 acceptor
1 7 cation
1 7 donor
1 8 donor
1 9 donor
5 7 11 12 13 15 rings
6 11 12 17 18 24 25 rings
6 19 21 23 27 28 29 rings

> <PUBCHEM_HEAVY_ATOM_COUNT>
30

> <PUBCHEM_ATOM_DEF_STEREO_COUNT>
0

> <PUBCHEM_ATOM_UDEF_STEREO_COUNT>
0

> <PUBCHEM_BOND_DEF_STEREO_COUNT>
0

> <PUBCHEM_BOND_UDEF_STEREO_COUNT>
1

> <PUBCHEM_ISOTOPIC_ATOM_COUNT>
0

> <PUBCHEM_COMPONENT_COUNT>
1

> <PUBCHEM_CACTVS_TAUTO_COUNT>
8

> <PUBCHEM_CONFORMER_ID>
004DFD7800000001

> <PUBCHEM_MMFF94_ENERGY>
60.5918

> <PUBCHEM_FEATURE_SELFOVERLAP>
50.844

> <PUBCHEM_SHAPE_FINGERPRINT>
10050765 1 18122343480578332718
100830 39 18411136910158430233
11181472 205 18129106632661860578
11315181 36 18131355215719406939
11386260 185 14764335068848923058
11578821 258 18272370892880140704
12013929 94 18266459987178266619
12082328 90 18411134753715660831
12089408 11 18333448751497540914
125118 31 18411139143477984216
12539765 74 18342182155082645390
12664476 115 18131351921711385153
13553643 46 18113333107538719204
13885169 127 18409449193742147603
14118638 360 15913060776585498090
14251764 46 18408322211144980135
14428016 248 17967538995418881724
15198563 99 15410627956220858450
15461852 350 17489580187070521271
15510794 2 18272937116183619342
15530121 191 18202278152333866856
15554971 5 18334855030763416142
1577012 14 18260259733555064434
15840311 113 18334579084332873044
16989713 51 17416957521355733799
17093844 174 18334297565958018131
1754908 1 13767931238751903212
1754911 235 18342458145285125358
17686467 74 18187926239887523491
21362267 313 18336823088659453842
22224240 67 17749106708109385610
232437 2 18408603678581529314
24771293 8 18186803595249549582
249057 3 15769772494362788050
4073 2 18334017202692834179
44280117 145 18339080522848395039
444735 82 18335704996539581020
44802255 64 17203324499664122879
45270241 37 18341899602611936014
4625314 4 18413109464041292078
5758199 1 17821727238930879658
5937810 71 18060146401608527993
59567204 34 18412262814397332409
636775 72 18410856526072108521
67123 10 18411136965333537630
99344 41 18409450293227687566
9953998 17 18040154015923837511

> <PUBCHEM_SHAPE_MULTIPOLES>
565.77
38.76
2.99
0.65
35.84
0.64
0
16.13
0.61
-5.9
0.02
-0.32
0.15
-0.22

> <PUBCHEM_SHAPE_SELFOVERLAP>
1215.106

> <PUBCHEM_SHAPE_VOLUME>
313.6

> <PUBCHEM_COORDINATE_TYPE>
2
5
10

$$$$
