3661799
  -OEChem-10052120443D

 36 39  0     0  0  0  0  0  0999 V2000
   -3.7961    2.7280    0.1930 O   0  0  0  0  0  0  0  0  0  0  0  0
    0.3128   -1.0570    1.8931 O   0  0  0  0  0  0  0  0  0  0  0  0
   -2.5003   -2.5717   -0.3496 N   0  0  0  0  0  0  0  0  0  0  0  0
    2.5459   -0.2893    1.8276 N   0  0  0  0  0  0  0  0  0  0  0  0
   -0.8824   -1.1864   -0.7151 C   0  0  0  0  0  0  0  0  0  0  0  0
   -1.9808   -0.4027   -0.4005 C   0  0  0  0  0  0  0  0  0  0  0  0
    1.4471   -0.4510   -0.1737 C   0  0  0  0  0  0  0  0  0  0  0  0
    2.7971    0.0365   -0.4350 C   0  0  0  0  0  0  0  0  0  0  0  0
   -3.0174   -1.3089   -0.1671 C   0  0  0  0  0  0  0  0  0  0  0  0
    0.4667   -0.6919   -1.0463 C   0  0  0  0  0  0  0  0  0  0  0  0
    3.4209    0.1164    0.8135 C   0  0  0  0  0  0  0  0  0  0  0  0
   -1.1763   -2.4953   -0.6896 C   0  0  0  0  0  0  0  0  0  0  0  0
    1.3015   -0.6578    1.3063 C   0  0  0  0  0  0  0  0  0  0  0  0
   -2.2449    0.9760   -0.2789 C   0  0  0  0  0  0  0  0  0  0  0  0
   -4.3102   -0.9036    0.1833 C   0  0  0  0  0  0  0  0  0  0  0  0
    3.4749    0.3904   -1.5862 C   0  0  0  0  0  0  0  0  0  0  0  0
   -3.5333    1.3960    0.0712 C   0  0  0  0  0  0  0  0  0  0  0  0
    4.7252    0.5452    0.9625 C   0  0  0  0  0  0  0  0  0  0  0  0
   -4.5486    0.4688    0.2981 C   0  0  0  0  0  0  0  0  0  0  0  0
    4.7976    0.8279   -1.4583 C   0  0  0  0  0  0  0  0  0  0  0  0
    5.4165    0.9045   -0.1963 C   0  0  0  0  0  0  0  0  0  0  0  0
   -2.7159    3.6258   -0.0521 C   0  0  0  0  0  0  0  0  0  0  0  0
    0.6426   -0.5196   -2.1059 H   0  0  0  0  0  0  0  0  0  0  0  0
   -0.6009   -3.3922   -0.8729 H   0  0  0  0  0  0  0  0  0  0  0  0
   -3.0232   -3.4304   -0.2472 H   0  0  0  0  0  0  0  0  0  0  0  0
   -1.4192    1.6518   -0.4659 H   0  0  0  0  0  0  0  0  0  0  0  0
    2.7968   -0.3081    2.8090 H   0  0  0  0  0  0  0  0  0  0  0  0
   -5.1011   -1.6246    0.3604 H   0  0  0  0  0  0  0  0  0  0  0  0
    3.0085    0.3356   -2.5636 H   0  0  0  0  0  0  0  0  0  0  0  0
    5.2006    0.6039    1.9348 H   0  0  0  0  0  0  0  0  0  0  0  0
   -5.5445    0.8109    0.5697 H   0  0  0  0  0  0  0  0  0  0  0  0
    5.3571    1.1134   -2.3454 H   0  0  0  0  0  0  0  0  0  0  0  0
    6.4452    1.2479   -0.1253 H   0  0  0  0  0  0  0  0  0  0  0  0
   -1.9061    3.4903    0.6730 H   0  0  0  0  0  0  0  0  0  0  0  0
   -2.3633    3.5600   -1.0871 H   0  0  0  0  0  0  0  0  0  0  0  0
   -3.1018    4.6409    0.0884 H   0  0  0  0  0  0  0  0  0  0  0  0
  1 17  1  0  0  0  0
  1 22  1  0  0  0  0
  2 13  2  0  0  0  0
  3  9  1  0  0  0  0
  3 12  1  0  0  0  0
  3 25  1  0  0  0  0
  4 11  1  0  0  0  0
  4 13  1  0  0  0  0
  4 27  1  0  0  0  0
  5  6  1  0  0  0  0
  5 10  1  0  0  0  0
  5 12  2  0  0  0  0
  6  9  2  0  0  0  0
  6 14  1  0  0  0  0
  7  8  1  0  0  0  0
  7 10  2  3  0  0  0
  7 13  1  0  0  0  0
  8 11  1  0  0  0  0
  8 16  2  0  0  0  0
  9 15  1  0  0  0  0
 10 23  1  0  0  0  0
 11 18  2  0  0  0  0
 12 24  1  0  0  0  0
 14 17  2  0  0  0  0
 14 26  1  0  0  0  0
 15 19  2  0  0  0  0
 15 28  1  0  0  0  0
 16 20  1  0  0  0  0
 16 29  1  0  0  0  0
 17 19  1  0  0  0  0
 18 21  1  0  0  0  0
 18 30  1  0  0  0  0
 19 31  1  0  0  0  0
 20 21  2  0  0  0  0
 20 32  1  0  0  0  0
 21 33  1  0  0  0  0
 22 34  1  0  0  0  0
 22 35  1  0  0  0  0
 22 36  1  0  0  0  0
M  END
> <PUBCHEM_COMPOUND_CID>
3661799

> <PUBCHEM_CONFORMER_RMSD>
0.6

> <PUBCHEM_CONFORMER_DIVERSEORDER>
1
3
2

> <PUBCHEM_MMFF94_PARTIAL_CHARGES>
32
1 -0.36
10 -0.1
11 0.12
12 -0.3
13 0.62
14 -0.15
15 -0.15
16 -0.15
17 0.08
18 -0.15
19 -0.15
2 -0.57
20 -0.15
21 -0.15
22 0.28
23 0.15
24 0.15
25 0.27
26 0.15
27 0.37
28 0.15
29 0.15
3 0.03
30 0.15
31 0.15
32 0.15
33 0.15
4 -0.55
5 -0.05
7 -0.01
8 0.03
9 -0.15

> <PUBCHEM_EFFECTIVE_ROTOR_COUNT>
2.2

> <PUBCHEM_PHARMACOPHORE_FEATURES>
9
1 1 acceptor
1 2 acceptor
1 3 cation
1 3 donor
1 4 donor
5 3 5 6 9 12 rings
5 4 7 8 11 13 rings
6 6 9 14 15 17 19 rings
6 8 11 16 18 20 21 rings

> <PUBCHEM_HEAVY_ATOM_COUNT>
22

> <PUBCHEM_ATOM_DEF_STEREO_COUNT>
0

> <PUBCHEM_ATOM_UDEF_STEREO_COUNT>
0

> <PUBCHEM_BOND_DEF_STEREO_COUNT>
0

> <PUBCHEM_BOND_UDEF_STEREO_COUNT>
1

> <PUBCHEM_ISOTOPIC_ATOM_COUNT>
0

> <PUBCHEM_COMPONENT_COUNT>
1

> <PUBCHEM_CACTVS_TAUTO_COUNT>
5

> <PUBCHEM_CONFORMER_ID>
0037DFE700000001

> <PUBCHEM_MMFF94_ENERGY>
77.6039

> <PUBCHEM_FEATURE_SELFOVERLAP>
45.854

> <PUBCHEM_SHAPE_FINGERPRINT>
10165383 225 17917724487113934571
10369192 42 16338619304738146776
10498660 4 18272087132932777305
10615611 76 17823157699021205404
10670039 82 18409737222823219252
10759866 29 18336264522701719978
10906281 52 18264775372962241341
11370993 144 14779535734649181285
11552529 35 17169564110211589610
11595378 159 18186799158279462789
11640471 11 18041560243497338753
12107183 9 17830443995401390730
12173636 292 18412538791272234775
12236239 1 17895188934855016431
12390115 104 18058463027810291553
12596602 18 17530969107089974705
12788726 201 18189048854050271067
12916748 109 18411425033069009070
12969540 114 16271923813964668828
13583140 156 17240203235961219157
13782708 43 17346038981907538038
13911987 19 16056326145405162444
13965767 371 17681559125831878213
14251757 17 17703518705221188644
14341114 328 17822015302155118409
14739800 52 18265879411079515592
15163728 17 18126576617577984681
15209294 21 18040433291450011700
15880784 105 15502377858877446657
16988056 13 16175372047160880629
17818456 19 18195234521831270890
18186145 218 17060336322858014102
20510252 161 18272090461953872721
20603629 256 16298934347608294664
20645477 56 18131072661898718126
21033648 29 17418085529362692736
21033650 10 18264795232452921604
21065198 48 18040711442074608011
21065201 7 18201999975706831310
221357 26 15913329070243962665
23175994 123 16558760056279546626
23557571 272 18131073778637499420
23559900 14 17843405077182907206
3633792 109 17532350033998027055
38570 142 17170145692492569004
392239 28 17532677778477732113
469060 322 18267043768112379537
474 4 17458349688485474068
5161694 15 17275105046077056870
633830 44 17748832916929192678
7808743 9 18411983524973334985
9849439 229 17979074878070989641
9981440 41 18335987463574167659

> <PUBCHEM_SHAPE_MULTIPOLES>
431.05
10.61
2.55
1.36
6.34
1.63
0.29
4.55
-0.36
-4.22
-0.28
1.6
-0.2
-0.57

> <PUBCHEM_SHAPE_SELFOVERLAP>
977.524

> <PUBCHEM_SHAPE_VOLUME>
227.5

> <PUBCHEM_COORDINATE_TYPE>
2
5
10

$$$$
