24905165
  -OEChem-10052115153D

 35 38  0     0  0  0  0  0  0999 V2000
   -5.3220    0.2673    0.8622 O   0  0  0  0  0  0  0  0  0  0  0  0
    2.3918    1.0241    0.0353 N   0  0  0  0  0  0  0  0  0  0  0  0
    1.1053    1.4014   -0.0842 N   0  0  0  0  0  0  0  0  0  0  0  0
    3.7223   -0.9928    0.1923 N   0  0  0  0  0  0  0  0  0  0  0  0
    2.3345   -2.9973    0.1136 N   0  0  0  0  0  0  0  0  0  0  0  0
   -0.0417   -2.9136   -0.0952 N   0  0  0  0  0  0  0  0  0  0  0  0
   -4.1544    0.2816    1.6058 N   0  0  0  0  0  0  0  0  0  0  0  0
   -5.0669    0.2385   -0.4981 N   0  0  0  0  0  0  0  0  0  0  0  0
    3.4252    2.0299    0.1038 C   0  0  0  0  0  0  0  0  0  0  0  0
    2.5616   -0.3279    0.0780 C   0  0  0  0  0  0  0  0  0  0  0  0
    1.2945   -0.8754   -0.0205 C   0  0  0  0  0  0  0  0  0  0  0  0
    0.4421    0.2403   -0.1175 C   0  0  0  0  0  0  0  0  0  0  0  0
   -0.9916    0.2389   -0.2415 C   0  0  0  0  0  0  0  0  0  0  0  0
    3.2612    2.9224    1.3366 C   0  0  0  0  0  0  0  0  0  0  0  0
    3.4787    2.8703   -1.1744 C   0  0  0  0  0  0  0  0  0  0  0  0
    1.2018   -2.2630    0.0003 C   0  0  0  0  0  0  0  0  0  0  0  0
   -1.7636    0.2646    0.9342 C   0  0  0  0  0  0  0  0  0  0  0  0
   -1.5565    0.2122   -1.5438 C   0  0  0  0  0  0  0  0  0  0  0  0
   -3.1537    0.2617    0.7165 C   0  0  0  0  0  0  0  0  0  0  0  0
   -3.7337    0.2344   -0.6208 C   0  0  0  0  0  0  0  0  0  0  0  0
   -2.9425    0.2088   -1.7840 C   0  0  0  0  0  0  0  0  0  0  0  0
    3.5077   -2.3261    0.2014 C   0  0  0  0  0  0  0  0  0  0  0  0
    4.3846    1.5069    0.1977 H   0  0  0  0  0  0  0  0  0  0  0  0
    2.3361    3.5077    1.2929 H   0  0  0  0  0  0  0  0  0  0  0  0
    4.0986    3.6231    1.4205 H   0  0  0  0  0  0  0  0  0  0  0  0
    3.2314    2.3209    2.2519 H   0  0  0  0  0  0  0  0  0  0  0  0
    2.5619    3.4537   -1.3146 H   0  0  0  0  0  0  0  0  0  0  0  0
    3.6044    2.2317   -2.0557 H   0  0  0  0  0  0  0  0  0  0  0  0
    4.3205    3.5700   -1.1419 H   0  0  0  0  0  0  0  0  0  0  0  0
   -1.3305    0.2845    1.9273 H   0  0  0  0  0  0  0  0  0  0  0  0
   -0.8960    0.1927   -2.4114 H   0  0  0  0  0  0  0  0  0  0  0  0
   -3.3551    0.1881   -2.7847 H   0  0  0  0  0  0  0  0  0  0  0  0
    4.3945   -2.9443    0.2910 H   0  0  0  0  0  0  0  0  0  0  0  0
   -0.9022   -2.3932   -0.1820 H   0  0  0  0  0  0  0  0  0  0  0  0
   -0.0641   -3.9245   -0.0771 H   0  0  0  0  0  0  0  0  0  0  0  0
  1  7  1  0  0  0  0
  1  8  1  0  0  0  0
  2  3  1  0  0  0  0
  2  9  1  0  0  0  0
  2 10  1  0  0  0  0
  3 12  2  0  0  0  0
  4 10  2  0  0  0  0
  4 22  1  0  0  0  0
  5 16  1  0  0  0  0
  5 22  2  0  0  0  0
  6 16  1  0  0  0  0
  6 34  1  0  0  0  0
  6 35  1  0  0  0  0
  7 19  2  0  0  0  0
  8 20  2  0  0  0  0
  9 14  1  0  0  0  0
  9 15  1  0  0  0  0
  9 23  1  0  0  0  0
 10 11  1  0  0  0  0
 11 12  1  0  0  0  0
 11 16  2  0  0  0  0
 12 13  1  0  0  0  0
 13 17  2  0  0  0  0
 13 18  1  0  0  0  0
 14 24  1  0  0  0  0
 14 25  1  0  0  0  0
 14 26  1  0  0  0  0
 15 27  1  0  0  0  0
 15 28  1  0  0  0  0
 15 29  1  0  0  0  0
 17 19  1  0  0  0  0
 17 30  1  0  0  0  0
 18 21  2  0  0  0  0
 18 31  1  0  0  0  0
 19 20  1  0  0  0  0
 20 21  1  0  0  0  0
 21 32  1  0  0  0  0
 22 33  1  0  0  0  0
M  END
> <PUBCHEM_COMPOUND_CID>
24905165

> <PUBCHEM_CONFORMER_RMSD>
0.6

> <PUBCHEM_CONFORMER_DIVERSEORDER>
2
3
6
4
5
1

> <PUBCHEM_MMFF94_PARTIAL_CHARGES>
25
1 0.24
10 0.11
12 0.23
13 0.05
16 0.41
17 -0.15
18 -0.15
19 0.29
2 0.31
20 0.29
21 -0.15
22 0.47
3 -0.71
30 0.15
31 0.15
32 0.15
33 0.15
34 0.4
35 0.4
4 -0.57
5 -0.62
6 -0.9
7 -0.41
8 -0.41
9 0.26

> <PUBCHEM_EFFECTIVE_ROTOR_COUNT>
2

> <PUBCHEM_PHARMACOPHORE_FEATURES>
12
1 3 acceptor
1 6 cation
1 6 donor
1 7 acceptor
1 8 acceptor
3 2 4 10 cation
3 4 5 22 cation
3 9 14 15 hydrophobe
5 1 7 8 19 20 rings
5 2 3 10 11 12 rings
6 13 17 18 19 20 21 rings
6 4 5 10 11 16 22 rings

> <PUBCHEM_HEAVY_ATOM_COUNT>
22

> <PUBCHEM_ATOM_DEF_STEREO_COUNT>
0

> <PUBCHEM_ATOM_UDEF_STEREO_COUNT>
0

> <PUBCHEM_BOND_DEF_STEREO_COUNT>
0

> <PUBCHEM_BOND_UDEF_STEREO_COUNT>
0

> <PUBCHEM_ISOTOPIC_ATOM_COUNT>
0

> <PUBCHEM_COMPONENT_COUNT>
1

> <PUBCHEM_CACTVS_TAUTO_COUNT>
5

> <PUBCHEM_CONFORMER_ID>
017C05CD00000002

> <PUBCHEM_MMFF94_ENERGY>
54.3791

> <PUBCHEM_FEATURE_SELFOVERLAP>
61.349

> <PUBCHEM_SHAPE_FINGERPRINT>
10165383 225 18263374749097540108
1100329 8 18412259554364141586
11582403 64 16306481502706055613
12035758 1 18335123299190322426
12236239 1 17703785895094383871
12390115 104 17907304600096300820
12553582 1 18197211447838365406
12644460 14 18409166606410741776
12895836 83 17608675026000381012
13140716 1 18337945814005313178
13533116 47 18412548700188762075
13631057 29 17839733000662127535
13955234 65 18410855460328771906
14386348 63 17604155826713634683
14739800 52 16844991516419046720
14955137 171 18271815553977441486
15342168 16 18263085581433378269
15842332 3 17774706632790225943
15961568 22 16371297730512307500
16945 1 18410568453866804054
1813 80 17914344476659024654
18186145 218 18412825815330815532
18785283 64 18260550043637750596
19784866 34 18199181974311956136
200 152 18270672066163132295
204376 136 18264490757177325821
20645477 70 18334568023620856527
20739085 24 18335150764689203876
21065201 7 16443345326150763915
22079108 93 18127696139489781497
22112679 90 17274809247289643949
2255824 54 18341894069802599246
23557571 272 17023183782464531829
23559900 14 16443346433856986110
2748010 2 18264492974097842838
31174 14 18334577889092235054
312423 11 18201451228888303161
3286 77 18189057507823257455
4340502 62 18340491174712211187
458136 41 18336271236020524428
474 4 18271799189735137160
495365 180 18409441496838837585
5104073 3 18409732876606141539
6034566 193 17755024438134510956
6049 1 17895471414970093325
621550 34 18113899377290012229
633830 44 17987239013530570324
7364860 26 18412540994880302216
7495541 125 17894354345721791098
77492 1 17703501134509766519
81228 2 17041469524307398000
8272917 22 18340774754017058021
84936 182 18130498730025515072
9981440 41 15906264974424403064
9999458 23 18260833700484513934

> <PUBCHEM_SHAPE_MULTIPOLES>
412.01
8.99
3.03
1.25
8.46
0.87
-0.14
-3.04
1.17
-5.57
0.16
0.97
-0.58
-0.13

> <PUBCHEM_SHAPE_SELFOVERLAP>
917.848

> <PUBCHEM_SHAPE_VOLUME>
219.6

> <PUBCHEM_COORDINATE_TYPE>
2
5
10

$$$$
