24905334
  -OEChem-10052115143D

 46 48  0     1  0  0  0  0  0999 V2000
    4.8274    1.2332   -1.6094 O   0  0  0  0  0  0  0  0  0  0  0  0
   -3.7578    1.2641   -1.9331 O   0  0  0  0  0  0  0  0  0  0  0  0
   -5.3005    0.8308    0.3380 O   0  0  0  0  0  0  0  0  0  0  0  0
    2.2612    0.3140    0.7452 N   0  0  0  0  0  0  0  0  0  0  0  0
    1.0463    0.8888    0.8185 N   0  0  0  0  0  0  0  0  0  0  0  0
    3.2696   -1.8204    0.2067 N   0  0  0  0  0  0  0  0  0  0  0  0
    1.5913   -3.4836   -0.3997 N   0  0  0  0  0  0  0  0  0  0  0  0
   -0.7461   -3.0021   -0.4397 N   0  0  0  0  0  0  0  0  0  0  0  0
    3.6584    2.3837    0.1920 C   0  0  2  0  0  0  0  0  0  0  0  0
    3.4900    1.1269    1.0725 C   0  0  0  0  0  0  0  0  0  0  0  0
    2.2230   -0.9947    0.3653 C   0  0  0  0  0  0  0  0  0  0  0  0
    0.8862   -1.2987    0.1763 C   0  0  0  0  0  0  0  0  0  0  0  0
    0.2133   -0.0984    0.4710 C   0  0  0  0  0  0  0  0  0  0  0  0
    3.7119    2.0598   -1.3088 C   0  0  0  0  0  0  0  0  0  0  0  0
    4.9258    3.1327    0.6202 C   0  0  0  0  0  0  0  0  0  0  0  0
   -1.2071    0.1430    0.4329 C   0  0  0  0  0  0  0  0  0  0  0  0
    0.5830   -2.5968   -0.2208 C   0  0  0  0  0  0  0  0  0  0  0  0
   -1.8080    0.5923   -0.7430 C   0  0  0  0  0  0  0  0  0  0  0  0
   -1.9810   -0.0739    1.5729 C   0  0  0  0  0  0  0  0  0  0  0  0
   -3.1829    0.8245   -0.7789 C   0  0  0  0  0  0  0  0  0  0  0  0
    2.8541   -3.0465   -0.1779 C   0  0  0  0  0  0  0  0  0  0  0  0
   -3.3560    0.1583    1.5370 C   0  0  0  0  0  0  0  0  0  0  0  0
   -3.9568    0.6074    0.3610 C   0  0  0  0  0  0  0  0  0  0  0  0
   -4.2260    0.2708   -2.8432 C   0  0  0  0  0  0  0  0  0  0  0  0
   -6.0193    0.5848    1.5450 C   0  0  0  0  0  0  0  0  0  0  0  0
    2.7990    3.0462    0.3570 H   0  0  0  0  0  0  0  0  0  0  0  0
    4.3445    0.4485    0.9785 H   0  0  0  0  0  0  0  0  0  0  0  0
    3.3715    1.3932    2.1294 H   0  0  0  0  0  0  0  0  0  0  0  0
    3.8070    2.9839   -1.8896 H   0  0  0  0  0  0  0  0  0  0  0  0
    2.8011    1.5501   -1.6384 H   0  0  0  0  0  0  0  0  0  0  0  0
    5.8209    2.5116    0.5096 H   0  0  0  0  0  0  0  0  0  0  0  0
    4.8562    3.4361    1.6704 H   0  0  0  0  0  0  0  0  0  0  0  0
    5.0631    4.0386    0.0205 H   0  0  0  0  0  0  0  0  0  0  0  0
   -1.2118    0.7645   -1.6367 H   0  0  0  0  0  0  0  0  0  0  0  0
   -1.5268   -0.4248    2.4967 H   0  0  0  0  0  0  0  0  0  0  0  0
    3.6369   -3.7817   -0.3305 H   0  0  0  0  0  0  0  0  0  0  0  0
    4.8101    1.0673   -2.5673 H   0  0  0  0  0  0  0  0  0  0  0  0
   -3.8938   -0.0318    2.4595 H   0  0  0  0  0  0  0  0  0  0  0  0
   -1.5181   -2.3639   -0.3146 H   0  0  0  0  0  0  0  0  0  0  0  0
   -0.9224   -3.9553   -0.7275 H   0  0  0  0  0  0  0  0  0  0  0  0
   -4.6608    0.7772   -3.7092 H   0  0  0  0  0  0  0  0  0  0  0  0
   -4.9984   -0.3476   -2.3750 H   0  0  0  0  0  0  0  0  0  0  0  0
   -3.3972   -0.3575   -3.1845 H   0  0  0  0  0  0  0  0  0  0  0  0
   -7.0714    0.8140    1.3458 H   0  0  0  0  0  0  0  0  0  0  0  0
   -5.6956    1.2525    2.3508 H   0  0  0  0  0  0  0  0  0  0  0  0
   -5.9732   -0.4707    1.8342 H   0  0  0  0  0  0  0  0  0  0  0  0
  1 14  1  0  0  0  0
  1 37  1  0  0  0  0
  2 20  1  0  0  0  0
  2 24  1  0  0  0  0
  3 23  1  0  0  0  0
  3 25  1  0  0  0  0
  4  5  1  0  0  0  0
  4 10  1  0  0  0  0
  4 11  1  0  0  0  0
  5 13  2  0  0  0  0
  6 11  2  0  0  0  0
  6 21  1  0  0  0  0
  7 17  1  0  0  0  0
  7 21  2  0  0  0  0
  8 17  1  0  0  0  0
  8 39  1  0  0  0  0
  8 40  1  0  0  0  0
  9 10  1  0  0  0  0
  9 14  1  0  0  0  0
  9 15  1  0  0  0  0
  9 26  1  0  0  0  0
 10 27  1  0  0  0  0
 10 28  1  0  0  0  0
 11 12  1  0  0  0  0
 12 13  1  0  0  0  0
 12 17  2  0  0  0  0
 13 16  1  0  0  0  0
 14 29  1  0  0  0  0
 14 30  1  0  0  0  0
 15 31  1  0  0  0  0
 15 32  1  0  0  0  0
 15 33  1  0  0  0  0
 16 18  2  0  0  0  0
 16 19  1  0  0  0  0
 18 20  1  0  0  0  0
 18 34  1  0  0  0  0
 19 22  2  0  0  0  0
 19 35  1  0  0  0  0
 20 23  2  0  0  0  0
 21 36  1  0  0  0  0
 22 23  1  0  0  0  0
 22 38  1  0  0  0  0
 24 41  1  0  0  0  0
 24 42  1  0  0  0  0
 24 43  1  0  0  0  0
 25 44  1  0  0  0  0
 25 45  1  0  0  0  0
 25 46  1  0  0  0  0
M  END
> <PUBCHEM_COMPOUND_CID>
24905334

> <PUBCHEM_CONFORMER_RMSD>
0.8

> <PUBCHEM_CONFORMER_DIVERSEORDER>
1
51
49
43
21
41
45
56
23
52
30
36
12
22
26
44
37
50
58
47
11
57
46
53
18
48
39
28
31
38
40
20
10
42
6
34
24
59
35
55
7
25
16
5
54
15
19
13
17
27
8
32
33
2
29
3
14
9
4

> <PUBCHEM_MMFF94_PARTIAL_CHARGES>
29
1 -0.68
10 0.26
11 0.11
13 0.23
14 0.28
16 0.05
17 0.41
18 -0.15
19 -0.15
2 -0.36
20 0.08
21 0.47
22 -0.15
23 0.08
24 0.28
25 0.28
3 -0.36
34 0.15
35 0.15
36 0.15
37 0.4
38 0.15
39 0.4
4 0.31
40 0.4
5 -0.71
6 -0.57
7 -0.62
8 -0.9

> <PUBCHEM_EFFECTIVE_ROTOR_COUNT>
6

> <PUBCHEM_PHARMACOPHORE_FEATURES>
13
1 1 acceptor
1 1 donor
1 15 hydrophobe
1 2 acceptor
1 3 acceptor
1 5 acceptor
1 8 cation
1 8 donor
3 4 6 11 cation
3 6 7 21 cation
5 4 5 11 12 13 rings
6 16 18 19 20 22 23 rings
6 6 7 11 12 17 21 rings

> <PUBCHEM_HEAVY_ATOM_COUNT>
25

> <PUBCHEM_ATOM_DEF_STEREO_COUNT>
1

> <PUBCHEM_ATOM_UDEF_STEREO_COUNT>
0

> <PUBCHEM_BOND_DEF_STEREO_COUNT>
0

> <PUBCHEM_BOND_UDEF_STEREO_COUNT>
0

> <PUBCHEM_ISOTOPIC_ATOM_COUNT>
0

> <PUBCHEM_COMPONENT_COUNT>
1

> <PUBCHEM_CACTVS_TAUTO_COUNT>
5

> <PUBCHEM_CONFORMER_ID>
017C067600000001

> <PUBCHEM_MMFF94_ENERGY>
81.3822

> <PUBCHEM_FEATURE_SELFOVERLAP>
66.254

> <PUBCHEM_SHAPE_FINGERPRINT>
10165383 225 18337405923494134852
10369192 42 18042702760849376244
11582403 64 17461962644786393529
11595378 159 14923663077482465853
11725454 13 17388221677040147621
11796584 16 13542468661203997252
12236239 1 17131262455465393859
12403259 118 17314218037779529580
12403259 415 17749673987421054261
12616971 3 17988354867645420755
12730499 353 18338530706276457531
12788726 201 17401493044754838180
12895836 83 17900283076113249084
12969540 114 18339078301975503044
13134695 92 18047748196513371430
13140716 1 18411417341310505874
13911987 19 18339075024636232204
13955234 65 18338241470536865018
15342168 16 18411985788426192969
15842332 3 17560517301017804139
15961568 22 17168156666460996493
17134986 127 18337676429477526532
1813 80 17556311566005174126
18785283 64 18336267860128964866
19784866 34 18271245027374480808
204376 136 18340204188780691992
20645477 70 18337110064260298691
22182313 1 17749109959309535645
2255824 54 18200593584101756906
23557571 272 17240773839314077997
23559900 14 18264483997057181370
283562 15 17764579215965969626
341906 21 15864068732968786397
3729539 64 18123218769692152278
458136 41 18413110558498082898
469060 322 17974289025945400411
474 4 18343300362037616834
57527293 21 17821731662878790547
6034566 193 18119248604043004596
621550 34 18260832570876284441
633830 44 17988936599280220840
7399639 24 18186800266908331385
8272917 22 18271251521201047195
9862522 239 17969492891626231772

> <PUBCHEM_SHAPE_MULTIPOLES>
471.98
11.04
3.35
1.74
6.19
2.56
-0.99
-8.46
-0.27
-5.58
-0.44
2.24
-0.7
0.14

> <PUBCHEM_SHAPE_SELFOVERLAP>
1013.94

> <PUBCHEM_SHAPE_VOLUME>
260.2

> <PUBCHEM_COORDINATE_TYPE>
2
5
10

$$$$
