24905219
  -OEChem-10052115143D

 42 45  0     0  0  0  0  0  0999 V2000
   -2.8749    1.0502   -0.1012 N   0  0  0  0  0  0  0  0  0  0  0  0
   -1.6042    1.3976    0.1755 N   0  0  0  0  0  0  0  0  0  0  0  0
   -4.2116   -0.9334   -0.4772 N   0  0  0  0  0  0  0  0  0  0  0  0
   -2.8744   -2.9668   -0.3121 N   0  0  0  0  0  0  0  0  0  0  0  0
    3.5997    0.2486   -1.3137 N   0  0  0  0  0  0  0  0  0  0  0  0
   -0.5361   -2.9376    0.1662 N   0  0  0  0  0  0  0  0  0  0  0  0
   -3.8774    2.0783   -0.2509 C   0  0  0  0  0  0  0  0  0  0  0  0
   -1.8219   -0.8717    0.0119 C   0  0  0  0  0  0  0  0  0  0  0  0
   -3.0606   -0.2960   -0.2097 C   0  0  0  0  0  0  0  0  0  0  0  0
   -0.9680    0.2229    0.2432 C   0  0  0  0  0  0  0  0  0  0  0  0
    0.4389    0.1888    0.5273 C   0  0  0  0  0  0  0  0  0  0  0  0
   -4.0617    2.8774    1.0415 C   0  0  0  0  0  0  0  0  0  0  0  0
   -3.5603    3.0069   -1.4257 C   0  0  0  0  0  0  0  0  0  0  0  0
   -1.7500   -2.2595   -0.0463 C   0  0  0  0  0  0  0  0  0  0  0  0
    1.3639    0.2343   -0.5188 C   0  0  0  0  0  0  0  0  0  0  0  0
    0.8805    0.1103    1.8423 C   0  0  0  0  0  0  0  0  0  0  0  0
    2.7354    0.2031   -0.2822 C   0  0  0  0  0  0  0  0  0  0  0  0
    3.1765    0.1234    1.0553 C   0  0  0  0  0  0  0  0  0  0  0  0
    2.2464    0.0777    2.1077 C   0  0  0  0  0  0  0  0  0  0  0  0
   -4.0189   -2.2697   -0.5083 C   0  0  0  0  0  0  0  0  0  0  0  0
    4.5571    0.0921    1.2940 C   0  0  0  0  0  0  0  0  0  0  0  0
    4.9241    0.2161   -1.0404 C   0  0  0  0  0  0  0  0  0  0  0  0
    5.4500    0.1388    0.2332 C   0  0  0  0  0  0  0  0  0  0  0  0
    5.8471    0.2680   -2.2116 C   0  0  0  0  0  0  0  0  0  0  0  0
   -4.8283    1.5779   -0.4704 H   0  0  0  0  0  0  0  0  0  0  0  0
   -3.1573    3.4375    1.3042 H   0  0  0  0  0  0  0  0  0  0  0  0
   -4.2968    2.2130    1.8803 H   0  0  0  0  0  0  0  0  0  0  0  0
   -4.8830    3.5945    0.9386 H   0  0  0  0  0  0  0  0  0  0  0  0
   -2.6366    3.5719   -1.2578 H   0  0  0  0  0  0  0  0  0  0  0  0
   -4.3713    3.7267   -1.5791 H   0  0  0  0  0  0  0  0  0  0  0  0
   -3.4367    2.4351   -2.3521 H   0  0  0  0  0  0  0  0  0  0  0  0
    1.0090    0.2952   -1.5476 H   0  0  0  0  0  0  0  0  0  0  0  0
    0.1772    0.0733    2.6704 H   0  0  0  0  0  0  0  0  0  0  0  0
    2.5816    0.0160    3.1407 H   0  0  0  0  0  0  0  0  0  0  0  0
   -4.8998   -2.8667   -0.7187 H   0  0  0  0  0  0  0  0  0  0  0  0
    4.9441    0.0310    2.3087 H   0  0  0  0  0  0  0  0  0  0  0  0
    0.3177   -2.4378    0.3665 H   0  0  0  0  0  0  0  0  0  0  0  0
   -0.5281   -3.9476    0.1154 H   0  0  0  0  0  0  0  0  0  0  0  0
    6.5195    0.1147    0.4110 H   0  0  0  0  0  0  0  0  0  0  0  0
    6.4692   -0.6320   -2.2465 H   0  0  0  0  0  0  0  0  0  0  0  0
    5.2879    0.3282   -3.1511 H   0  0  0  0  0  0  0  0  0  0  0  0
    6.4946    1.1484   -2.1477 H   0  0  0  0  0  0  0  0  0  0  0  0
  1  2  1  0  0  0  0
  1  7  1  0  0  0  0
  1  9  1  0  0  0  0
  2 10  2  0  0  0  0
  3  9  2  0  0  0  0
  3 20  1  0  0  0  0
  4 14  1  0  0  0  0
  4 20  2  0  0  0  0
  5 17  1  0  0  0  0
  5 22  2  0  0  0  0
  6 14  1  0  0  0  0
  6 37  1  0  0  0  0
  6 38  1  0  0  0  0
  7 12  1  0  0  0  0
  7 13  1  0  0  0  0
  7 25  1  0  0  0  0
  8  9  1  0  0  0  0
  8 10  1  0  0  0  0
  8 14  2  0  0  0  0
 10 11  1  0  0  0  0
 11 15  2  0  0  0  0
 11 16  1  0  0  0  0
 12 26  1  0  0  0  0
 12 27  1  0  0  0  0
 12 28  1  0  0  0  0
 13 29  1  0  0  0  0
 13 30  1  0  0  0  0
 13 31  1  0  0  0  0
 15 17  1  0  0  0  0
 15 32  1  0  0  0  0
 16 19  2  0  0  0  0
 16 33  1  0  0  0  0
 17 18  2  0  0  0  0
 18 19  1  0  0  0  0
 18 21  1  0  0  0  0
 19 34  1  0  0  0  0
 20 35  1  0  0  0  0
 21 23  2  0  0  0  0
 21 36  1  0  0  0  0
 22 23  1  0  0  0  0
 22 24  1  0  0  0  0
 23 39  1  0  0  0  0
 24 40  1  0  0  0  0
 24 41  1  0  0  0  0
 24 42  1  0  0  0  0
M  END
> <PUBCHEM_COMPOUND_CID>
24905219

> <PUBCHEM_CONFORMER_RMSD>
0.6

> <PUBCHEM_CONFORMER_DIVERSEORDER>
1
6
3
4
5
2

> <PUBCHEM_MMFF94_PARTIAL_CHARGES>
28
1 0.31
10 0.23
11 0.05
14 0.41
15 -0.15
16 -0.15
17 0.31
19 -0.15
2 -0.71
20 0.47
21 -0.15
22 0.17
23 -0.15
24 0.14
3 -0.57
32 0.15
33 0.15
34 0.15
35 0.15
36 0.15
37 0.4
38 0.4
39 0.15
4 -0.62
5 -0.62
6 -0.9
7 0.26
9 0.11

> <PUBCHEM_EFFECTIVE_ROTOR_COUNT>
2

> <PUBCHEM_PHARMACOPHORE_FEATURES>
11
1 2 acceptor
1 5 acceptor
1 6 cation
1 6 donor
3 1 3 9 cation
3 3 4 20 cation
3 7 12 13 hydrophobe
5 1 2 8 9 10 rings
6 11 15 16 17 18 19 rings
6 3 4 8 9 14 20 rings
6 5 17 18 21 22 23 rings

> <PUBCHEM_HEAVY_ATOM_COUNT>
24

> <PUBCHEM_ATOM_DEF_STEREO_COUNT>
0

> <PUBCHEM_ATOM_UDEF_STEREO_COUNT>
0

> <PUBCHEM_BOND_DEF_STEREO_COUNT>
0

> <PUBCHEM_BOND_UDEF_STEREO_COUNT>
0

> <PUBCHEM_ISOTOPIC_ATOM_COUNT>
0

> <PUBCHEM_COMPONENT_COUNT>
1

> <PUBCHEM_CACTVS_TAUTO_COUNT>
5

> <PUBCHEM_CONFORMER_ID>
017C060300000001

> <PUBCHEM_MMFF94_ENERGY>
62.4323

> <PUBCHEM_FEATURE_SELFOVERLAP>
56.131

> <PUBCHEM_SHAPE_FINGERPRINT>
10165383 225 18270411469149632993
105312 117 18339920399091344205
107951 10 18339652152461138879
11796584 16 18272373015247495222
12107183 9 17901088734272376298
12236239 1 17676480661710613291
12390115 104 18200882760466415657
12403259 415 17918273168837722024
12616971 3 17240760654091526800
12714826 92 18272372026629232395
12788726 201 18260539070054845379
12954195 1 18272936012133787663
13140716 1 18194958785221199747
13544653 18 16200160893638710344
13617811 41 18334855069560813479
14294032 229 18336544899185687549
14386348 63 17561085855972468914
14790565 3 17839469890633570537
15021287 119 17168977886415524392
15042514 8 18265894851492400683
15842332 3 17749934605519624538
15961568 22 18048022262840834280
16752209 62 18337377327485723203
17818456 19 17974552616662193992
17844677 252 18342176708773593048
17870717 6 18272660068436975903
20645477 70 16558750127000719852
20693207 138 17917151722896257344
20871999 31 18411985779762112876
21033648 29 17203314620458762672
21033650 10 18263380139428708624
21065201 7 18342451560847254250
21315764 119 18196669410470436436
21756936 100 17458923586268659480
22122407 14 16370726989825924965
22182313 1 17632004355974415088
22393880 68 18272376343556869598
22907989 373 18115284740708591709
2297311 6 18341618169682889239
23175994 123 17132119073406557896
23366157 5 17826504470977835083
23557571 272 18200868582457624792
23559900 14 18200027477257403408
268830 7 15936685987247665260
312425 83 18190482531544835556
3298306 158 17988642961130448558
34797466 226 18129670823998441628
46194498 28 17987516095035000104
474 4 16515687779816006956
5283173 99 18343863338225455296
559249 180 18336820893272158922
57527295 17 17131263537712522421
59755656 215 18202561770435213575
59755656 520 17702683042351388881
602551 16 18341326781958550298
77492 1 17676756630549722298

> <PUBCHEM_SHAPE_MULTIPOLES>
464.02
11.65
2.78
1.59
10.52
0.49
-0.11
-3.04
3.91
-6.42
0.47
2.15
-0.5
-0.43

> <PUBCHEM_SHAPE_SELFOVERLAP>
1035.658

> <PUBCHEM_SHAPE_VOLUME>
245

> <PUBCHEM_COORDINATE_TYPE>
2
5
10

$$$$
