44340971
  -OEChem-10052115143D

 71 77  0     1  0  0  0  0  0999 V2000
   -4.1441   -0.9464    0.4882 O   0  0  0  0  0  0  0  0  0  0  0  0
   -2.6991    1.2050   -2.1317 O   0  0  0  0  0  0  0  0  0  0  0  0
   -5.0960    2.0438   -1.0344 O   0  0  0  0  0  0  0  0  0  0  0  0
   -7.2905    0.3034   -0.9400 O   0  0  0  0  0  0  0  0  0  0  0  0
   -5.8471   -1.6708    2.5166 O   0  0  0  0  0  0  0  0  0  0  0  0
    1.5353   -4.0613    0.1511 O   0  0  0  0  0  0  0  0  0  0  0  0
    3.3846   -2.5105    0.4268 O   0  0  0  0  0  0  0  0  0  0  0  0
    4.0970    2.0439    0.7459 O   0  0  0  0  0  0  0  0  0  0  0  0
    7.1107   -2.6766    0.0178 O   0  0  0  0  0  0  0  0  0  0  0  0
    6.9018    0.8074   -2.3628 O   0  0  0  0  0  0  0  0  0  0  0  0
   -1.8301   -0.6779   -0.0069 N   0  0  0  0  0  0  0  0  0  0  0  0
   -1.3696    2.0587    0.1888 N   0  0  0  0  0  0  0  0  0  0  0  0
    4.0929   -0.3057    0.6183 N   0  0  0  0  0  0  0  0  0  0  0  0
    5.4405   -0.5414    0.7431 N   0  0  0  0  0  0  0  0  0  0  0  0
   -3.2042   -0.0461   -0.1140 C   0  0  1  0  0  0  0  0  0  0  0  0
   -3.5900    0.2425   -1.5766 C   0  0  1  0  0  0  0  0  0  0  0  0
   -0.5754   -0.1975    0.1472 C   0  0  0  0  0  0  0  0  0  0  0  0
   -5.0282    0.7611   -1.6642 C   0  0  1  0  0  0  0  0  0  0  0  0
   -5.9651   -0.2122   -0.9458 C   0  0  1  0  0  0  0  0  0  0  0  0
    0.5776   -1.0490    0.2186 C   0  0  0  0  0  0  0  0  0  0  0  0
   -5.4878   -0.4543    0.4923 C   0  0  1  0  0  0  0  0  0  0  0  0
   -1.5835   -2.0416   -0.0560 C   0  0  0  0  0  0  0  0  0  0  0  0
   -0.3438    1.1796    0.2458 C   0  0  0  0  0  0  0  0  0  0  0  0
   -0.1776   -2.3022    0.0734 C   0  0  0  0  0  0  0  0  0  0  0  0
    1.8946   -0.6257    0.3761 C   0  0  0  0  0  0  0  0  0  0  0  0
    1.0216    1.5906    0.4078 C   0  0  0  0  0  0  0  0  0  0  0  0
    2.1248    0.7441    0.4744 C   0  0  0  0  0  0  0  0  0  0  0  0
    0.7193    3.0287    0.4552 C   0  0  0  0  0  0  0  0  0  0  0  0
   -6.3501   -1.4913    1.2053 C   0  0  0  0  0  0  0  0  0  0  0  0
   -0.6914    3.2608    0.3235 C   0  0  0  0  0  0  0  0  0  0  0  0
    3.1726   -1.3175    0.4691 C   0  0  0  0  0  0  0  0  0  0  0  0
   -2.5163   -3.0791   -0.2071 C   0  0  0  0  0  0  0  0  0  0  0  0
    0.2333   -3.6568    0.0418 C   0  0  0  0  0  0  0  0  0  0  0  0
    3.5557    0.9620    0.6325 C   0  0  0  0  0  0  0  0  0  0  0  0
   -2.0584   -4.3969   -0.2317 C   0  0  0  0  0  0  0  0  0  0  0  0
   -0.7051   -4.6834   -0.1094 C   0  0  0  0  0  0  0  0  0  0  0  0
    1.5495    4.1661    0.6022 C   0  0  0  0  0  0  0  0  0  0  0  0
   -1.2315    4.5558    0.3386 C   0  0  0  0  0  0  0  0  0  0  0  0
    6.0670   -0.5818   -0.5713 C   0  0  0  0  0  0  0  0  0  0  0  0
    1.0005    5.4529    0.6160 C   0  0  0  0  0  0  0  0  0  0  0  0
   -0.3689    5.6426    0.4861 C   0  0  0  0  0  0  0  0  0  0  0  0
    7.3740   -1.3692   -0.4769 C   0  0  0  0  0  0  0  0  0  0  0  0
    6.3002    0.8465   -1.0737 C   0  0  0  0  0  0  0  0  0  0  0  0
   -3.2215    0.7772    0.5911 H   0  0  0  0  0  0  0  0  0  0  0  0
   -3.5057   -0.6776   -2.1682 H   0  0  0  0  0  0  0  0  0  0  0  0
   -5.3338    0.9139   -2.7044 H   0  0  0  0  0  0  0  0  0  0  0  0
   -5.9724   -1.1637   -1.4926 H   0  0  0  0  0  0  0  0  0  0  0  0
   -5.5229    0.4636    1.0924 H   0  0  0  0  0  0  0  0  0  0  0  0
   -6.2996   -2.4582    0.6937 H   0  0  0  0  0  0  0  0  0  0  0  0
   -7.3939   -1.1701    1.2705 H   0  0  0  0  0  0  0  0  0  0  0  0
   -2.3232    2.0020   -0.1031 H   0  0  0  0  0  0  0  0  0  0  0  0
   -3.5755   -2.9157   -0.3604 H   0  0  0  0  0  0  0  0  0  0  0  0
   -2.9765    1.3655   -3.0496 H   0  0  0  0  0  0  0  0  0  0  0  0
   -4.7672    1.9854   -0.1246 H   0  0  0  0  0  0  0  0  0  0  0  0
   -7.5527    0.4480   -1.8651 H   0  0  0  0  0  0  0  0  0  0  0  0
   -2.7701   -5.2083   -0.3606 H   0  0  0  0  0  0  0  0  0  0  0  0
   -0.3904   -5.7243   -0.1367 H   0  0  0  0  0  0  0  0  0  0  0  0
    2.6243    4.0585    0.7063 H   0  0  0  0  0  0  0  0  0  0  0  0
   -2.3012    4.7143    0.2374 H   0  0  0  0  0  0  0  0  0  0  0  0
    5.5485   -1.4421    1.2095 H   0  0  0  0  0  0  0  0  0  0  0  0
    5.4338   -1.1247   -1.2875 H   0  0  0  0  0  0  0  0  0  0  0  0
   -6.4062   -2.3383    2.9496 H   0  0  0  0  0  0  0  0  0  0  0  0
    1.6555    6.3127    0.7299 H   0  0  0  0  0  0  0  0  0  0  0  0
   -0.7760    6.6503    0.4993 H   0  0  0  0  0  0  0  0  0  0  0  0
    1.5874   -5.0310    0.1041 H   0  0  0  0  0  0  0  0  0  0  0  0
    8.0855   -0.8813    0.1990 H   0  0  0  0  0  0  0  0  0  0  0  0
    7.8436   -1.4691   -1.4609 H   0  0  0  0  0  0  0  0  0  0  0  0
    5.3658    1.3933   -1.2040 H   0  0  0  0  0  0  0  0  0  0  0  0
    6.9563    1.4092   -0.4006 H   0  0  0  0  0  0  0  0  0  0  0  0
    7.9634   -3.1421    0.0614 H   0  0  0  0  0  0  0  0  0  0  0  0
    7.0412    1.7286   -2.6414 H   0  0  0  0  0  0  0  0  0  0  0  0
  1 15  1  0  0  0  0
  1 21  1  0  0  0  0
  2 16  1  0  0  0  0
  2 53  1  0  0  0  0
  3 18  1  0  0  0  0
  3 54  1  0  0  0  0
  4 19  1  0  0  0  0
  4 55  1  0  0  0  0
  5 29  1  0  0  0  0
  5 62  1  0  0  0  0
  6 33  1  0  0  0  0
  6 65  1  0  0  0  0
  7 31  2  0  0  0  0
  8 34  2  0  0  0  0
  9 42  1  0  0  0  0
  9 70  1  0  0  0  0
 10 43  1  0  0  0  0
 10 71  1  0  0  0  0
 11 15  1  0  0  0  0
 11 17  1  0  0  0  0
 11 22  1  0  0  0  0
 12 23  1  0  0  0  0
 12 30  1  0  0  0  0
 12 51  1  0  0  0  0
 13 14  1  0  0  0  0
 13 31  1  0  0  0  0
 13 34  1  0  0  0  0
 14 39  1  0  0  0  0
 14 60  1  0  0  0  0
 15 16  1  0  0  0  0
 15 44  1  0  0  0  0
 16 18  1  0  0  0  0
 16 45  1  0  0  0  0
 17 20  1  0  0  0  0
 17 23  2  0  0  0  0
 18 19  1  0  0  0  0
 18 46  1  0  0  0  0
 19 21  1  0  0  0  0
 19 47  1  0  0  0  0
 20 24  1  0  0  0  0
 20 25  2  0  0  0  0
 21 29  1  0  0  0  0
 21 48  1  0  0  0  0
 22 24  2  0  0  0  0
 22 32  1  0  0  0  0
 23 26  1  0  0  0  0
 24 33  1  0  0  0  0
 25 27  1  0  0  0  0
 25 31  1  0  0  0  0
 26 27  2  0  0  0  0
 26 28  1  0  0  0  0
 27 34  1  0  0  0  0
 28 30  1  0  0  0  0
 28 37  2  0  0  0  0
 29 49  1  0  0  0  0
 29 50  1  0  0  0  0
 30 38  2  0  0  0  0
 32 35  2  0  0  0  0
 32 52  1  0  0  0  0
 33 36  2  0  0  0  0
 35 36  1  0  0  0  0
 35 56  1  0  0  0  0
 36 57  1  0  0  0  0
 37 40  1  0  0  0  0
 37 58  1  0  0  0  0
 38 41  1  0  0  0  0
 38 59  1  0  0  0  0
 39 42  1  0  0  0  0
 39 43  1  0  0  0  0
 39 61  1  0  0  0  0
 40 41  2  0  0  0  0
 40 63  1  0  0  0  0
 41 64  1  0  0  0  0
 42 66  1  0  0  0  0
 42 67  1  0  0  0  0
 43 68  1  0  0  0  0
 43 69  1  0  0  0  0
M  END
> <PUBCHEM_COMPOUND_CID>
44340971

> <PUBCHEM_CONFORMER_RMSD>
1

> <PUBCHEM_CONFORMER_DIVERSEORDER>
2
22
12
15
23
17
19
9
18
13
21
20
11
16
4
14
7
3
10
8
5
1
6

> <PUBCHEM_MMFF94_PARTIAL_CHARGES>
57
1 -0.56
10 -0.68
11 -0.04
12 -0.05
13 -0.11
14 -0.64
15 0.54
16 0.28
17 -0.05
18 0.28
19 0.28
2 -0.68
20 -0.01
21 0.28
22 -0.15
23 -0.05
25 0.09
26 -0.01
27 0.09
29 0.28
3 -0.68
30 -0.15
31 0.54
32 -0.15
33 0.08
34 0.54
35 -0.15
36 -0.15
37 -0.15
38 -0.15
39 0.27
4 -0.68
40 -0.15
41 -0.15
42 0.28
43 0.28
5 -0.68
51 0.27
52 0.15
53 0.4
54 0.4
55 0.4
56 0.15
57 0.15
58 0.15
59 0.15
6 -0.53
60 0.36
62 0.4
63 0.15
64 0.15
65 0.45
7 -0.57
70 0.4
71 0.4
8 -0.57
9 -0.68

> <PUBCHEM_EFFECTIVE_ROTOR_COUNT>
7.4

> <PUBCHEM_PHARMACOPHORE_FEATURES>
27
1 1 acceptor
1 10 acceptor
1 10 donor
1 11 cation
1 12 cation
1 12 donor
1 14 donor
1 2 acceptor
1 2 donor
1 3 acceptor
1 3 donor
1 4 acceptor
1 4 donor
1 5 acceptor
1 5 donor
1 6 donor
1 7 acceptor
1 8 acceptor
1 9 acceptor
1 9 donor
5 11 17 20 22 24 rings
5 12 23 26 28 30 rings
5 13 25 27 31 34 rings
6 1 15 16 18 19 21 rings
6 17 20 23 25 26 27 rings
6 22 24 32 33 35 36 rings
6 28 30 37 38 40 41 rings

> <PUBCHEM_HEAVY_ATOM_COUNT>
43

> <PUBCHEM_ATOM_DEF_STEREO_COUNT>
0

> <PUBCHEM_ATOM_UDEF_STEREO_COUNT>
5

> <PUBCHEM_BOND_DEF_STEREO_COUNT>
0

> <PUBCHEM_BOND_UDEF_STEREO_COUNT>
0

> <PUBCHEM_ISOTOPIC_ATOM_COUNT>
0

> <PUBCHEM_COMPONENT_COUNT>
1

> <PUBCHEM_CACTVS_TAUTO_COUNT>
43

> <PUBCHEM_CONFORMER_ID>
02A496EB00000002

> <PUBCHEM_MMFF94_ENERGY>
166.6211

> <PUBCHEM_FEATURE_SELFOVERLAP>
137.541

> <PUBCHEM_SHAPE_FINGERPRINT>
10190108 129 18341620252937577393
10190206 1 18338527327028674044
102385 1 17763457718036251091
10864689 126 18338505366376034533
1100329 8 18267582584085388371
12058002 1 17415313694930179235
12440605 4 17838339579989772953
12788726 201 18335696084244253330
13140716 1 18123184868913527425
13617811 41 18410289190824507700
13911987 19 18336257968792668487
140371 6 18342461464867973184
14040222 275 18272099318044783228
14790565 3 18411416181305397089
14955137 171 18337117868384485699
15198563 99 18268713818532543508
15320467 1 18411410701243437057
15324884 4 17679840856120785613
15351339 4 18046327662229636817
15950262 2 15792568535428594732
16087824 20 18339642227440602929
16112460 7 18200041771014190177
16628084 112 18195522598004488398
19311894 1 18341324586771852151
19319366 153 17967246499403680546
19611394 137 18115603663305475835
20775438 99 17551471820550775396
21133410 127 17538266738154184093
21792961 116 18260546684752136298
21796203 349 18120125941860836235
22311459 1 18411978023695358778
22440779 20 16664613455422335738
23559900 14 18270390732683199704
23576562 1 18189612933605640447
24771750 20 17903087960002873148
283562 15 18197213655071487640
3178227 256 18337400421809619883
335352 9 18412259554142485070
3383291 50 18411974742118993706
350125 39 18121496028007532467
5171179 24 17979073009189730738
5265222 85 18188777270182224342

> <PUBCHEM_SHAPE_MULTIPOLES>
806.3
15.07
6.79
1.27
7.24
5.17
-0.34
-6.43
-3.7
0.57
1.35
-0.92
0.17
1.23

> <PUBCHEM_SHAPE_SELFOVERLAP>
1819.883

> <PUBCHEM_SHAPE_VOLUME>
420.2

> <PUBCHEM_COORDINATE_TYPE>
2
5
10

$$$$
