135465267
  -OEChem-10062121533D

 28 30  0     0  0  0  0  0  0999 V2000
    0.0267    2.6717   -0.0012 O   0  0  0  0  0  0  0  0  0  0  0  0
    4.1242    2.0671    0.0015 O   0  0  0  0  0  0  0  0  0  0  0  0
   -0.4080    0.4473   -0.0001 N   0  0  0  0  0  0  0  0  0  0  0  0
   -1.0901   -1.6806    0.0008 N   0  0  0  0  0  0  0  0  0  0  0  0
    1.9720   -3.7449   -0.0012 N   0  0  0  0  0  0  0  0  0  0  0  0
   -0.0350   -0.8887    0.0003 C   0  0  0  0  0  0  0  0  0  0  0  0
   -1.7963    0.4797   -0.0002 C   0  0  0  0  0  0  0  0  0  0  0  0
   -2.1825   -0.8579    0.0009 C   0  0  0  0  0  0  0  0  0  0  0  0
    2.2950   -0.2677   -0.0002 C   0  0  0  0  0  0  0  0  0  0  0  0
    1.3475   -1.2330   -0.0001 C   0  0  0  0  0  0  0  0  0  0  0  0
    0.4691    1.5344   -0.0005 C   0  0  0  0  0  0  0  0  0  0  0  0
    1.9107    1.1493    0.0003 C   0  0  0  0  0  0  0  0  0  0  0  0
   -2.7372    1.5195   -0.0014 C   0  0  0  0  0  0  0  0  0  0  0  0
   -3.5480   -1.1930    0.0016 C   0  0  0  0  0  0  0  0  0  0  0  0
    3.7780   -0.5760   -0.0005 C   0  0  0  0  0  0  0  0  0  0  0  0
   -4.0923    1.1706   -0.0011 C   0  0  0  0  0  0  0  0  0  0  0  0
   -4.4936   -0.1636    0.0007 C   0  0  0  0  0  0  0  0  0  0  0  0
    2.7676    2.1849    0.0009 C   0  0  0  0  0  0  0  0  0  0  0  0
    1.6921   -2.6191   -0.0006 C   0  0  0  0  0  0  0  0  0  0  0  0
   -2.4461    2.5635   -0.0025 H   0  0  0  0  0  0  0  0  0  0  0  0
   -3.8669   -2.2306    0.0027 H   0  0  0  0  0  0  0  0  0  0  0  0
    4.2622   -0.1818   -0.9004 H   0  0  0  0  0  0  0  0  0  0  0  0
    3.9944   -1.6487   -0.0012 H   0  0  0  0  0  0  0  0  0  0  0  0
    4.2624   -0.1830    0.8999 H   0  0  0  0  0  0  0  0  0  0  0  0
   -4.8443    1.9558   -0.0020 H   0  0  0  0  0  0  0  0  0  0  0  0
   -5.5525   -0.4079    0.0011 H   0  0  0  0  0  0  0  0  0  0  0  0
    2.4726    3.2265    0.0011 H   0  0  0  0  0  0  0  0  0  0  0  0
    4.4921    2.9680    0.0018 H   0  0  0  0  0  0  0  0  0  0  0  0
  1 11  2  0  0  0  0
  2 18  1  0  0  0  0
  2 28  1  0  0  0  0
  3  6  1  0  0  0  0
  3  7  1  0  0  0  0
  3 11  1  0  0  0  0
  4  6  2  0  0  0  0
  4  8  1  0  0  0  0
  5 19  3  0  0  0  0
  6 10  1  0  0  0  0
  7  8  1  0  0  0  0
  7 13  2  0  0  0  0
  8 14  2  0  0  0  0
  9 10  2  0  0  0  0
  9 12  1  0  0  0  0
  9 15  1  0  0  0  0
 10 19  1  0  0  0  0
 11 12  1  0  0  0  0
 12 18  2  3  0  0  0
 13 16  1  0  0  0  0
 13 20  1  0  0  0  0
 14 17  1  0  0  0  0
 14 21  1  0  0  0  0
 15 22  1  0  0  0  0
 15 23  1  0  0  0  0
 15 24  1  0  0  0  0
 16 17  2  0  0  0  0
 16 25  1  0  0  0  0
 17 26  1  0  0  0  0
 18 27  1  0  0  0  0
M  END
> <PUBCHEM_COMPOUND_CID>
135465267

> <PUBCHEM_CONFORMER_RMSD>
0.4

> <PUBCHEM_CONFORMER_DIVERSEORDER>
1

> <PUBCHEM_MMFF94_PARTIAL_CHARGES>
25
1 -0.57
10 0.11
11 0.56
12 0.01
13 -0.15
14 -0.15
15 0.14
16 -0.15
17 -0.15
18 -0.07
19 0.49
2 -0.53
20 0.15
21 0.15
25 0.15
26 0.15
27 0.15
28 0.45
3 0.29
4 -0.57
5 -0.56
6 0.14
7 -0.15
8 0.23
9 -0.14

> <PUBCHEM_EFFECTIVE_ROTOR_COUNT>
0

> <PUBCHEM_PHARMACOPHORE_FEATURES>
6
1 1 acceptor
1 2 donor
1 5 acceptor
5 3 4 6 7 8 rings
6 3 6 9 10 11 12 rings
6 7 8 13 14 16 17 rings

> <PUBCHEM_HEAVY_ATOM_COUNT>
19

> <PUBCHEM_ATOM_DEF_STEREO_COUNT>
0

> <PUBCHEM_ATOM_UDEF_STEREO_COUNT>
0

> <PUBCHEM_BOND_DEF_STEREO_COUNT>
0

> <PUBCHEM_BOND_UDEF_STEREO_COUNT>
1

> <PUBCHEM_ISOTOPIC_ATOM_COUNT>
0

> <PUBCHEM_COMPONENT_COUNT>
1

> <PUBCHEM_CACTVS_TAUTO_COUNT>
-1

> <PUBCHEM_CONFORMER_ID>
0813093300000001

> <PUBCHEM_MMFF94_ENERGY>
45.4314

> <PUBCHEM_FEATURE_SELFOVERLAP>
30.66

> <PUBCHEM_SHAPE_FINGERPRINT>
10411042 1 17834395622674741847
10608611 8 18408882923810609557
10616163 171 18265335195224500699
10967382 1 18410573976572111527
10980938 120 18409730672707584673
11471102 20 18410852183200172277
11578080 2 16880182309394334638
116883 192 17838055901262361111
12553582 1 17834117446364679435
13140716 1 18410567422921451666
13380535 76 18263080066689646987
138480 1 18194682562425138658
14790565 3 18192721257057091228
15042514 8 17688310509657743018
15196674 1 18410855486056474465
15442244 35 18124316004332723681
15536298 74 18342740732131032996
16945 1 18338517417927296004
17492 89 18411698751921118559
19591789 44 18339363075476359102
200 152 18130781300666759061
20645477 70 18408316688054161055
21267235 1 18411428297349804911
21421861 104 17970907756689857682
21501502 16 18412260632226274671
221490 88 18408893923074427971
22854114 111 18410014351108097629
2334 1 18266741475070468680
23366157 5 18114184090561319930
23419403 2 17825368714088821782
23463225 33 18409728434966300385
23559900 14 18268142055120905754
25 1 18335980947364649398
2748010 2 18337678645295360470
3091708 16 9331176386263466538
335352 9 18338516322636769940
34934 24 18339917121857015783
394222 165 17896596366153679680
43471831 8 18409727400116604466
474 4 18114746052371628356
5104073 3 18409731785447065041
6138700 20 18338522946325919622
7364860 26 18412263896159086358
81228 2 17334785179754411331
84936 182 18201998858588027984
9709674 26 18409452466523421731

> <PUBCHEM_SHAPE_MULTIPOLES>
364.33
7.19
3.15
0.59
3.44
1.27
0
-1.31
0
-2.71
0
0.02
0
0

> <PUBCHEM_SHAPE_SELFOVERLAP>
817.693

> <PUBCHEM_SHAPE_VOLUME>
190.7

> <PUBCHEM_COORDINATE_TYPE>
2
5
10

$$$$
