9864418
  -OEChem-10062122023D

 53 57  0     0  0  0  0  0  0999 V2000
   -2.3694    0.2038    2.2443 O   0  0  0  0  0  0  0  0  0  0  0  0
    6.2233   -0.1254   -0.7515 O   0  0  0  0  0  0  0  0  0  0  0  0
    4.7960   -1.5590    0.3784 N   0  0  0  0  0  0  0  0  0  0  0  0
   -7.6115   -1.2465   -0.6133 N   0  0  0  0  0  0  0  0  0  0  0  0
   -3.6426   -0.1480    1.8130 N   0  0  0  0  0  0  0  0  0  0  0  0
    5.6913   -2.6822    0.4088 C   0  0  0  0  0  0  0  0  0  0  0  0
    5.1654   -4.0744    0.5346 C   0  0  0  0  0  0  0  0  0  0  0  0
    5.7825   -3.6153   -0.7539 C   0  0  0  0  0  0  0  0  0  0  0  0
   -4.8018   -0.4664   -0.3276 C   0  0  0  0  0  0  0  0  0  0  0  0
   -5.2857   -1.9083   -0.0961 C   0  0  0  0  0  0  0  0  0  0  0  0
   -5.9598    0.5191   -0.0935 C   0  0  0  0  0  0  0  0  0  0  0  0
   -6.5465   -2.2051   -0.9080 C   0  0  0  0  0  0  0  0  0  0  0  0
   -7.1934    0.1246   -0.9055 C   0  0  0  0  0  0  0  0  0  0  0  0
   -3.5719   -0.1257    0.4836 C   0  0  0  0  0  0  0  0  0  0  0  0
   -2.3020    0.2276    0.0058 C   0  0  0  0  0  0  0  0  0  0  0  0
    5.1229   -0.3307   -0.2093 C   0  0  0  0  0  0  0  0  0  0  0  0
   -1.5718    0.4273    1.1644 C   0  0  0  0  0  0  0  0  0  0  0  0
    4.1053    0.7080   -0.1816 C   0  0  0  0  0  0  0  0  0  0  0  0
   -1.6729    0.4050   -1.2351 C   0  0  0  0  0  0  0  0  0  0  0  0
    0.3837    0.9730   -0.0525 C   0  0  0  0  0  0  0  0  0  0  0  0
    1.7786    1.3583   -0.1048 C   0  0  0  0  0  0  0  0  0  0  0  0
   -0.2309    0.7994    1.1920 C   0  0  0  0  0  0  0  0  0  0  0  0
    2.7550    0.3617   -0.1311 C   0  0  0  0  0  0  0  0  0  0  0  0
   -0.3219    0.7800   -1.2449 C   0  0  0  0  0  0  0  0  0  0  0  0
    2.1547    2.7018   -0.1291 C   0  0  0  0  0  0  0  0  0  0  0  0
    4.4803    2.0513   -0.2057 C   0  0  0  0  0  0  0  0  0  0  0  0
    3.5050    3.0482   -0.1794 C   0  0  0  0  0  0  0  0  0  0  0  0
    1.1381    3.7980   -0.1021 C   0  0  0  0  0  0  0  0  0  0  0  0
    6.6104   -2.4643    0.9433 H   0  0  0  0  0  0  0  0  0  0  0  0
    5.7265   -4.7748    1.1410 H   0  0  0  0  0  0  0  0  0  0  0  0
    4.0930   -4.2253    0.5522 H   0  0  0  0  0  0  0  0  0  0  0  0
    5.1233   -3.4578   -1.5988 H   0  0  0  0  0  0  0  0  0  0  0  0
    6.7589   -4.0054   -1.0135 H   0  0  0  0  0  0  0  0  0  0  0  0
   -4.5261   -0.3887   -1.3893 H   0  0  0  0  0  0  0  0  0  0  0  0
   -5.4933   -2.0747    0.9694 H   0  0  0  0  0  0  0  0  0  0  0  0
   -4.4965   -2.6179   -0.3742 H   0  0  0  0  0  0  0  0  0  0  0  0
   -5.6498    1.5345   -0.3698 H   0  0  0  0  0  0  0  0  0  0  0  0
   -6.2228    0.5524    0.9722 H   0  0  0  0  0  0  0  0  0  0  0  0
    3.9133   -1.6761    0.8670 H   0  0  0  0  0  0  0  0  0  0  0  0
   -6.9022   -3.2141   -0.6727 H   0  0  0  0  0  0  0  0  0  0  0  0
   -6.3210   -2.1944   -1.9812 H   0  0  0  0  0  0  0  0  0  0  0  0
   -6.9953    0.2338   -1.9786 H   0  0  0  0  0  0  0  0  0  0  0  0
   -8.0186    0.8052   -0.6685 H   0  0  0  0  0  0  0  0  0  0  0  0
   -7.8531   -1.3147    0.3756 H   0  0  0  0  0  0  0  0  0  0  0  0
   -2.2067    0.2593   -2.1688 H   0  0  0  0  0  0  0  0  0  0  0  0
    0.2950    0.9432    2.1293 H   0  0  0  0  0  0  0  0  0  0  0  0
    2.4376   -0.6785   -0.1429 H   0  0  0  0  0  0  0  0  0  0  0  0
    0.1698    0.9187   -2.2061 H   0  0  0  0  0  0  0  0  0  0  0  0
    5.5272    2.3416   -0.2405 H   0  0  0  0  0  0  0  0  0  0  0  0
    3.8156    4.0895   -0.1977 H   0  0  0  0  0  0  0  0  0  0  0  0
    0.5409    3.7515    0.8143 H   0  0  0  0  0  0  0  0  0  0  0  0
    0.4778    3.7369   -0.9732 H   0  0  0  0  0  0  0  0  0  0  0  0
    1.6085    4.7874   -0.1268 H   0  0  0  0  0  0  0  0  0  0  0  0
  1  5  1  0  0  0  0
  1 17  1  0  0  0  0
  2 16  2  0  0  0  0
  3  6  1  0  0  0  0
  3 16  1  0  0  0  0
  3 39  1  0  0  0  0
  4 12  1  0  0  0  0
  4 13  1  0  0  0  0
  4 44  1  0  0  0  0
  5 14  2  0  0  0  0
  6  7  1  0  0  0  0
  6  8  1  0  0  0  0
  6 29  1  0  0  0  0
  7  8  1  0  0  0  0
  7 30  1  0  0  0  0
  7 31  1  0  0  0  0
  8 32  1  0  0  0  0
  8 33  1  0  0  0  0
  9 10  1  0  0  0  0
  9 11  1  0  0  0  0
  9 14  1  0  0  0  0
  9 34  1  0  0  0  0
 10 12  1  0  0  0  0
 10 35  1  0  0  0  0
 10 36  1  0  0  0  0
 11 13  1  0  0  0  0
 11 37  1  0  0  0  0
 11 38  1  0  0  0  0
 12 40  1  0  0  0  0
 12 41  1  0  0  0  0
 13 42  1  0  0  0  0
 13 43  1  0  0  0  0
 14 15  1  0  0  0  0
 15 17  2  0  0  0  0
 15 19  1  0  0  0  0
 16 18  1  0  0  0  0
 17 22  1  0  0  0  0
 18 23  2  0  0  0  0
 18 26  1  0  0  0  0
 19 24  2  0  0  0  0
 19 45  1  0  0  0  0
 20 21  1  0  0  0  0
 20 22  2  0  0  0  0
 20 24  1  0  0  0  0
 21 23  1  0  0  0  0
 21 25  2  0  0  0  0
 22 46  1  0  0  0  0
 23 47  1  0  0  0  0
 24 48  1  0  0  0  0
 25 27  1  0  0  0  0
 25 28  1  0  0  0  0
 26 27  2  0  0  0  0
 26 49  1  0  0  0  0
 27 50  1  0  0  0  0
 28 51  1  0  0  0  0
 28 52  1  0  0  0  0
 28 53  1  0  0  0  0
M  END
> <PUBCHEM_COMPOUND_CID>
9864418

> <PUBCHEM_CONFORMER_RMSD>
0.8

> <PUBCHEM_CONFORMER_DIVERSEORDER>
1
20
22
32
28
30
10
25
17
6
31
23
7
9
15
5
21
26
16
4
11
18
19
29
12
2
27
24
8
13
3
14

> <PUBCHEM_MMFF94_PARTIAL_CHARGES>
36
1 -0.02
12 0.27
13 0.27
14 0.11
16 0.54
17 0.14
18 0.09
19 -0.15
2 -0.57
22 -0.15
23 -0.15
24 -0.15
25 -0.14
26 -0.15
27 -0.15
28 0.14
29 0.1
3 -0.58
30 0.1
31 0.1
32 0.1
33 0.1
39 0.37
4 -0.9
44 0.36
45 0.15
46 0.15
47 0.15
48 0.15
49 0.15
5 -0.41
50 0.15
6 0.05
7 -0.2
8 -0.2
9 0.18

> <PUBCHEM_EFFECTIVE_ROTOR_COUNT>
6.8

> <PUBCHEM_PHARMACOPHORE_FEATURES>
9
1 2 acceptor
1 3 donor
1 4 cation
1 4 donor
1 5 acceptor
5 1 5 14 15 17 rings
6 15 17 19 20 22 24 rings
6 18 21 23 25 26 27 rings
6 4 9 10 11 12 13 rings

> <PUBCHEM_HEAVY_ATOM_COUNT>
28

> <PUBCHEM_ATOM_DEF_STEREO_COUNT>
0

> <PUBCHEM_ATOM_UDEF_STEREO_COUNT>
0

> <PUBCHEM_BOND_DEF_STEREO_COUNT>
0

> <PUBCHEM_BOND_UDEF_STEREO_COUNT>
0

> <PUBCHEM_ISOTOPIC_ATOM_COUNT>
0

> <PUBCHEM_COMPONENT_COUNT>
1

> <PUBCHEM_CACTVS_TAUTO_COUNT>
2

> <PUBCHEM_CONFORMER_ID>
009684E200000001

> <PUBCHEM_MMFF94_ENERGY>
63.8755

> <PUBCHEM_FEATURE_SELFOVERLAP>
45.77

> <PUBCHEM_SHAPE_FINGERPRINT>
10066227 49 18410852171122911695
10693767 8 18409161087225584754
10906281 52 13046215027974460381
10951579 204 17095795500002903837
117089 54 18055080861472320278
11719270 70 17632580461476091319
12107183 9 18197789795085954537
12166972 35 18059578044022508641
12236239 1 17917719040652590217
13533116 47 18412825810993546176
1361 2 18409729543554023842
1361 4 18267301131148893423
13782708 43 18186799167054026799
13911852 28 18337955580592080366
13914758 101 18341052922286097945
15183329 4 18334292076604691889
15475509 35 18060128852203266794
15475509 8 16950282863039891173
15629462 23 18196077851498237565
17492 89 18121218680927046382
1813 80 18271822176985687404
19301676 85 18261960634936293194
19841028 212 18411978023431848642
20028762 73 18200876176065968102
20505436 4 17486768847576825044
21133410 58 18408595964024298063
21279426 13 18041551430435950877
21307412 95 17603878770936902123
21344244 78 18059564798744119592
21585483 132 18198885050581222447
21641784 216 14924213894506724079
221357 26 18187361038802235052
2215653 11 17894349994571565849
23524908 199 18335968806621115783
23536379 177 18339359768931802893
23559900 14 18337386141048667657
23569914 152 17540498394195996543
23569943 247 18041835091883390171
3004659 81 18341331179572427665
3014965 18 18409727365767493669
345986 75 17988927726447526064
34797466 226 16660648483416615100
3886686 26 16408467537170158726
404807 14 18050291358065392203
4073 2 17971192762240415987
4403749 210 17615972553483155312
46194498 28 17530969107538420084
474113 269 17774714265337734983
513532 50 18262223526031528064
5309563 4 18266178323618133498
531348 171 18412261723701797463
57816373 69 17917710167688026502
5951187 136 10665523881471047042
59682541 52 18333729139172143285
6695519 79 17332547055232577193
70251023 43 18336261259123037504
7970288 3 18339360752289942194
9555976 147 17345482491979789387

> <PUBCHEM_SHAPE_MULTIPOLES>
549.55
19.04
3.95
1.2
16.84
1.7
0.42
16.52
-3.97
-8.82
-0.27
1.02
0.07
-0.9

> <PUBCHEM_SHAPE_SELFOVERLAP>
1202.373

> <PUBCHEM_SHAPE_VOLUME>
299.8

> <PUBCHEM_COORDINATE_TYPE>
2
5
10

$$$$
