49830362
  -OEChem-10052115183D

 59 63  0     0  0  0  0  0  0999 V2000
    4.9277   -0.0193    1.9343 S   0  0  0  0  0  0  0  0  0  0  0  0
  -10.1976    0.9591   -0.4228 O   0  0  0  0  0  0  0  0  0  0  0  0
   -3.7366    0.6894    0.1574 O   0  0  0  0  0  0  0  0  0  0  0  0
    4.5921   -0.1610   -2.5301 N   0  0  0  0  0  0  0  0  0  0  0  0
    9.2775    1.3683    0.2972 N   0  0  0  0  0  0  0  0  0  0  0  0
    2.2767   -0.5771   -2.2991 N   0  0  0  0  0  0  0  0  0  0  0  0
    9.3641    0.2189    0.9883 N   0  0  0  0  0  0  0  0  0  0  0  0
   -2.8062   -1.4591    0.2451 N   0  0  0  0  0  0  0  0  0  0  0  0
   -5.0936   -1.2115    0.0394 N   0  0  0  0  0  0  0  0  0  0  0  0
    3.6768   -0.2878   -0.3124 C   0  0  0  0  0  0  0  0  0  0  0  0
    4.9503   -0.0463    0.2110 C   0  0  0  0  0  0  0  0  0  0  0  0
    2.7075   -0.4457    0.7338 C   0  0  0  0  0  0  0  0  0  0  0  0
    6.0569    0.1402   -0.6260 C   0  0  0  0  0  0  0  0  0  0  0  0
    1.2941   -0.7054    0.6093 C   0  0  0  0  0  0  0  0  0  0  0  0
    3.5338   -0.3389   -1.7080 C   0  0  0  0  0  0  0  0  0  0  0  0
    3.2514   -0.3240    1.9904 C   0  0  0  0  0  0  0  0  0  0  0  0
    7.3677    0.3893   -0.1084 C   0  0  0  0  0  0  0  0  0  0  0  0
    5.8022    0.0692   -1.9843 C   0  0  0  0  0  0  0  0  0  0  0  0
    0.3942    0.3574    0.5275 C   0  0  0  0  0  0  0  0  0  0  0  0
    0.8271   -2.0191    0.5698 C   0  0  0  0  0  0  0  0  0  0  0  0
    8.1016    1.5188   -0.3771 C   0  0  0  0  0  0  0  0  0  0  0  0
   -1.4393   -1.2076    0.3673 C   0  0  0  0  0  0  0  0  0  0  0  0
    8.1945   -0.3749    0.7367 C   0  0  0  0  0  0  0  0  0  0  0  0
   -0.9725    0.1063    0.4066 C   0  0  0  0  0  0  0  0  0  0  0  0
   -0.5396   -2.2703    0.4489 C   0  0  0  0  0  0  0  0  0  0  0  0
   10.3769    2.3032    0.3207 C   0  0  0  0  0  0  0  0  0  0  0  0
   -3.8707   -0.5300    0.1477 C   0  0  0  0  0  0  0  0  0  0  0  0
   -6.3910   -0.6594   -0.0781 C   0  0  0  0  0  0  0  0  0  0  0  0
   -7.5000   -1.4997   -0.1755 C   0  0  0  0  0  0  0  0  0  0  0  0
   -6.5612    0.7250   -0.0965 C   0  0  0  0  0  0  0  0  0  0  0  0
   -8.9493    0.4285   -0.3100 C   0  0  0  0  0  0  0  0  0  0  0  0
   -8.7792   -0.9560   -0.2914 C   0  0  0  0  0  0  0  0  0  0  0  0
   -7.8403    1.2689   -0.2125 C   0  0  0  0  0  0  0  0  0  0  0  0
  -10.4219    2.2271    0.1920 C   0  0  0  0  0  0  0  0  0  0  0  0
  -11.8741    2.3231    0.6086 C   0  0  0  0  0  0  0  0  0  0  0  0
    2.7518   -0.3979    2.9473 H   0  0  0  0  0  0  0  0  0  0  0  0
    6.5980    0.1976   -2.7136 H   0  0  0  0  0  0  0  0  0  0  0  0
    0.7432    1.3871    0.5555 H   0  0  0  0  0  0  0  0  0  0  0  0
    1.5153   -2.8589    0.6309 H   0  0  0  0  0  0  0  0  0  0  0  0
    7.8932    2.3965   -0.9749 H   0  0  0  0  0  0  0  0  0  0  0  0
    8.0007   -1.3420    1.1792 H   0  0  0  0  0  0  0  0  0  0  0  0
   -1.6032    0.9818    0.3487 H   0  0  0  0  0  0  0  0  0  0  0  0
   -0.8894   -3.2991    0.4188 H   0  0  0  0  0  0  0  0  0  0  0  0
    2.2283   -0.6036   -3.3095 H   0  0  0  0  0  0  0  0  0  0  0  0
    1.4344   -0.7202   -1.7690 H   0  0  0  0  0  0  0  0  0  0  0  0
   -3.0694   -2.4412    0.2232 H   0  0  0  0  0  0  0  0  0  0  0  0
   10.1303    3.1727   -0.2935 H   0  0  0  0  0  0  0  0  0  0  0  0
   10.5433    2.6122    1.3557 H   0  0  0  0  0  0  0  0  0  0  0  0
   11.2625    1.8028   -0.0788 H   0  0  0  0  0  0  0  0  0  0  0  0
   -5.0519   -2.2275    0.0453 H   0  0  0  0  0  0  0  0  0  0  0  0
   -7.3813   -2.5801   -0.1622 H   0  0  0  0  0  0  0  0  0  0  0  0
   -5.7541    1.4406   -0.0327 H   0  0  0  0  0  0  0  0  0  0  0  0
   -9.6395   -1.6155   -0.3667 H   0  0  0  0  0  0  0  0  0  0  0  0
   -7.9277    2.3508   -0.2512 H   0  0  0  0  0  0  0  0  0  0  0  0
  -10.1890    3.0213   -0.5258 H   0  0  0  0  0  0  0  0  0  0  0  0
   -9.8119    2.3568    1.0948 H   0  0  0  0  0  0  0  0  0  0  0  0
  -12.0847    3.2895    1.0754 H   0  0  0  0  0  0  0  0  0  0  0  0
  -12.1259    1.5264    1.3164 H   0  0  0  0  0  0  0  0  0  0  0  0
  -12.5326    2.1987   -0.2574 H   0  0  0  0  0  0  0  0  0  0  0  0
  1 11  1  0  0  0  0
  1 16  1  0  0  0  0
  2 31  1  0  0  0  0
  2 34  1  0  0  0  0
  3 27  2  0  0  0  0
  4 15  2  0  0  0  0
  4 18  1  0  0  0  0
  5  7  1  0  0  0  0
  5 21  1  0  0  0  0
  5 26  1  0  0  0  0
  6 15  1  0  0  0  0
  6 44  1  0  0  0  0
  6 45  1  0  0  0  0
  7 23  2  0  0  0  0
  8 22  1  0  0  0  0
  8 27  1  0  0  0  0
  8 46  1  0  0  0  0
  9 27  1  0  0  0  0
  9 28  1  0  0  0  0
  9 50  1  0  0  0  0
 10 11  2  0  0  0  0
 10 12  1  0  0  0  0
 10 15  1  0  0  0  0
 11 13  1  0  0  0  0
 12 14  1  0  0  0  0
 12 16  2  0  0  0  0
 13 17  1  0  0  0  0
 13 18  2  0  0  0  0
 14 19  2  0  0  0  0
 14 20  1  0  0  0  0
 16 36  1  0  0  0  0
 17 21  2  0  0  0  0
 17 23  1  0  0  0  0
 18 37  1  0  0  0  0
 19 24  1  0  0  0  0
 19 38  1  0  0  0  0
 20 25  2  0  0  0  0
 20 39  1  0  0  0  0
 21 40  1  0  0  0  0
 22 24  2  0  0  0  0
 22 25  1  0  0  0  0
 23 41  1  0  0  0  0
 24 42  1  0  0  0  0
 25 43  1  0  0  0  0
 26 47  1  0  0  0  0
 26 48  1  0  0  0  0
 26 49  1  0  0  0  0
 28 29  2  0  0  0  0
 28 30  1  0  0  0  0
 29 32  1  0  0  0  0
 29 51  1  0  0  0  0
 30 33  2  0  0  0  0
 30 52  1  0  0  0  0
 31 32  2  0  0  0  0
 31 33  1  0  0  0  0
 32 53  1  0  0  0  0
 33 54  1  0  0  0  0
 34 35  1  0  0  0  0
 34 55  1  0  0  0  0
 34 56  1  0  0  0  0
 35 57  1  0  0  0  0
 35 58  1  0  0  0  0
 35 59  1  0  0  0  0
M  END
> <PUBCHEM_COMPOUND_CID>
49830362

> <PUBCHEM_CONFORMER_RMSD>
1

> <PUBCHEM_CONFORMER_DIVERSEORDER>
1
4
5
13
15
7
18
16
8
19
14
9
17
2
3
10
11
12
6

> <PUBCHEM_MMFF94_PARTIAL_CHARGES>
49
1 -0.08
11 0.04
12 -0.05
13 0.05
14 0.05
15 0.41
16 -0.11
17 -0.05
18 0.16
19 -0.15
2 -0.36
20 -0.15
21 -0.3
22 0.12
23 0.14
24 -0.15
25 -0.15
26 0.26
27 0.69
28 0.12
29 -0.15
3 -0.57
30 -0.15
31 0.08
32 -0.15
33 -0.15
34 0.28
36 0.15
37 0.15
38 0.15
39 0.15
4 -0.62
40 0.15
41 0.15
42 0.15
43 0.15
44 0.4
45 0.4
46 0.37
5 0.31
50 0.37
51 0.15
52 0.15
53 0.15
54 0.15
6 -0.9
7 -0.71
8 -0.55
9 -0.55

> <PUBCHEM_EFFECTIVE_ROTOR_COUNT>
8

> <PUBCHEM_PHARMACOPHORE_FEATURES>
12
1 2 acceptor
1 3 acceptor
1 6 donor
1 7 acceptor
1 8 donor
1 9 donor
3 4 6 15 cation
5 1 10 11 12 16 rings
5 5 7 17 21 23 rings
6 14 19 20 22 24 25 rings
6 28 29 30 31 32 33 rings
6 4 10 11 13 15 18 rings

> <PUBCHEM_HEAVY_ATOM_COUNT>
35

> <PUBCHEM_ATOM_DEF_STEREO_COUNT>
0

> <PUBCHEM_ATOM_UDEF_STEREO_COUNT>
0

> <PUBCHEM_BOND_DEF_STEREO_COUNT>
0

> <PUBCHEM_BOND_UDEF_STEREO_COUNT>
0

> <PUBCHEM_ISOTOPIC_ATOM_COUNT>
0

> <PUBCHEM_COMPONENT_COUNT>
1

> <PUBCHEM_CACTVS_TAUTO_COUNT>
6

> <PUBCHEM_CONFORMER_ID>
02F859DA00000001

> <PUBCHEM_MMFF94_ENERGY>
111.9534

> <PUBCHEM_FEATURE_SELFOVERLAP>
61.011

> <PUBCHEM_SHAPE_FINGERPRINT>
10076449 9 15195287529741325483
10162869 55 16226043444374876987
10533779 47 15068618253929772456
10677351 14 16916777535516790063
11135609 127 18200592635710692928
11409948 35 18338517432005285862
11443803 9 18260828211010187090
11456790 92 15140959564854107468
11463208 3 8646503925192050648
11607047 141 18187918436570790186
12013929 94 10015863193248675597
12089408 11 18187361043202444179
12236239 1 17676488402323323306
12498461 61 11530486645074801865
12522641 33 17632860819239357758
12539745 222 10809333439568734791
12664476 115 18059851762135139569
13553643 46 17676202493864749916
14117953 113 15984825969550348176
14118638 360 16415206637025476203
14251764 46 18334574659688291682
14294032 229 18260537923361744439
14344974 52 18200871881150321395
150020 25 17418094321883602791
15061470 23 18413385454233931112
15065858 18 18060701697323403551
15419008 145 15791720889293868764
15510794 2 17489586780004030599
155225 1 18408885127445350073
15840311 113 17967250919515150308
16728433 281 17344922815245986057
1754911 235 17632572748194686385
1818759 1 11312058759620610365
20721686 124 18060421305443973294
21057603 43 18114452372601590202
21362267 20 8718822090010463865
21362267 313 18336823092231877570
21591340 7 17749105629613606242
249057 3 16056595495272315394
3092352 35 17530964696786757755
3178227 256 14707205544492265658
3711267 37 18336276678261799977
3991529 128 18335988593783692649
42767 2 15051735258177329337
44280117 145 18272086154819684695
5028188 123 18060414743001878455
54039377 194 11024108754987148043
57359948 33 18342746208968495844
5937810 71 17917438571542382793
59520757 100 17489017297447973110
9663363 56 16773794815207328202
9962374 69 10663810875965097555

> <PUBCHEM_SHAPE_MULTIPOLES>
682.51
41.4
1.86
1.48
59.14
0.38
0.56
29.89
-1.56
2.58
-0.29
-3.26
-0.12
-0.6

> <PUBCHEM_SHAPE_SELFOVERLAP>
1497.199

> <PUBCHEM_SHAPE_VOLUME>
372.9

> <PUBCHEM_COORDINATE_TYPE>
2
5
10

$$$$
