607775
  -OEChem-10062122043D

 25 27  0     0  0  0  0  0  0999 V2000
   -3.8382   -0.7254    0.0005 O   0  0  0  0  0  0  0  0  0  0  0  0
    1.0347    1.7851   -0.0002 N   0  0  0  0  0  0  0  0  0  0  0  0
    3.9371   -0.4911    0.0007 N   0  0  0  0  0  0  0  0  0  0  0  0
   -0.2309   -0.0518   -0.0005 C   0  0  0  0  0  0  0  0  0  0  0  0
    1.1455   -0.4428   -0.0005 C   0  0  0  0  0  0  0  0  0  0  0  0
   -0.2677    1.3432   -0.0002 C   0  0  0  0  0  0  0  0  0  0  0  0
    1.9079    0.7248    0.0003 C   0  0  0  0  0  0  0  0  0  0  0  0
   -1.4518   -0.7585   -0.0006 C   0  0  0  0  0  0  0  0  0  0  0  0
   -1.4645    2.0689   -0.0005 C   0  0  0  0  0  0  0  0  0  0  0  0
    1.8140   -1.6772   -0.0009 C   0  0  0  0  0  0  0  0  0  0  0  0
   -2.6566   -0.0466    0.0003 C   0  0  0  0  0  0  0  0  0  0  0  0
   -2.6605    1.3462    0.0001 C   0  0  0  0  0  0  0  0  0  0  0  0
    3.2965    0.7006    0.0012 C   0  0  0  0  0  0  0  0  0  0  0  0
    3.2015   -1.6256   -0.0003 C   0  0  0  0  0  0  0  0  0  0  0  0
   -3.7670   -2.1497    0.0006 C   0  0  0  0  0  0  0  0  0  0  0  0
    1.3108    2.7573   -0.0001 H   0  0  0  0  0  0  0  0  0  0  0  0
   -1.3887   -1.8400   -0.0007 H   0  0  0  0  0  0  0  0  0  0  0  0
   -1.4682    3.1538   -0.0006 H   0  0  0  0  0  0  0  0  0  0  0  0
    1.2847   -2.6231   -0.0015 H   0  0  0  0  0  0  0  0  0  0  0  0
   -3.6044    1.8863    0.0003 H   0  0  0  0  0  0  0  0  0  0  0  0
    3.9091    1.5926    0.0018 H   0  0  0  0  0  0  0  0  0  0  0  0
    3.7818   -2.5435   -0.0005 H   0  0  0  0  0  0  0  0  0  0  0  0
   -4.7960   -2.5242    0.0011 H   0  0  0  0  0  0  0  0  0  0  0  0
   -3.2897   -2.5297    0.9103 H   0  0  0  0  0  0  0  0  0  0  0  0
   -3.2906   -2.5298   -0.9096 H   0  0  0  0  0  0  0  0  0  0  0  0
  1 11  1  0  0  0  0
  1 15  1  0  0  0  0
  2  6  1  0  0  0  0
  2  7  1  0  0  0  0
  2 16  1  0  0  0  0
  3 13  2  0  0  0  0
  3 14  1  0  0  0  0
  4  5  1  0  0  0  0
  4  6  2  0  0  0  0
  4  8  1  0  0  0  0
  5  7  2  0  0  0  0
  5 10  1  0  0  0  0
  6  9  1  0  0  0  0
  7 13  1  0  0  0  0
  8 11  2  0  0  0  0
  8 17  1  0  0  0  0
  9 12  2  0  0  0  0
  9 18  1  0  0  0  0
 10 14  2  0  0  0  0
 10 19  1  0  0  0  0
 11 12  1  0  0  0  0
 12 20  1  0  0  0  0
 13 21  1  0  0  0  0
 14 22  1  0  0  0  0
 15 23  1  0  0  0  0
 15 24  1  0  0  0  0
 15 25  1  0  0  0  0
M  END
> <PUBCHEM_COMPOUND_CID>
607775

> <PUBCHEM_CONFORMER_RMSD>
0.4

> <PUBCHEM_CONFORMER_DIVERSEORDER>
1
2

> <PUBCHEM_MMFF94_PARTIAL_CHARGES>
20
1 -0.36
10 -0.15
11 0.08
12 -0.15
13 0.16
14 0.16
15 0.28
16 0.27
17 0.15
18 0.15
19 0.15
2 0.03
20 0.15
21 0.15
22 0.15
3 -0.62
6 -0.15
7 -0.15
8 -0.15
9 -0.15

> <PUBCHEM_EFFECTIVE_ROTOR_COUNT>
1

> <PUBCHEM_PHARMACOPHORE_FEATURES>
7
1 1 acceptor
1 2 cation
1 2 donor
1 3 acceptor
5 2 4 5 6 7 rings
6 3 5 7 10 13 14 rings
6 4 6 8 9 11 12 rings

> <PUBCHEM_HEAVY_ATOM_COUNT>
15

> <PUBCHEM_ATOM_DEF_STEREO_COUNT>
0

> <PUBCHEM_ATOM_UDEF_STEREO_COUNT>
0

> <PUBCHEM_BOND_DEF_STEREO_COUNT>
0

> <PUBCHEM_BOND_UDEF_STEREO_COUNT>
0

> <PUBCHEM_ISOTOPIC_ATOM_COUNT>
0

> <PUBCHEM_COMPONENT_COUNT>
1

> <PUBCHEM_CACTVS_TAUTO_COUNT>
2

> <PUBCHEM_CONFORMER_ID>
0009461F00000001

> <PUBCHEM_MMFF94_ENERGY>
42.8874

> <PUBCHEM_FEATURE_SELFOVERLAP>
35.706

> <PUBCHEM_SHAPE_FINGERPRINT>
10608611 8 18339074896087536216
10616163 171 18412547578538270071
10618630 7 18409730677129139519
10967382 1 18194401323333720358
11132069 177 18338230462498547264
11543360 7 15647060416338556163
11769659 78 18408601439832247786
11806522 49 18336545014099381334
12032990 46 18411704287457924398
13140716 1 18268424629677478488
13296908 3 18340487772713049166
14144814 61 18411981325812416226
14252887 29 17988938793855417894
14325111 11 18410575046293489184
14576447 43 18054782042973841919
14790565 3 16027911745713237989
14965852 173 18340205194003550993
15196674 1 18410573968319722086
15442244 35 18122344584252812282
15536298 74 18342738499138221312
16945 1 18410574028175243460
19107657 46 18411699859320443991
19422 9 18410297990711317740
19591789 44 16533716754911981941
200 152 18131059451217411445
20281475 54 18410859845289777520
20645477 70 18338792420652458255
20871998 184 18130505254017066303
20871998 22 18271536311739860871
21267235 1 18410865351464640502
21501502 16 18409453548585680672
21501925 9 18410284822452332146
221490 88 18335989777838775386
2334 1 18410855425773704684
23402539 116 18335129903990362006
23463225 33 18337673018782740196
23559900 14 18196646294867141586
2748010 2 18339638932509090252
2871803 45 18335133202694199743
3312278 4 18339924822590848833
335352 9 18050285864653780797
5104073 3 18412543180765442744
57096353 35 18335708273055510108
7364860 26 18268992153829683136
83771 10 18410857693959613643
8809292 202 18260833730201268275
9709674 26 18410017615252061738

> <PUBCHEM_SHAPE_MULTIPOLES>
292.86
6.58
2.2
0.6
0.29
0.08
0
2.95
0
0.88
0
0
0
0

> <PUBCHEM_SHAPE_SELFOVERLAP>
659.086

> <PUBCHEM_SHAPE_VOLUME>
156

> <PUBCHEM_COORDINATE_TYPE>
2
5
10

$$$$
