10216627
  -OEChem-10062121593D

 52 56  0     1  0  0  0  0  0999 V2000
    2.2011    4.1455   -0.6509 Cl  0  0  0  0  0  0  0  0  0  0  0  0
   -2.7736    1.4552    0.6476 O   0  0  0  0  0  0  0  0  0  0  0  0
   -3.1224   -2.6034    1.7139 N   0  0  0  0  0  0  0  0  0  0  0  0
   -6.1128    1.3297   -0.9763 N   0  0  0  0  0  0  0  0  0  0  0  0
   -0.3546    3.9701   -0.4044 N   0  0  0  0  0  0  0  0  0  0  0  0
    6.1664   -1.6831   -0.1815 N   0  0  0  0  0  0  0  0  0  0  0  0
   -4.4720   -0.4790   -0.9314 C   0  0  0  0  0  0  0  0  0  0  0  0
   -4.9718    0.7958   -0.2239 C   0  0  1  0  0  0  0  0  0  0  0  0
   -3.7032   -1.4043   -0.0308 C   0  0  0  0  0  0  0  0  0  0  0  0
   -2.4906   -2.0438   -0.3513 C   0  0  0  0  0  0  0  0  0  0  0  0
   -3.9100    1.8966   -0.0981 C   0  0  0  0  0  0  0  0  0  0  0  0
   -2.1399   -2.7995    0.7697 C   0  0  0  0  0  0  0  0  0  0  0  0
   -4.0794   -1.7524    1.2300 C   0  0  0  0  0  0  0  0  0  0  0  0
   -1.6431   -2.0665   -1.4767 C   0  0  0  0  0  0  0  0  0  0  0  0
   -0.9795   -3.5800    0.8214 C   0  0  0  0  0  0  0  0  0  0  0  0
   -0.4791   -2.8427   -1.4392 C   0  0  0  0  0  0  0  0  0  0  0  0
   -0.1543   -3.5871   -0.3068 C   0  0  0  0  0  0  0  0  0  0  0  0
   -1.5803    2.0317    0.3603 C   0  0  0  0  0  0  0  0  0  0  0  0
    0.8196    1.9491    0.2150 C   0  0  0  0  0  0  0  0  0  0  0  0
    2.0543    1.2129    0.3819 C   0  0  0  0  0  0  0  0  0  0  0  0
   -0.3893    1.3316    0.5179 C   0  0  0  0  0  0  0  0  0  0  0  0
    3.7629   -0.2584   -0.5299 C   0  0  0  0  0  0  0  0  0  0  0  0
    2.5660    0.4614   -0.6772 C   0  0  0  0  0  0  0  0  0  0  0  0
    4.4437   -0.2124    0.7043 C   0  0  0  0  0  0  0  0  0  0  0  0
    2.7297    1.2559    1.5995 C   0  0  0  0  0  0  0  0  0  0  0  0
   -1.5094    3.3367   -0.0998 C   0  0  0  0  0  0  0  0  0  0  0  0
    3.9199    0.5473    1.7633 C   0  0  0  0  0  0  0  0  0  0  0  0
    0.7826    3.2580   -0.2386 C   0  0  0  0  0  0  0  0  0  0  0  0
    4.3016   -1.0211   -1.5727 C   0  0  0  0  0  0  0  0  0  0  0  0
    5.6301   -0.9407    0.8133 C   0  0  0  0  0  0  0  0  0  0  0  0
    5.4876   -1.7033   -1.3485 C   0  0  0  0  0  0  0  0  0  0  0  0
   -5.3270   -1.0589   -1.3073 H   0  0  0  0  0  0  0  0  0  0  0  0
   -3.8778   -0.2056   -1.8119 H   0  0  0  0  0  0  0  0  0  0  0  0
   -5.3323    0.5546    0.7821 H   0  0  0  0  0  0  0  0  0  0  0  0
   -3.6169    2.1991   -1.1134 H   0  0  0  0  0  0  0  0  0  0  0  0
   -4.3382    2.7669    0.4155 H   0  0  0  0  0  0  0  0  0  0  0  0
   -4.9335   -1.4926    1.8393 H   0  0  0  0  0  0  0  0  0  0  0  0
   -3.1355   -3.0283    2.6308 H   0  0  0  0  0  0  0  0  0  0  0  0
   -1.8785   -1.4922   -2.3680 H   0  0  0  0  0  0  0  0  0  0  0  0
   -6.4847    2.1501   -0.4993 H   0  0  0  0  0  0  0  0  0  0  0  0
   -6.8657    0.6427   -0.9912 H   0  0  0  0  0  0  0  0  0  0  0  0
   -0.7255   -4.1593    1.7027 H   0  0  0  0  0  0  0  0  0  0  0  0
    0.1794   -2.8626   -2.3036 H   0  0  0  0  0  0  0  0  0  0  0  0
    0.7556   -4.1818   -0.2990 H   0  0  0  0  0  0  0  0  0  0  0  0
   -0.4157    0.3058    0.8790 H   0  0  0  0  0  0  0  0  0  0  0  0
    2.0331    0.4308   -1.6270 H   0  0  0  0  0  0  0  0  0  0  0  0
    2.3431    1.8374    2.4333 H   0  0  0  0  0  0  0  0  0  0  0  0
   -2.3863    3.9627   -0.2267 H   0  0  0  0  0  0  0  0  0  0  0  0
    4.4344    0.5917    2.7203 H   0  0  0  0  0  0  0  0  0  0  0  0
    3.8125   -1.0863   -2.5399 H   0  0  0  0  0  0  0  0  0  0  0  0
    6.2036   -0.9484    1.7362 H   0  0  0  0  0  0  0  0  0  0  0  0
    5.9362   -2.3052   -2.1321 H   0  0  0  0  0  0  0  0  0  0  0  0
  1 28  1  0  0  0  0
  2 11  1  0  0  0  0
  2 18  1  0  0  0  0
  3 12  1  0  0  0  0
  3 13  1  0  0  0  0
  3 38  1  0  0  0  0
  4  8  1  0  0  0  0
  4 40  1  0  0  0  0
  4 41  1  0  0  0  0
  5 26  2  0  0  0  0
  5 28  1  0  0  0  0
  6 30  2  0  0  0  0
  6 31  1  0  0  0  0
  7  8  1  0  0  0  0
  7  9  1  0  0  0  0
  7 32  1  0  0  0  0
  7 33  1  0  0  0  0
  8 11  1  0  0  0  0
  8 34  1  0  0  0  0
  9 10  1  0  0  0  0
  9 13  2  0  0  0  0
 10 12  1  0  0  0  0
 10 14  2  0  0  0  0
 11 35  1  0  0  0  0
 11 36  1  0  0  0  0
 12 15  2  0  0  0  0
 13 37  1  0  0  0  0
 14 16  1  0  0  0  0
 14 39  1  0  0  0  0
 15 17  1  0  0  0  0
 15 42  1  0  0  0  0
 16 17  2  0  0  0  0
 16 43  1  0  0  0  0
 17 44  1  0  0  0  0
 18 21  2  0  0  0  0
 18 26  1  0  0  0  0
 19 20  1  0  0  0  0
 19 21  1  0  0  0  0
 19 28  2  0  0  0  0
 20 23  2  0  0  0  0
 20 25  1  0  0  0  0
 21 45  1  0  0  0  0
 22 23  1  0  0  0  0
 22 24  2  0  0  0  0
 22 29  1  0  0  0  0
 23 46  1  0  0  0  0
 24 27  1  0  0  0  0
 24 30  1  0  0  0  0
 25 27  2  0  0  0  0
 25 47  1  0  0  0  0
 26 48  1  0  0  0  0
 27 49  1  0  0  0  0
 29 31  2  0  0  0  0
 29 50  1  0  0  0  0
 30 51  1  0  0  0  0
 31 52  1  0  0  0  0
M  END
> <PUBCHEM_COMPOUND_CID>
10216627

> <PUBCHEM_CONFORMER_RMSD>
1

> <PUBCHEM_CONFORMER_DIVERSEORDER>
2
197
172
320
195
140
264
207
251
345
9
268
213
206
270
36
238
163
263
79
326
305
92
309
38
45
125
192
33
143
364
170
64
365
279
237
323
84
231
201
246
355
160
295
41
366
261
348
181
381
241
256
131
344
289
93
234
78
392
275
164
254
303
180
327
382
253
185
101
301
386
383
390
225
178
384
347
94
248
337
21
307
134
218
157
76
227
141
158
232
378
244
47
371
196
288
358
63
230
387
203
282
229
40
375
66
130
362
58
57
233
205
300
287
290
260
111
278
368
87
103
249
341
168
281
376
199
61
221
247
142
71
148
286
324
285
53
350
335
114
304
200
271
215
239
280
291
317
8
369
59
24
259
363
297
106
110
380
171
68
175
17
283
159
113
149
124
189
88
343
372
240
379
359
293
62
1
109
153
208
151
210
377
12
3
325
202
139
296
276
332
85
179
292
129
194
73
191
42
126
29
90
235
95
308
273
389
115
152
357
187
176
65
243
14
306
51
242
182
50
161
198
156
91
220
54
11
329
128
105
294
44
316
262
35
211
216
174
250
100
30
258
284
96
223
10
204
80
13
144
118
330
266
272
224
331
119
336
277
48
177
370
245
162
373
98
315
127
353
252
319
137
351
265
193
5
155
81
154
274
122
39
150
314
56
97
222
257
311
361
138
147
342
302
217
146
360
72
37
135
7
69
298
116
186
121
15
236
334
214
43
120
219
267
6
385
354
26
228
70
173
352
49
339
367
16
132
255
338
209
20
89
356
391
340
31
374
83
167
328
299
107
136
27
333
18
226
310
25
108
4
28
145
34
133
67
190
99
346
55
322
102
312
82
313
388
104
19
52
349
46
23
22
112
123
86
184
32
269
169
74
77
117
212
188
321
166
60
318
165
183
75

> <PUBCHEM_MMFF94_PARTIAL_CHARGES>
42
1 -0.18
11 0.28
12 -0.15
13 -0.3
14 -0.15
15 -0.15
16 -0.15
17 -0.15
18 0.08
2 -0.36
21 -0.15
23 -0.15
25 -0.15
26 0.16
27 -0.15
28 0.49
29 -0.15
3 0.03
30 0.16
31 0.16
37 0.15
38 0.27
39 0.15
4 -0.99
40 0.36
41 0.36
42 0.15
43 0.15
44 0.15
45 0.15
46 0.15
47 0.15
48 0.15
49 0.15
5 -0.62
50 0.15
51 0.15
52 0.15
6 -0.62
7 0.18
8 0.27
9 -0.18

> <PUBCHEM_EFFECTIVE_ROTOR_COUNT>
6

> <PUBCHEM_PHARMACOPHORE_FEATURES>
12
1 2 acceptor
1 3 cation
1 3 donor
1 4 cation
1 4 donor
1 5 acceptor
1 6 acceptor
5 3 9 10 12 13 rings
6 10 12 14 15 16 17 rings
6 20 22 23 24 25 27 rings
6 5 18 19 21 26 28 rings
6 6 22 24 29 30 31 rings

> <PUBCHEM_HEAVY_ATOM_COUNT>
31

> <PUBCHEM_ATOM_DEF_STEREO_COUNT>
1

> <PUBCHEM_ATOM_UDEF_STEREO_COUNT>
0

> <PUBCHEM_BOND_DEF_STEREO_COUNT>
0

> <PUBCHEM_BOND_UDEF_STEREO_COUNT>
0

> <PUBCHEM_ISOTOPIC_ATOM_COUNT>
0

> <PUBCHEM_COMPONENT_COUNT>
1

> <PUBCHEM_CACTVS_TAUTO_COUNT>
1

> <PUBCHEM_CONFORMER_ID>
009BE4B300000002

> <PUBCHEM_MMFF94_ENERGY>
84.6742

> <PUBCHEM_FEATURE_SELFOVERLAP>
61.017

> <PUBCHEM_SHAPE_FINGERPRINT>
11513181 2 18055916747378707134
12422481 6 18197808616107178763
12553582 1 18124317361563481756
13402501 40 18272089353251125214
13726171 33 17977142176614512197
14117953 113 18338794503706491269
14251757 5 18260835894785267852
14279260 333 17967530135091767906
14725015 67 18410007776067211499
15361156 5 18272368689661455980
15927050 60 17549823287923960893
16112460 7 18270977803099557393
17093844 170 18341889688835483618
17627616 140 17973723571572521107
19319366 153 17531241708732986666
20764821 26 18340501044119737871
22440779 20 16229461894713117523
23559900 14 18411696625315948464
238918 7 18130790006107078150
24893992 56 18408038517025464247
3052486 1 18408605851439075938
3298306 158 18336253541140432405
3383291 50 18410851092975363787
340366 18 18187364359096778733
354706 35 17546142556373732239
4394409 98 18041838390154113405
445580 2 18342458144668284551
508706 21 18268725921496564966
563151 74 16270778183426422890
59755656 215 18266172842764532253
6138700 20 18412540982037780455

> <PUBCHEM_SHAPE_MULTIPOLES>
614.04
11.82
5.3
1.43
5.12
1.71
0.12
-3.83
-0.76
-1.57
-0.54
0.59
-0.68
1.38

> <PUBCHEM_SHAPE_SELFOVERLAP>
1362.56

> <PUBCHEM_SHAPE_VOLUME>
330

> <PUBCHEM_COORDINATE_TYPE>
2
5
10

$$$$
