9548013
  -OEChem-10052115153D

 25 26  0     0  0  0  0  0  0999 V2000
    2.5094    1.1272   -0.2788 S   0  0  0  0  0  0  0  0  0  0  0  0
   -3.3318   -0.7624    1.2264 S   0  0  0  0  0  0  0  0  0  0  0  0
   -3.2658   -2.0872   -1.0418 F   0  0  0  0  0  0  0  0  0  0  0  0
   -4.0650   -0.0571   -1.1961 F   0  0  0  0  0  0  0  0  0  0  0  0
   -5.2622   -1.6359   -0.2940 F   0  0  0  0  0  0  0  0  0  0  0  0
    1.9433   -2.4869    0.4146 O   0  5  0  0  0  0  0  0  0  0  0  0
   -1.1438    3.7995    0.0512 O   0  5  0  0  0  0  0  0  0  0  0  0
    0.9996    3.5493   -0.3517 O   0  0  0  0  0  0  0  0  0  0  0  0
    4.4927   -2.2366   -0.1305 O   0  0  0  0  0  0  0  0  0  0  0  0
    1.7719   -1.2456    0.2516 N   0  3  0  0  0  0  0  0  0  0  0  0
   -0.1216    3.0822   -0.0466 N   0  3  0  0  0  0  0  0  0  0  0  0
    5.1431   -0.1189   -0.6231 N   0  0  0  0  0  0  0  0  0  0  0  0
    0.6145   -0.5788    0.3838 C   0  0  0  0  0  0  0  0  0  0  0  0
    0.8361    0.7821    0.1211 C   0  0  0  0  0  0  0  0  0  0  0  0
   -0.2389    1.6837    0.1988 C   0  0  0  0  0  0  0  0  0  0  0  0
   -0.6423   -1.0843    0.7234 C   0  0  0  0  0  0  0  0  0  0  0  0
   -1.7009   -0.1745    0.7965 C   0  0  0  0  0  0  0  0  0  0  0  0
    2.8183   -0.5508   -0.0749 C   0  0  0  0  0  0  0  0  0  0  0  0
   -1.5026    1.1832    0.5389 C   0  0  0  0  0  0  0  0  0  0  0  0
    4.1468   -1.0391   -0.2709 C   0  0  0  0  0  0  0  0  0  0  0  0
   -4.0009   -1.1491   -0.3980 C   0  0  0  0  0  0  0  0  0  0  0  0
   -0.7884   -2.1418    0.9216 H   0  0  0  0  0  0  0  0  0  0  0  0
   -2.3636    1.8467    0.6102 H   0  0  0  0  0  0  0  0  0  0  0  0
    4.9460    0.8691   -0.7471 H   0  0  0  0  0  0  0  0  0  0  0  0
    6.1019   -0.4188   -0.7652 H   0  0  0  0  0  0  0  0  0  0  0  0
  1 14  1  0  0  0  0
  1 18  1  0  0  0  0
  2 17  1  0  0  0  0
  2 21  1  0  0  0  0
  3 21  1  0  0  0  0
  4 21  1  0  0  0  0
  5 21  1  0  0  0  0
  6 10  1  0  0  0  0
  7 11  1  0  0  0  0
  8 11  2  0  0  0  0
  9 20  2  0  0  0  0
 10 13  1  0  0  0  0
 10 18  2  0  0  0  0
 11 15  1  0  0  0  0
 12 20  1  0  0  0  0
 12 24  1  0  0  0  0
 12 25  1  0  0  0  0
 13 14  2  0  0  0  0
 13 16  1  0  0  0  0
 14 15  1  0  0  0  0
 15 19  2  0  0  0  0
 16 17  2  0  0  0  0
 16 22  1  0  0  0  0
 17 19  1  0  0  0  0
 18 20  1  0  0  0  0
 19 23  1  0  0  0  0
M  CHG  4   6  -1   7  -1  10   1  11   1
M  END
> <PUBCHEM_COMPOUND_CID>
9548013

> <PUBCHEM_CONFORMER_RMSD>
0.6

> <PUBCHEM_CONFORMER_DIVERSEORDER>
2
11
12
10
5
6
8
3
9
7
1
4

> <PUBCHEM_MMFF94_PARTIAL_CHARGES>
25
1 -0.08
10 0.8
11 0.91
12 -0.8
13 -0.08
14 0.04
15 0.13
16 -0.15
17 0.1
18 -0.13
19 -0.15
2 -0.33
20 0.71
21 1.25
22 0.15
23 0.15
24 0.37
25 0.37
3 -0.34
4 -0.34
5 -0.34
6 -0.63
7 -0.52
8 -0.52
9 -0.57

> <PUBCHEM_EFFECTIVE_ROTOR_COUNT>
4

> <PUBCHEM_PHARMACOPHORE_FEATURES>
8
1 12 donor
1 6 anion
1 7 acceptor
1 7 anion
1 8 acceptor
1 9 acceptor
5 1 10 13 14 18 rings
6 13 14 15 16 17 19 rings

> <PUBCHEM_HEAVY_ATOM_COUNT>
21

> <PUBCHEM_ATOM_DEF_STEREO_COUNT>
0

> <PUBCHEM_ATOM_UDEF_STEREO_COUNT>
0

> <PUBCHEM_BOND_DEF_STEREO_COUNT>
0

> <PUBCHEM_BOND_UDEF_STEREO_COUNT>
0

> <PUBCHEM_ISOTOPIC_ATOM_COUNT>
0

> <PUBCHEM_COMPONENT_COUNT>
1

> <PUBCHEM_CACTVS_TAUTO_COUNT>
2

> <PUBCHEM_CONFORMER_ID>
0091B0ED00000002

> <PUBCHEM_MMFF94_ENERGY>
54.9811

> <PUBCHEM_FEATURE_SELFOVERLAP>
40.751

> <PUBCHEM_SHAPE_FINGERPRINT>
10967382 1 18264782132623307600
11045515 52 18260828189698640333
11578080 2 17774421820513728665
11806522 49 18411984663318711146
12403259 226 18269271279901855592
12403260 363 18261956242059064850
12553582 1 18408891723840013803
12788726 201 18118676626421378337
13004483 165 18339349769472594739
13009979 54 17774171222531343595
13134695 92 18338800134134017045
14508225 48 18408321060336409828
14576447 43 18341327881038031559
15848700 24 18411417340951276600
16087824 20 18194121807955139657
167882 2 17975135649582413340
16945 1 18265062516256358065
17357779 13 18334287669435541909
17539 30 18266453209524168589
1813 80 18200611253501838711
200 152 18412824681322422475
20510252 161 18338808793209923288
20645477 70 18118959433122761019
20671657 53 18341054098711082233
21029758 11 18408606984709023024
21267235 1 18341060682838489963
21501502 16 18046067052013879650
21634736 98 18126846233838845711
21641784 216 17896622646863229556
221357 26 18334284388903200847
221490 88 18119815969570965651
23114952 82 17971469847993016157
23175994 123 18334301980720168195
23402539 116 18341052934479779834
23557571 272 18129104424647899500
23558518 356 17899150320937000106
23559900 14 18267300018044585832
23622692 118 18119239572375815874
2748010 2 17470181708894647721
2871803 45 18335140869337482146
3286 77 17418373605946769586
34934 24 18263932033898816681
46194498 28 17677606648144413647
5283173 99 18114170891847485324
532947 4 18051979409430978184
58779409 54 18191862323383989724
7164475 11 18264773164800236758
7364860 26 18194682802916927153
7471813 234 18272648000043058405
81228 2 18262799536664134393

> <PUBCHEM_SHAPE_MULTIPOLES>
379.63
8.45
3.37
0.89
0.32
3.59
-0.01
-6.7
2.24
-0.22
0.24
0.77
-0.21
-0.48

> <PUBCHEM_SHAPE_SELFOVERLAP>
802.834

> <PUBCHEM_SHAPE_VOLUME>
216

> <PUBCHEM_COORDINATE_TYPE>
2
5
10

$$$$
