44352770
  -OEChem-10052115163D

 74 82  0     1  0  0  0  0  0999 V2000
    0.0524   -2.2524    2.3500 O   0  0  0  0  0  0  0  0  0  0  0  0
   -3.3434   -1.7671    0.9361 O   0  0  0  0  0  0  0  0  0  0  0  0
    4.6454    2.6811   -0.6305 O   0  0  0  0  0  0  0  0  0  0  0  0
   -0.8854   -0.1947    1.6746 N   0  0  0  0  0  0  0  0  0  0  0  0
    1.5521   -1.6419    0.6923 N   0  0  0  0  0  0  0  0  0  0  0  0
   -1.3035   -1.7173   -1.1073 N   0  0  2  0  0  0  0  0  0  0  0  0
    2.9448    4.1764   -0.0419 N   0  0  0  0  0  0  0  0  0  0  0  0
   -1.1761   -1.5584    2.1219 C   0  0  1  0  0  0  0  0  0  0  0  0
   -2.0904   -2.3897    1.1802 C   0  0  2  0  0  0  0  0  0  0  0  0
   -1.4392   -2.8064   -0.1426 C   0  0  2  0  0  0  0  0  0  0  0  0
    0.7407   -2.7117    1.2093 C   0  0  2  0  0  0  0  0  0  0  0  0
   -0.0999   -3.4620    0.1715 C   0  0  0  0  0  0  0  0  0  0  0  0
    0.2671    0.3998    1.1992 C   0  0  0  0  0  0  0  0  0  0  0  0
    1.4305   -0.2856    0.7421 C   0  0  0  0  0  0  0  0  0  0  0  0
    0.3488    1.8384    1.0696 C   0  0  0  0  0  0  0  0  0  0  0  0
    2.5104    0.5586    0.2586 C   0  0  0  0  0  0  0  0  0  0  0  0
   -1.7761   -1.5595    3.5498 C   0  0  0  0  0  0  0  0  0  0  0  0
   -1.7295    0.9314    1.7965 C   0  0  0  0  0  0  0  0  0  0  0  0
    2.8113   -1.8028    0.1104 C   0  0  0  0  0  0  0  0  0  0  0  0
   -1.0116    2.1284    1.4926 C   0  0  0  0  0  0  0  0  0  0  0  0
    1.4086    2.6340    0.6430 C   0  0  0  0  0  0  0  0  0  0  0  0
    2.5384    1.9491    0.2280 C   0  0  0  0  0  0  0  0  0  0  0  0
    3.4067   -0.5318   -0.1433 C   0  0  0  0  0  0  0  0  0  0  0  0
    1.5986    4.1061    0.4859 C   0  0  0  0  0  0  0  0  0  0  0  0
   -2.6021   -1.3896   -1.6957 C   0  0  0  0  0  0  0  0  0  0  0  0
   -3.0898    1.0296    2.1682 C   0  0  0  0  0  0  0  0  0  0  0  0
   -0.3452   -2.0755   -2.1529 C   0  0  0  0  0  0  0  0  0  0  0  0
    3.5319    2.9265   -0.2101 C   0  0  0  0  0  0  0  0  0  0  0  0
    3.4876   -2.9989   -0.2104 C   0  0  0  0  0  0  0  0  0  0  0  0
   -1.6847    3.3734    1.6032 C   0  0  0  0  0  0  0  0  0  0  0  0
    4.6983   -0.5279   -0.7296 C   0  0  0  0  0  0  0  0  0  0  0  0
   -4.3658   -2.7253    0.6947 C   0  0  0  0  0  0  0  0  0  0  0  0
   -3.7169    2.2753    2.2598 C   0  0  0  0  0  0  0  0  0  0  0  0
   -3.0220    3.4379    1.9867 C   0  0  0  0  0  0  0  0  0  0  0  0
    4.7568   -2.9412   -0.7842 C   0  0  0  0  0  0  0  0  0  0  0  0
   -2.4977   -0.2692   -2.6960 C   0  0  0  0  0  0  0  0  0  0  0  0
    5.3572   -1.7207   -1.0408 C   0  0  0  0  0  0  0  0  0  0  0  0
   -2.6453    1.0537   -2.2790 C   0  0  0  0  0  0  0  0  0  0  0  0
   -2.2534   -0.5538   -4.0395 C   0  0  0  0  0  0  0  0  0  0  0  0
   -2.5486    2.0920   -3.2054 C   0  0  0  0  0  0  0  0  0  0  0  0
   -2.1567    0.4844   -4.9659 C   0  0  0  0  0  0  0  0  0  0  0  0
   -2.3044    1.8074   -4.5490 C   0  0  0  0  0  0  0  0  0  0  0  0
   -2.2777   -3.3294    1.7251 H   0  0  0  0  0  0  0  0  0  0  0  0
   -2.0475   -3.5935   -0.6095 H   0  0  0  0  0  0  0  0  0  0  0  0
    1.4553   -3.4398    1.6128 H   0  0  0  0  0  0  0  0  0  0  0  0
   -0.3685   -4.4116    0.6639 H   0  0  0  0  0  0  0  0  0  0  0  0
    0.4858   -3.8085   -0.6839 H   0  0  0  0  0  0  0  0  0  0  0  0
   -2.8297   -1.2814    3.5877 H   0  0  0  0  0  0  0  0  0  0  0  0
   -1.7022   -2.5596    3.9969 H   0  0  0  0  0  0  0  0  0  0  0  0
   -1.2168   -0.8884    4.2132 H   0  0  0  0  0  0  0  0  0  0  0  0
    0.9096    4.5405   -0.2425 H   0  0  0  0  0  0  0  0  0  0  0  0
    1.5615    4.6358    1.4407 H   0  0  0  0  0  0  0  0  0  0  0  0
   -3.3361   -1.0139   -0.9898 H   0  0  0  0  0  0  0  0  0  0  0  0
   -3.0587   -2.2625   -2.1827 H   0  0  0  0  0  0  0  0  0  0  0  0
   -3.6882    0.1541    2.3862 H   0  0  0  0  0  0  0  0  0  0  0  0
   -0.1814   -1.2588   -2.8608 H   0  0  0  0  0  0  0  0  0  0  0  0
    0.6729   -2.2097   -1.7859 H   0  0  0  0  0  0  0  0  0  0  0  0
   -0.6436   -2.9696   -2.7130 H   0  0  0  0  0  0  0  0  0  0  0  0
    3.0334   -3.9671   -0.0202 H   0  0  0  0  0  0  0  0  0  0  0  0
   -1.1606    4.2989    1.3781 H   0  0  0  0  0  0  0  0  0  0  0  0
    5.2056    0.4036   -0.9535 H   0  0  0  0  0  0  0  0  0  0  0  0
    3.4136    5.0479   -0.2683 H   0  0  0  0  0  0  0  0  0  0  0  0
   -4.5226   -3.3482    1.5812 H   0  0  0  0  0  0  0  0  0  0  0  0
   -4.1540   -3.3550   -0.1723 H   0  0  0  0  0  0  0  0  0  0  0  0
   -5.2945   -2.1819    0.4981 H   0  0  0  0  0  0  0  0  0  0  0  0
   -4.7632    2.3268    2.5493 H   0  0  0  0  0  0  0  0  0  0  0  0
   -3.5183    4.4010    2.0611 H   0  0  0  0  0  0  0  0  0  0  0  0
    5.2766   -3.8627   -1.0316 H   0  0  0  0  0  0  0  0  0  0  0  0
    6.3462   -1.6868   -1.4894 H   0  0  0  0  0  0  0  0  0  0  0  0
   -2.8355    1.2911   -1.2361 H   0  0  0  0  0  0  0  0  0  0  0  0
   -2.1511   -1.5793   -4.3846 H   0  0  0  0  0  0  0  0  0  0  0  0
   -2.6629    3.1220   -2.8803 H   0  0  0  0  0  0  0  0  0  0  0  0
   -1.9698    0.2627   -6.0126 H   0  0  0  0  0  0  0  0  0  0  0  0
   -2.2297    2.6157   -5.2704 H   0  0  0  0  0  0  0  0  0  0  0  0
  1  8  1  0  0  0  0
  1 11  1  0  0  0  0
  2  9  1  0  0  0  0
  2 32  1  0  0  0  0
  3 28  2  0  0  0  0
  4  8  1  0  0  0  0
  4 13  1  0  0  0  0
  4 18  1  0  0  0  0
  5 11  1  0  0  0  0
  5 14  1  0  0  0  0
  5 19  1  0  0  0  0
  6 10  1  0  0  0  0
  6 25  1  0  0  0  0
  6 27  1  0  0  0  0
  7 24  1  0  0  0  0
  7 28  1  0  0  0  0
  7 62  1  0  0  0  0
  8  9  1  0  0  0  0
  8 17  1  0  0  0  0
  9 10  1  0  0  0  0
  9 43  1  0  0  0  0
 10 12  1  0  0  0  0
 10 44  1  0  0  0  0
 11 12  1  0  0  0  0
 11 45  1  0  0  0  0
 12 46  1  0  0  0  0
 12 47  1  0  0  0  0
 13 14  2  0  0  0  0
 13 15  1  0  0  0  0
 14 16  1  0  0  0  0
 15 20  1  0  0  0  0
 15 21  2  0  0  0  0
 16 22  2  0  0  0  0
 16 23  1  0  0  0  0
 17 48  1  0  0  0  0
 17 49  1  0  0  0  0
 17 50  1  0  0  0  0
 18 20  1  0  0  0  0
 18 26  2  0  0  0  0
 19 23  1  0  0  0  0
 19 29  2  0  0  0  0
 20 30  2  0  0  0  0
 21 22  1  0  0  0  0
 21 24  1  0  0  0  0
 22 28  1  0  0  0  0
 23 31  2  0  0  0  0
 24 51  1  0  0  0  0
 24 52  1  0  0  0  0
 25 36  1  0  0  0  0
 25 53  1  0  0  0  0
 25 54  1  0  0  0  0
 26 33  1  0  0  0  0
 26 55  1  0  0  0  0
 27 56  1  0  0  0  0
 27 57  1  0  0  0  0
 27 58  1  0  0  0  0
 29 35  1  0  0  0  0
 29 59  1  0  0  0  0
 30 34  1  0  0  0  0
 30 60  1  0  0  0  0
 31 37  1  0  0  0  0
 31 61  1  0  0  0  0
 32 63  1  0  0  0  0
 32 64  1  0  0  0  0
 32 65  1  0  0  0  0
 33 34  2  0  0  0  0
 33 66  1  0  0  0  0
 34 67  1  0  0  0  0
 35 37  2  0  0  0  0
 35 68  1  0  0  0  0
 36 38  2  0  0  0  0
 36 39  1  0  0  0  0
 37 69  1  0  0  0  0
 38 40  1  0  0  0  0
 38 70  1  0  0  0  0
 39 41  2  0  0  0  0
 39 71  1  0  0  0  0
 40 42  2  0  0  0  0
 40 72  1  0  0  0  0
 41 42  1  0  0  0  0
 41 73  1  0  0  0  0
 42 74  1  0  0  0  0
M  END
> <PUBCHEM_COMPOUND_CID>
44352770

> <PUBCHEM_CONFORMER_RMSD>
1

> <PUBCHEM_CONFORMER_DIVERSEORDER>
1
6
2
5
7
4
3

> <PUBCHEM_MMFF94_PARTIAL_CHARGES>
52
1 -0.56
10 0.27
11 0.54
13 -0.05
14 -0.05
15 -0.01
16 -0.01
18 -0.15
19 -0.15
2 -0.56
21 -0.14
22 0.09
24 0.44
25 0.41
26 -0.15
27 0.27
28 0.54
29 -0.15
3 -0.57
30 -0.15
31 -0.15
32 0.28
33 -0.15
34 -0.15
35 -0.15
36 -0.14
37 -0.15
38 -0.15
39 -0.15
4 -0.04
40 -0.15
41 -0.15
42 -0.15
5 -0.04
55 0.15
59 0.15
6 -0.81
60 0.15
61 0.15
62 0.37
66 0.15
67 0.15
68 0.15
69 0.15
7 -0.73
70 0.15
71 0.15
72 0.15
73 0.15
74 0.15
8 0.54
9 0.28

> <PUBCHEM_EFFECTIVE_ROTOR_COUNT>
5.2

> <PUBCHEM_PHARMACOPHORE_FEATURES>
16
1 1 acceptor
1 2 acceptor
1 3 acceptor
1 4 cation
1 5 cation
1 6 cation
1 7 donor
5 4 13 15 18 20 rings
5 5 14 16 19 23 rings
5 7 21 22 24 28 rings
6 1 8 9 10 11 12 rings
6 13 14 15 16 21 22 rings
6 18 20 26 30 33 34 rings
6 19 23 29 31 35 37 rings
6 36 38 39 40 41 42 rings
7 1 4 5 8 11 13 14 rings

> <PUBCHEM_HEAVY_ATOM_COUNT>
42

> <PUBCHEM_ATOM_DEF_STEREO_COUNT>
4

> <PUBCHEM_ATOM_UDEF_STEREO_COUNT>
0

> <PUBCHEM_BOND_DEF_STEREO_COUNT>
0

> <PUBCHEM_BOND_UDEF_STEREO_COUNT>
0

> <PUBCHEM_ISOTOPIC_ATOM_COUNT>
0

> <PUBCHEM_COMPONENT_COUNT>
1

> <PUBCHEM_CACTVS_TAUTO_COUNT>
2

> <PUBCHEM_CONFORMER_ID>
02A4C50200000001

> <PUBCHEM_MMFF94_ENERGY>
188.1843

> <PUBCHEM_FEATURE_SELFOVERLAP>
82.326

> <PUBCHEM_SHAPE_FINGERPRINT>
1100329 8 18267043677554329256
11445158 3 18044122101479907564
11578080 2 17312821585392896860
11763715 3 17616579384711160539
11828532 37 13293944467810137440
12156800 1 17841191850596380413
12422481 6 17200830781048626515
13642711 20 17612035875814444037
14279260 333 18200324350499459964
15274700 242 17913766395541341096
15324884 4 15957212056398054635
15484559 13 17480315473781995301
18603816 31 16483028749882476302
20764821 26 18411150134172551496
22121540 332 16662337174680177861
238 59 17608624168711879397
469060 322 17023201417500385699
513532 50 15617423016430333837
57527452 28 16484440560970801673

> <PUBCHEM_SHAPE_MULTIPOLES>
826.81
7.65
5.28
4.3
8
2.97
-5.75
-0.7
-2.1
1.33
1.59
-7.05
0.09
-0.33

> <PUBCHEM_SHAPE_SELFOVERLAP>
1895.914

> <PUBCHEM_SHAPE_VOLUME>
424

> <PUBCHEM_COORDINATE_TYPE>
2
5
10

$$$$
