49830682
  -OEChem-10052120433D

 36 38  0     0  0  0  0  0  0999 V2000
   -6.2649   -2.3261    0.0018 F   0  0  0  0  0  0  0  0  0  0  0  0
   -6.8535   -0.5350    1.0851 F   0  0  0  0  0  0  0  0  0  0  0  0
   -6.8533   -0.5363   -1.0837 F   0  0  0  0  0  0  0  0  0  0  0  0
    2.1864    1.3730   -0.0015 O   0  0  0  0  0  0  0  0  0  0  0  0
    0.3439   -0.0725   -0.0011 N   0  0  0  0  0  0  0  0  0  0  0  0
   -2.8506    2.6260   -0.0007 N   0  0  0  0  0  0  0  0  0  0  0  0
    2.4768   -0.9474   -0.0015 N   0  0  0  0  0  0  0  0  0  0  0  0
    4.6413    0.0371   -0.0001 N   0  0  0  0  0  0  0  0  0  0  0  0
    7.3673    2.0412    0.0033 N   0  0  0  0  0  0  0  0  0  0  0  0
   -2.0698    0.3463   -0.0004 C   0  0  0  0  0  0  0  0  0  0  0  0
   -3.1054    1.3040   -0.0004 C   0  0  0  0  0  0  0  0  0  0  0  0
   -0.7459    0.8061   -0.0010 C   0  0  0  0  0  0  0  0  0  0  0  0
   -4.7212   -0.5177    0.0006 C   0  0  0  0  0  0  0  0  0  0  0  0
   -2.3722   -1.0261    0.0004 C   0  0  0  0  0  0  0  0  0  0  0  0
   -4.4204    0.8465   -0.0001 C   0  0  0  0  0  0  0  0  0  0  0  0
   -3.6962   -1.4554    0.0011 C   0  0  0  0  0  0  0  0  0  0  0  0
   -0.4802    2.1679   -0.0011 C   0  0  0  0  0  0  0  0  0  0  0  0
   -6.1436   -0.9666    0.0010 C   0  0  0  0  0  0  0  0  0  0  0  0
   -1.5590    3.0284   -0.0009 C   0  0  0  0  0  0  0  0  0  0  0  0
    1.7229    0.2371   -0.0014 C   0  0  0  0  0  0  0  0  0  0  0  0
    3.8852   -1.0835   -0.0017 C   0  0  0  0  0  0  0  0  0  0  0  0
    4.4028   -2.3687   -0.0022 C   0  0  0  0  0  0  0  0  0  0  0  0
    5.7857   -2.5131   -0.0007 C   0  0  0  0  0  0  0  0  0  0  0  0
    5.9812   -0.1427    0.0014 C   0  0  0  0  0  0  0  0  0  0  0  0
    6.5972   -1.3838    0.0013 C   0  0  0  0  0  0  0  0  0  0  0  0
    6.7454    1.0613    0.0025 C   0  0  0  0  0  0  0  0  0  0  0  0
   -1.6127   -1.8009    0.0007 H   0  0  0  0  0  0  0  0  0  0  0  0
   -5.2352    1.5694   -0.0004 H   0  0  0  0  0  0  0  0  0  0  0  0
   -3.9054   -2.5213    0.0017 H   0  0  0  0  0  0  0  0  0  0  0  0
    0.4909    2.6338   -0.0014 H   0  0  0  0  0  0  0  0  0  0  0  0
    0.1392   -1.0644   -0.0011 H   0  0  0  0  0  0  0  0  0  0  0  0
   -1.4142    4.1040   -0.0010 H   0  0  0  0  0  0  0  0  0  0  0  0
    1.9534   -1.8193   -0.0018 H   0  0  0  0  0  0  0  0  0  0  0  0
    3.7652   -3.2467   -0.0034 H   0  0  0  0  0  0  0  0  0  0  0  0
    6.2304   -3.5037   -0.0009 H   0  0  0  0  0  0  0  0  0  0  0  0
    7.6774   -1.4874    0.0025 H   0  0  0  0  0  0  0  0  0  0  0  0
  1 18  1  0  0  0  0
  2 18  1  0  0  0  0
  3 18  1  0  0  0  0
  4 20  2  0  0  0  0
  5 12  1  0  0  0  0
  5 20  1  0  0  0  0
  5 31  1  0  0  0  0
  6 11  2  0  0  0  0
  6 19  1  0  0  0  0
  7 20  1  0  0  0  0
  7 21  1  0  0  0  0
  7 33  1  0  0  0  0
  8 21  1  0  0  0  0
  8 24  2  0  0  0  0
  9 26  3  0  0  0  0
 10 11  1  0  0  0  0
 10 12  2  0  0  0  0
 10 14  1  0  0  0  0
 11 15  1  0  0  0  0
 12 17  1  0  0  0  0
 13 15  2  0  0  0  0
 13 16  1  0  0  0  0
 13 18  1  0  0  0  0
 14 16  2  0  0  0  0
 14 27  1  0  0  0  0
 15 28  1  0  0  0  0
 16 29  1  0  0  0  0
 17 19  2  0  0  0  0
 17 30  1  0  0  0  0
 19 32  1  0  0  0  0
 21 22  2  0  0  0  0
 22 23  1  0  0  0  0
 22 34  1  0  0  0  0
 23 25  2  0  0  0  0
 23 35  1  0  0  0  0
 24 25  1  0  0  0  0
 24 26  1  0  0  0  0
 25 36  1  0  0  0  0
M  END
> <PUBCHEM_COMPOUND_CID>
49830682

> <PUBCHEM_CONFORMER_RMSD>
0.8

> <PUBCHEM_CONFORMER_DIVERSEORDER>
1
25
9
11
17
18
20
19
16
4
21
6
23
12
22
7
15
26
3
10
8
14
2
24
13
5

> <PUBCHEM_MMFF94_PARTIAL_CHARGES>
35
1 -0.34
11 0.31
12 0.12
13 -0.14
14 -0.15
15 -0.15
16 -0.15
17 -0.15
18 1.16
19 0.16
2 -0.34
20 0.69
21 0.43
22 -0.15
23 -0.15
24 0.38
25 -0.15
26 0.48
27 0.15
28 0.15
29 0.15
3 -0.34
30 0.15
31 0.37
32 0.15
33 0.37
34 0.15
35 0.15
36 0.15
4 -0.57
5 -0.55
6 -0.62
7 -0.55
8 -0.62
9 -0.56

> <PUBCHEM_EFFECTIVE_ROTOR_COUNT>
5

> <PUBCHEM_PHARMACOPHORE_FEATURES>
9
1 4 acceptor
1 5 donor
1 6 acceptor
1 7 donor
1 8 acceptor
1 9 acceptor
6 10 11 13 14 15 16 rings
6 6 10 11 12 17 19 rings
6 8 21 22 23 24 25 rings

> <PUBCHEM_HEAVY_ATOM_COUNT>
26

> <PUBCHEM_ATOM_DEF_STEREO_COUNT>
0

> <PUBCHEM_ATOM_UDEF_STEREO_COUNT>
0

> <PUBCHEM_BOND_DEF_STEREO_COUNT>
0

> <PUBCHEM_BOND_UDEF_STEREO_COUNT>
0

> <PUBCHEM_ISOTOPIC_ATOM_COUNT>
0

> <PUBCHEM_COMPONENT_COUNT>
1

> <PUBCHEM_CACTVS_TAUTO_COUNT>
11

> <PUBCHEM_CONFORMER_ID>
02F85B1A00000001

> <PUBCHEM_MMFF94_ENERGY>
70.3856

> <PUBCHEM_FEATURE_SELFOVERLAP>
45.757

> <PUBCHEM_SHAPE_FINGERPRINT>
10299344 5 18131072636345335098
10391435 84 18261106430596658163
10411042 1 18410575128673262849
10595046 47 18409168771417228080
10835480 77 18336820910309785332
10939801 23 18341612672425417886
10968037 39 18408603682248365919
11315181 36 18343023307315606465
11524674 6 16415757531332791511
12107183 9 17400076371351589538
12166972 35 17749113304793784013
12236239 1 18114182999607679500
12516196 113 18413108368090908272
12760667 363 18411982451727019307
13073987 5 18411418367770350128
13288520 33 18410573977410823157
13533116 47 18410013260540014228
13685833 64 18409169913324874771
13862211 1 18413107273681603263
14251732 16 18411418414904155528
14251764 18 18060420226836565803
14347332 77 18335980870086919052
14461889 52 18409163342784489810
14840074 17 17989480827439486063
15196674 1 18338798914779691808
15716309 27 18273495663056693799
15728490 51 18340767152146763230
15927050 60 17623848333518145812
16087824 20 18265051342049874277
17492 89 18124314909649521166
17844677 252 18339930303813163184
18006028 8 18342736325942895829
18335252 98 18410858776449575946
21049683 271 18341333404767251872
21130935 74 18343585105680203018
21236236 1 18341050714435335977
21267235 1 18408609162811219531
21315763 28 18410011001798647170
21792934 111 18413385437339048073
22149856 69 18130515141321860936
2297311 6 18341898458889780581
23522609 53 18125472819104011632
23559900 14 18410566323257447049
239999 70 18200315404272460350
3004659 81 18040713679625864503
335352 9 18410569597013634541
3383291 50 18114468941767993891
34797466 226 17846505842292146924
350125 39 18342457045246372896
4073 2 18114186380122046970
4214541 1 18266740190991512580
4325135 7 18410013256571815460
497634 4 18337392626138308084
5104073 3 18200025136974773640
59682541 35 18271516581688478818
6138700 20 18409166602601597051
999808 66 18041292032229289555

> <PUBCHEM_SHAPE_MULTIPOLES>
482.47
20.6
2.79
0.65
9.77
0.81
0
-7.64
0.02
0.67
0
-0.41
-0.05
0.01

> <PUBCHEM_SHAPE_SELFOVERLAP>
1062.721

> <PUBCHEM_SHAPE_VOLUME>
258

> <PUBCHEM_COORDINATE_TYPE>
2
5
10

$$$$
