42618140
  -OEChem-10062122023D

 48 51  0     0  0  0  0  0  0999 V2000
   -4.8879   -1.7337    0.0808 S   0  0  0  0  0  0  0  0  0  0  0  0
    0.6279    1.6949    0.6114 O   0  0  0  0  0  0  0  0  0  0  0  0
   -5.1551   -2.7460   -0.9311 O   0  0  0  0  0  0  0  0  0  0  0  0
   -5.3345   -1.9449    1.4507 O   0  0  0  0  0  0  0  0  0  0  0  0
   -2.0058    3.9025   -0.3849 N   0  0  0  0  0  0  0  0  0  0  0  0
    6.0423   -0.9735   -0.0416 N   0  0  0  0  0  0  0  0  0  0  0  0
   -5.4923   -0.2327   -0.4678 N   0  0  0  0  0  0  0  0  0  0  0  0
    0.7001    2.7878   -0.3016 C   0  0  0  0  0  0  0  0  0  0  0  0
    0.3278    4.0862    0.4141 C   0  0  0  0  0  0  0  0  0  0  0  0
   -0.2577    2.5219   -1.4618 C   0  0  0  0  0  0  0  0  0  0  0  0
   -1.1560    4.1206    0.7860 C   0  0  0  0  0  0  0  0  0  0  0  0
   -1.7204    2.6167   -1.0218 C   0  0  0  0  0  0  0  0  0  0  0  0
    1.4797    0.6452    0.3864 C   0  0  0  0  0  0  0  0  0  0  0  0
    0.9961   -0.6394    0.1487 C   0  0  0  0  0  0  0  0  0  0  0  0
    2.8539    0.8827    0.3983 C   0  0  0  0  0  0  0  0  0  0  0  0
   -0.4287   -0.9046    0.1325 C   0  0  0  0  0  0  0  0  0  0  0  0
    1.8844   -1.6922   -0.0780 C   0  0  0  0  0  0  0  0  0  0  0  0
    3.7570   -0.1692    0.1711 C   0  0  0  0  0  0  0  0  0  0  0  0
    3.2713   -1.4710   -0.0696 C   0  0  0  0  0  0  0  0  0  0  0  0
   -1.0300   -1.4151   -1.0179 C   0  0  0  0  0  0  0  0  0  0  0  0
   -1.1987   -0.6489    1.2672 C   0  0  0  0  0  0  0  0  0  0  0  0
    4.1873   -2.5053   -0.2933 C   0  0  0  0  0  0  0  0  0  0  0  0
    5.1415    0.0121    0.1717 C   0  0  0  0  0  0  0  0  0  0  0  0
   -3.1714   -1.4141    0.1010 C   0  0  0  0  0  0  0  0  0  0  0  0
   -2.4014   -1.6700   -1.0335 C   0  0  0  0  0  0  0  0  0  0  0  0
   -2.5701   -0.9035    1.2514 C   0  0  0  0  0  0  0  0  0  0  0  0
    5.5410   -2.2064   -0.2685 C   0  0  0  0  0  0  0  0  0  0  0  0
    1.7132    2.9075   -0.7037 H   0  0  0  0  0  0  0  0  0  0  0  0
    0.5584    4.9407   -0.2345 H   0  0  0  0  0  0  0  0  0  0  0  0
    0.9239    4.1935    1.3278 H   0  0  0  0  0  0  0  0  0  0  0  0
   -0.0796    1.5341   -1.9002 H   0  0  0  0  0  0  0  0  0  0  0  0
   -0.0762    3.2606   -2.2533 H   0  0  0  0  0  0  0  0  0  0  0  0
   -1.3756    3.3709    1.5561 H   0  0  0  0  0  0  0  0  0  0  0  0
   -1.3932    5.0991    1.2176 H   0  0  0  0  0  0  0  0  0  0  0  0
   -2.3644    2.5082   -1.9014 H   0  0  0  0  0  0  0  0  0  0  0  0
   -1.9758    1.7994   -0.3402 H   0  0  0  0  0  0  0  0  0  0  0  0
   -2.9843    3.9264   -0.0994 H   0  0  0  0  0  0  0  0  0  0  0  0
    3.2359    1.8801    0.6066 H   0  0  0  0  0  0  0  0  0  0  0  0
    1.5067   -2.6983   -0.2570 H   0  0  0  0  0  0  0  0  0  0  0  0
   -0.4498   -1.6131   -1.9162 H   0  0  0  0  0  0  0  0  0  0  0  0
   -0.7499   -0.2580    2.1773 H   0  0  0  0  0  0  0  0  0  0  0  0
    3.8600   -3.5230   -0.4830 H   0  0  0  0  0  0  0  0  0  0  0  0
    5.5818    0.9893    0.3503 H   0  0  0  0  0  0  0  0  0  0  0  0
   -2.8502   -2.0595   -1.9429 H   0  0  0  0  0  0  0  0  0  0  0  0
   -3.1513   -0.6921    2.1446 H   0  0  0  0  0  0  0  0  0  0  0  0
    6.2818   -2.9813   -0.4371 H   0  0  0  0  0  0  0  0  0  0  0  0
   -5.9959    0.3545    0.2082 H   0  0  0  0  0  0  0  0  0  0  0  0
   -5.8751   -0.1921   -1.4202 H   0  0  0  0  0  0  0  0  0  0  0  0
  1  3  2  0  0  0  0
  1  4  2  0  0  0  0
  1  7  1  0  0  0  0
  1 24  1  0  0  0  0
  2  8  1  0  0  0  0
  2 13  1  0  0  0  0
  5 11  1  0  0  0  0
  5 12  1  0  0  0  0
  5 37  1  0  0  0  0
  6 23  2  0  0  0  0
  6 27  1  0  0  0  0
  7 47  1  0  0  0  0
  7 48  1  0  0  0  0
  8  9  1  0  0  0  0
  8 10  1  0  0  0  0
  8 28  1  0  0  0  0
  9 11  1  0  0  0  0
  9 29  1  0  0  0  0
  9 30  1  0  0  0  0
 10 12  1  0  0  0  0
 10 31  1  0  0  0  0
 10 32  1  0  0  0  0
 11 33  1  0  0  0  0
 11 34  1  0  0  0  0
 12 35  1  0  0  0  0
 12 36  1  0  0  0  0
 13 14  2  0  0  0  0
 13 15  1  0  0  0  0
 14 16  1  0  0  0  0
 14 17  1  0  0  0  0
 15 18  2  0  0  0  0
 15 38  1  0  0  0  0
 16 20  2  0  0  0  0
 16 21  1  0  0  0  0
 17 19  2  0  0  0  0
 17 39  1  0  0  0  0
 18 19  1  0  0  0  0
 18 23  1  0  0  0  0
 19 22  1  0  0  0  0
 20 25  1  0  0  0  0
 20 40  1  0  0  0  0
 21 26  2  0  0  0  0
 21 41  1  0  0  0  0
 22 27  2  0  0  0  0
 22 42  1  0  0  0  0
 23 43  1  0  0  0  0
 24 25  2  0  0  0  0
 24 26  1  0  0  0  0
 25 44  1  0  0  0  0
 26 45  1  0  0  0  0
 27 46  1  0  0  0  0
M  END
> <PUBCHEM_COMPOUND_CID>
42618140

> <PUBCHEM_CONFORMER_RMSD>
0.8

> <PUBCHEM_CONFORMER_DIVERSEORDER>
2
22
24
9
25
4
13
8
23
19
21
16
15
17
11
10
7
26
18
1
12
20
5
14
6
3

> <PUBCHEM_MMFF94_PARTIAL_CHARGES>
33
1 1.45
11 0.27
12 0.27
13 0.08
15 -0.15
17 -0.15
2 -0.36
20 -0.15
21 -0.15
22 -0.15
23 0.16
24 -0.01
25 -0.15
26 -0.15
27 0.16
3 -0.65
37 0.36
38 0.15
39 0.15
4 -0.65
40 0.15
41 0.15
42 0.15
43 0.15
44 0.15
45 0.15
46 0.15
47 0.42
48 0.42
5 -0.9
6 -0.62
7 -0.98
8 0.28

> <PUBCHEM_EFFECTIVE_ROTOR_COUNT>
5.2

> <PUBCHEM_PHARMACOPHORE_FEATURES>
11
1 2 acceptor
1 3 acceptor
1 4 acceptor
1 5 cation
1 5 donor
1 6 acceptor
1 7 donor
6 13 14 15 17 18 19 rings
6 16 20 21 24 25 26 rings
6 5 8 9 10 11 12 rings
6 6 18 19 22 23 27 rings

> <PUBCHEM_HEAVY_ATOM_COUNT>
27

> <PUBCHEM_ATOM_DEF_STEREO_COUNT>
0

> <PUBCHEM_ATOM_UDEF_STEREO_COUNT>
0

> <PUBCHEM_BOND_DEF_STEREO_COUNT>
0

> <PUBCHEM_BOND_UDEF_STEREO_COUNT>
0

> <PUBCHEM_ISOTOPIC_ATOM_COUNT>
0

> <PUBCHEM_COMPONENT_COUNT>
1

> <PUBCHEM_CACTVS_TAUTO_COUNT>
1

> <PUBCHEM_CONFORMER_ID>
028A4D1C00000002

> <PUBCHEM_MMFF94_ENERGY>
60.8359

> <PUBCHEM_FEATURE_SELFOVERLAP>
55.867

> <PUBCHEM_SHAPE_FINGERPRINT>
10050765 1 18195246617018832234
10411042 1 18411136956601152234
10688039 33 18334014994857194724
11045515 52 18409164433072991147
11578080 2 17559366151125043864
12156800 1 18052288144369678893
12160290 23 17905010730560616572
12166972 35 18130505361855673683
12236239 1 17775289399559869858
12293681 4 18187934996846195419
12422481 6 18129118735763695395
12516196 113 18410575115013271362
12553582 1 18338784711038488066
12788726 201 18261386707166678130
13004483 165 18341323431746954794
13134695 92 18266744756256840333
13140716 1 18049997802231394810
13540713 4 18057316198981333578
13583140 156 14979671023402666922
13590594 115 18411140255642477097
13690498 29 18198357169383354526
13692114 37 17838033924252648857
138480 1 15240884959845437305
13911987 19 17969801833314686038
14028597 1 17604696790634341432
14363568 33 18194125341625930268
14713325 29 18196091036498371614
14790565 3 17544196442131222548
14955137 171 18337961206709419087
15042514 8 18339080359169749264
15081414 286 18266175213275788705
15420108 30 17188390103238067352
16087824 20 18266741273851525949
17357779 13 18336814355719667076
17492 89 18265894645434418042
17980427 23 17846232055053363745
1813 80 18271259290813047958
18335252 114 18339348744067038255
21041028 32 18410014359703475989
21049683 271 18117288162062440964
21236236 1 18339360738787225236
21478907 32 18410855426047985408
21641784 216 18114479898207947212
22182313 1 18268122371518020264
23175994 123 18187649140913112939
23419403 2 17702641324880563608
23557571 272 18339081489083518206
23559900 14 18266170833163690011
23845131 108 17474396777199500545
244849 19 17558521687556056424
249057 3 18411978101221087039
283562 15 18334576794271402178
4015057 19 18192710275152542299
4144715 1 18116157856400471675
437815 12 18408881858711325031
4409770 3 18193553368299329861
469060 322 16878511120181063820
5104073 3 18267010662826514146
513202 73 18267032652284122106
5969126 39 18411415086410067766
6004065 56 18194112138907187379
6443956 14 18337672030639835085
7164475 11 18337398149929948124
7237137 82 18335995155944737556
81228 2 18260830358836596200
9971528 1 18268986651627826459

> <PUBCHEM_SHAPE_MULTIPOLES>
526.95
10.98
4.79
1.09
2.63
6.54
0
-11.74
0.03
-2.75
-0.31
-0.92
0.06
0.52

> <PUBCHEM_SHAPE_SELFOVERLAP>
1142.802

> <PUBCHEM_SHAPE_VOLUME>
290.1

> <PUBCHEM_COORDINATE_TYPE>
2
5
10

$$$$
