24905177
  -OEChem-10052115143D

 46 48  0     0  0  0  0  0  0999 V2000
    3.2723   -0.2618   -2.3948 O   0  0  0  0  0  0  0  0  0  0  0  0
    3.2719   -0.2652    2.3945 O   0  0  0  0  0  0  0  0  0  0  0  0
    4.6637   -0.2628    0.0000 O   0  0  0  0  0  0  0  0  0  0  0  0
   -2.8870   -1.0482   -0.0005 N   0  0  0  0  0  0  0  0  0  0  0  0
   -1.5954   -1.4265   -0.0009 N   0  0  0  0  0  0  0  0  0  0  0  0
   -4.2246    0.9701    0.0007 N   0  0  0  0  0  0  0  0  0  0  0  0
   -2.8338    2.9740    0.0016 N   0  0  0  0  0  0  0  0  0  0  0  0
   -0.4484    2.8885    0.0001 N   0  0  0  0  0  0  0  0  0  0  0  0
   -3.9232   -2.0534   -0.0010 C   0  0  0  0  0  0  0  0  0  0  0  0
   -1.7876    0.8507    0.0005 C   0  0  0  0  0  0  0  0  0  0  0  0
   -3.0589    0.3042    0.0003 C   0  0  0  0  0  0  0  0  0  0  0  0
   -0.9309   -0.2657   -0.0002 C   0  0  0  0  0  0  0  0  0  0  0  0
    0.5103   -0.2654   -0.0002 C   0  0  0  0  0  0  0  0  0  0  0  0
   -3.8670   -2.9207    1.2591 C   0  0  0  0  0  0  0  0  0  0  0  0
   -3.8669   -2.9195   -1.2619 C   0  0  0  0  0  0  0  0  0  0  0  0
   -1.6960    2.2387    0.0011 C   0  0  0  0  0  0  0  0  0  0  0  0
    1.2077   -0.2661    1.2080 C   0  0  0  0  0  0  0  0  0  0  0  0
    1.2080   -0.2640   -1.2082 C   0  0  0  0  0  0  0  0  0  0  0  0
    2.6028   -0.2634   -1.2082 C   0  0  0  0  0  0  0  0  0  0  0  0
    2.6027   -0.2649    1.2078 C   0  0  0  0  0  0  0  0  0  0  0  0
    3.3003   -0.2637   -0.0001 C   0  0  0  0  0  0  0  0  0  0  0  0
   -4.0106    2.3036    0.0013 C   0  0  0  0  0  0  0  0  0  0  0  0
    3.5895    1.0093   -2.9581 C   0  0  0  0  0  0  0  0  0  0  0  0
    3.5896    1.0050    2.9597 C   0  0  0  0  0  0  0  0  0  0  0  0
    5.3116   -1.5327   -0.0007 C   0  0  0  0  0  0  0  0  0  0  0  0
   -4.8868   -1.5296   -0.0008 H   0  0  0  0  0  0  0  0  0  0  0  0
   -2.9420   -3.5059    1.3074 H   0  0  0  0  0  0  0  0  0  0  0  0
   -4.7090   -3.6205    1.2845 H   0  0  0  0  0  0  0  0  0  0  0  0
   -3.9158   -2.3009    2.1612 H   0  0  0  0  0  0  0  0  0  0  0  0
   -2.9419   -3.5047   -1.3106 H   0  0  0  0  0  0  0  0  0  0  0  0
   -3.9156   -2.2989   -2.1635 H   0  0  0  0  0  0  0  0  0  0  0  0
   -4.7090   -3.6191   -1.2881 H   0  0  0  0  0  0  0  0  0  0  0  0
    0.6719   -0.2674    2.1551 H   0  0  0  0  0  0  0  0  0  0  0  0
    0.6722   -0.2637   -2.1552 H   0  0  0  0  0  0  0  0  0  0  0  0
   -4.9014    2.9225    0.0017 H   0  0  0  0  0  0  0  0  0  0  0  0
    0.4160    2.3674    0.0001 H   0  0  0  0  0  0  0  0  0  0  0  0
   -0.4269    3.8995    0.0008 H   0  0  0  0  0  0  0  0  0  0  0  0
    4.1254    0.8440   -3.8967 H   0  0  0  0  0  0  0  0  0  0  0  0
    4.2345    1.5801   -2.2826 H   0  0  0  0  0  0  0  0  0  0  0  0
    2.6757    1.5731   -3.1710 H   0  0  0  0  0  0  0  0  0  0  0  0
    4.1251    0.8382    3.8983 H   0  0  0  0  0  0  0  0  0  0  0  0
    2.6759    1.5689    3.1732 H   0  0  0  0  0  0  0  0  0  0  0  0
    4.2350    1.5765    2.2852 H   0  0  0  0  0  0  0  0  0  0  0  0
    6.3921   -1.3657   -0.0004 H   0  0  0  0  0  0  0  0  0  0  0  0
    5.0459   -2.1006   -0.8979 H   0  0  0  0  0  0  0  0  0  0  0  0
    5.0458   -2.1015    0.8959 H   0  0  0  0  0  0  0  0  0  0  0  0
  1 19  1  0  0  0  0
  1 23  1  0  0  0  0
  2 20  1  0  0  0  0
  2 24  1  0  0  0  0
  3 21  1  0  0  0  0
  3 25  1  0  0  0  0
  4  5  1  0  0  0  0
  4  9  1  0  0  0  0
  4 11  1  0  0  0  0
  5 12  2  0  0  0  0
  6 11  2  0  0  0  0
  6 22  1  0  0  0  0
  7 16  1  0  0  0  0
  7 22  2  0  0  0  0
  8 16  1  0  0  0  0
  8 36  1  0  0  0  0
  8 37  1  0  0  0  0
  9 14  1  0  0  0  0
  9 15  1  0  0  0  0
  9 26  1  0  0  0  0
 10 11  1  0  0  0  0
 10 12  1  0  0  0  0
 10 16  2  0  0  0  0
 12 13  1  0  0  0  0
 13 17  2  0  0  0  0
 13 18  1  0  0  0  0
 14 27  1  0  0  0  0
 14 28  1  0  0  0  0
 14 29  1  0  0  0  0
 15 30  1  0  0  0  0
 15 31  1  0  0  0  0
 15 32  1  0  0  0  0
 17 20  1  0  0  0  0
 17 33  1  0  0  0  0
 18 19  2  0  0  0  0
 18 34  1  0  0  0  0
 19 21  1  0  0  0  0
 20 21  2  0  0  0  0
 22 35  1  0  0  0  0
 23 38  1  0  0  0  0
 23 39  1  0  0  0  0
 23 40  1  0  0  0  0
 24 41  1  0  0  0  0
 24 42  1  0  0  0  0
 24 43  1  0  0  0  0
 25 44  1  0  0  0  0
 25 45  1  0  0  0  0
 25 46  1  0  0  0  0
M  END
> <PUBCHEM_COMPOUND_CID>
24905177

> <PUBCHEM_CONFORMER_RMSD>
0.8

> <PUBCHEM_CONFORMER_DIVERSEORDER>
1
3
4
5
2

> <PUBCHEM_MMFF94_PARTIAL_CHARGES>
27
1 -0.36
11 0.11
12 0.23
13 0.05
16 0.41
17 -0.15
18 -0.15
19 0.08
2 -0.36
20 0.08
21 0.08
22 0.47
23 0.28
24 0.28
25 0.28
3 -0.36
33 0.15
34 0.15
35 0.15
36 0.4
37 0.4
4 0.31
5 -0.71
6 -0.57
7 -0.62
8 -0.9
9 0.26

> <PUBCHEM_EFFECTIVE_ROTOR_COUNT>
5

> <PUBCHEM_PHARMACOPHORE_FEATURES>
12
1 1 acceptor
1 2 acceptor
1 3 acceptor
1 5 acceptor
1 8 cation
1 8 donor
3 4 6 11 cation
3 6 7 22 cation
3 9 14 15 hydrophobe
5 4 5 10 11 12 rings
6 13 17 18 19 20 21 rings
6 6 7 10 11 16 22 rings

> <PUBCHEM_HEAVY_ATOM_COUNT>
25

> <PUBCHEM_ATOM_DEF_STEREO_COUNT>
0

> <PUBCHEM_ATOM_UDEF_STEREO_COUNT>
0

> <PUBCHEM_BOND_DEF_STEREO_COUNT>
0

> <PUBCHEM_BOND_UDEF_STEREO_COUNT>
0

> <PUBCHEM_ISOTOPIC_ATOM_COUNT>
0

> <PUBCHEM_COMPONENT_COUNT>
1

> <PUBCHEM_CACTVS_TAUTO_COUNT>
5

> <PUBCHEM_CONFORMER_ID>
017C05D900000001

> <PUBCHEM_MMFF94_ENERGY>
93.4503

> <PUBCHEM_FEATURE_SELFOVERLAP>
61.184

> <PUBCHEM_SHAPE_FINGERPRINT>
10319926 262 18198602407620346402
10369192 42 16627423574451617704
11370993 144 16845308132871140619
11545043 162 18343862208501382770
11796584 16 18199189495359055494
12160290 23 18410855426586198381
12236239 1 17676774184081132180
12553582 1 18265903651764261071
12616971 3 17385450907653678006
12714826 92 18201172017538640423
12788726 201 18042704960067745259
13009979 54 17895185567932803842
13083527 12 17838595006037110397
13140716 1 18338802329468804489
13583140 156 17917983945861679446
14790565 3 18122644764345951181
15806764 133 17632308881692573360
15842332 3 17676489432065363347
15961568 22 18195796582490039784
16752209 62 18335700567963879995
17349148 13 17749101205828888202
1813 80 18127698342950760351
18222031 100 18056488468156895951
20511986 3 17749387052971692548
20693207 138 17417546802993419350
21033648 29 17703208673133307320
21065201 7 18411975836986948778
21792961 116 17631743669346285742
22182313 1 17846498149103535533
23402539 116 18409445873436886094
23419403 2 17614516692264936877
23557571 272 18344145882226749729
23559900 14 18270683052536559846
23598288 3 18261125079734865327
312423 11 17968105251879818710
474 4 16805904977663665340
5265222 85 18271816761343332734
57527293 21 17845649386198743567
6049 1 17775576337591854496
6823239 73 18272939344844312752
7495541 125 17917427653502907058
7615 1 17676482852180766589
77492 1 17676207952820059009
7970288 3 18193561292567894619

> <PUBCHEM_SHAPE_MULTIPOLES>
471.98
10.1
2.92
2.1
2.95
0.48
0
-3.41
0
-5.18
0
3.88
0.18
-0.01

> <PUBCHEM_SHAPE_SELFOVERLAP>
1019.328

> <PUBCHEM_SHAPE_VOLUME>
261.5

> <PUBCHEM_COORDINATE_TYPE>
2
5
10

$$$$
