46929544
  -OEChem-10052115143D

 55 58  0     0  0  0  0  0  0999 V2000
   -9.6415    0.3134    0.0274 F   0  0  0  0  0  0  0  0  0  0  0  0
   -8.5945    0.8092    1.8674 F   0  0  0  0  0  0  0  0  0  0  0  0
   -8.3381    2.0519    0.1086 F   0  0  0  0  0  0  0  0  0  0  0  0
    2.9338    0.0469    0.2076 O   0  0  0  0  0  0  0  0  0  0  0  0
   -3.4155    0.3562    1.5539 O   0  0  0  0  0  0  0  0  0  0  0  0
   -2.5557   -0.7002   -0.3568 N   0  0  0  0  0  0  0  0  0  0  0  0
    2.6238    2.0156   -0.9781 N   0  0  0  0  0  0  0  0  0  0  0  0
    5.7748   -0.7291   -0.0425 N   0  0  0  0  0  0  0  0  0  0  0  0
    7.3595   -1.3042    1.6796 N   0  0  0  0  0  0  0  0  0  0  0  0
    6.6695   -2.8937    0.0978 N   0  0  0  0  0  0  0  0  0  0  0  0
    1.0886   -0.8294   -1.0468 C   0  0  0  0  0  0  0  0  0  0  0  0
   -1.1585   -0.5126   -0.2178 C   0  0  0  0  0  0  0  0  0  0  0  0
    1.5930   -0.1430    0.0579 C   0  0  0  0  0  0  0  0  0  0  0  0
   -0.2870   -1.0143   -1.1847 C   0  0  0  0  0  0  0  0  0  0  0  0
   -0.6542    0.1740    0.8867 C   0  0  0  0  0  0  0  0  0  0  0  0
    0.7215    0.3587    1.0247 C   0  0  0  0  0  0  0  0  0  0  0  0
   -4.9359   -0.5960    0.0729 C   0  0  0  0  0  0  0  0  0  0  0  0
    4.8449    1.4330   -0.2215 C   0  0  0  0  0  0  0  0  0  0  0  0
    2.0068   -1.3735   -2.0910 C   0  0  0  0  0  0  0  0  0  0  0  0
    3.4856    1.1917   -0.3409 C   0  0  0  0  0  0  0  0  0  0  0  0
   -3.5824   -0.2761    0.4984 C   0  0  0  0  0  0  0  0  0  0  0  0
   -6.0031    0.2039    0.4815 C   0  0  0  0  0  0  0  0  0  0  0  0
   -7.3012   -0.1033    0.0738 C   0  0  0  0  0  0  0  0  0  0  0  0
    5.7287    0.5188    0.4685 C   0  0  0  0  0  0  0  0  0  0  0  0
   -5.1667   -1.7034   -0.7434 C   0  0  0  0  0  0  0  0  0  0  0  0
   -7.5322   -1.2108   -0.7425 C   0  0  0  0  0  0  0  0  0  0  0  0
    5.3523    2.5948   -0.7928 C   0  0  0  0  0  0  0  0  0  0  0  0
   -6.4649   -2.0109   -1.1509 C   0  0  0  0  0  0  0  0  0  0  0  0
   -8.4427    0.7509    0.5113 C   0  0  0  0  0  0  0  0  0  0  0  0
    4.4970    3.4673   -1.4566 C   0  0  0  0  0  0  0  0  0  0  0  0
    6.4582    0.9248    1.5673 C   0  0  0  0  0  0  0  0  0  0  0  0
    3.1534    3.1350   -1.5208 C   0  0  0  0  0  0  0  0  0  0  0  0
    6.5984   -1.5771    0.6026 C   0  0  0  0  0  0  0  0  0  0  0  0
    7.2647   -0.0388    2.1379 C   0  0  0  0  0  0  0  0  0  0  0  0
    5.9200   -3.3298   -1.0386 C   0  0  0  0  0  0  0  0  0  0  0  0
   -0.6822   -1.5480   -2.0462 H   0  0  0  0  0  0  0  0  0  0  0  0
   -1.2634    0.5911    1.6757 H   0  0  0  0  0  0  0  0  0  0  0  0
    1.1080    0.8935    1.8883 H   0  0  0  0  0  0  0  0  0  0  0  0
   -2.8112   -1.1702   -1.2206 H   0  0  0  0  0  0  0  0  0  0  0  0
    2.8550   -1.8921   -1.6328 H   0  0  0  0  0  0  0  0  0  0  0  0
    1.5003   -2.1015   -2.7341 H   0  0  0  0  0  0  0  0  0  0  0  0
    2.3811   -0.5648   -2.7266 H   0  0  0  0  0  0  0  0  0  0  0  0
   -5.8354    1.0727    1.1139 H   0  0  0  0  0  0  0  0  0  0  0  0
   -4.3758   -2.3792   -1.0546 H   0  0  0  0  0  0  0  0  0  0  0  0
   -8.5357   -1.4689   -1.0693 H   0  0  0  0  0  0  0  0  0  0  0  0
    6.4110    2.8362   -0.7375 H   0  0  0  0  0  0  0  0  0  0  0  0
   -6.6464   -2.8785   -1.7787 H   0  0  0  0  0  0  0  0  0  0  0  0
    4.8704    4.3779   -1.9108 H   0  0  0  0  0  0  0  0  0  0  0  0
    6.4111    1.9277    1.9734 H   0  0  0  0  0  0  0  0  0  0  0  0
    2.4447    3.7817   -2.0275 H   0  0  0  0  0  0  0  0  0  0  0  0
    7.8745    0.1866    3.0062 H   0  0  0  0  0  0  0  0  0  0  0  0
    7.2859   -3.5382    0.5783 H   0  0  0  0  0  0  0  0  0  0  0  0
    6.1508   -4.3774   -1.2556 H   0  0  0  0  0  0  0  0  0  0  0  0
    4.8436   -3.2592   -0.8526 H   0  0  0  0  0  0  0  0  0  0  0  0
    6.1685   -2.7435   -1.9292 H   0  0  0  0  0  0  0  0  0  0  0  0
  1 29  1  0  0  0  0
  2 29  1  0  0  0  0
  3 29  1  0  0  0  0
  4 13  1  0  0  0  0
  4 20  1  0  0  0  0
  5 21  2  0  0  0  0
  6 12  1  0  0  0  0
  6 21  1  0  0  0  0
  6 39  1  0  0  0  0
  7 20  1  0  0  0  0
  7 32  2  0  0  0  0
  8 24  2  0  0  0  0
  8 33  1  0  0  0  0
  9 33  2  0  0  0  0
  9 34  1  0  0  0  0
 10 33  1  0  0  0  0
 10 35  1  0  0  0  0
 10 52  1  0  0  0  0
 11 13  2  0  0  0  0
 11 14  1  0  0  0  0
 11 19  1  0  0  0  0
 12 14  2  0  0  0  0
 12 15  1  0  0  0  0
 13 16  1  0  0  0  0
 14 36  1  0  0  0  0
 15 16  2  0  0  0  0
 15 37  1  0  0  0  0
 16 38  1  0  0  0  0
 17 21  1  0  0  0  0
 17 22  2  0  0  0  0
 17 25  1  0  0  0  0
 18 20  2  0  0  0  0
 18 24  1  0  0  0  0
 18 27  1  0  0  0  0
 19 40  1  0  0  0  0
 19 41  1  0  0  0  0
 19 42  1  0  0  0  0
 22 23  1  0  0  0  0
 22 43  1  0  0  0  0
 23 26  2  0  0  0  0
 23 29  1  0  0  0  0
 24 31  1  0  0  0  0
 25 28  2  0  0  0  0
 25 44  1  0  0  0  0
 26 28  1  0  0  0  0
 26 45  1  0  0  0  0
 27 30  2  0  0  0  0
 27 46  1  0  0  0  0
 28 47  1  0  0  0  0
 30 32  1  0  0  0  0
 30 48  1  0  0  0  0
 31 34  2  0  0  0  0
 31 49  1  0  0  0  0
 32 50  1  0  0  0  0
 34 51  1  0  0  0  0
 35 53  1  0  0  0  0
 35 54  1  0  0  0  0
 35 55  1  0  0  0  0
M  END
> <PUBCHEM_COMPOUND_CID>
46929544

> <PUBCHEM_CONFORMER_RMSD>
1.2

> <PUBCHEM_CONFORMER_DIVERSEORDER>
1
78
90
22
75
8
31
98
102
112
85
35
91
21
93
49
92
10
107
42
99
95
86
52
57
110
66
67
41
12
97
81
24
83
62
100
39
20
3
63
114
47
96
115
87
26
122
104
77
14
58
38
84
113
61
65
106
88
71
76
44
29
101
103
46
64
69
28
109
117
72
59
48
70
15
105
54
17
19
94
4
80
30
118
123
53
82
51
68
16
5
74
73
50
108
111
23
36
27
18
40
56
43
55
120
33
13
119
2
79
121
11
25
45
7
34
9
6
89
32
116
37
60

> <PUBCHEM_MMFF94_PARTIAL_CHARGES>
48
1 -0.34
10 -0.87
11 -0.14
12 0.12
13 0.08
14 -0.15
15 -0.15
16 -0.15
17 0.09
19 0.14
2 -0.34
20 0.39
21 0.54
22 -0.15
23 -0.14
24 0.31
25 -0.15
26 -0.15
27 -0.15
28 -0.15
29 1.16
3 -0.34
30 -0.15
31 -0.15
32 0.16
33 0.72
34 0.16
35 0.37
36 0.15
37 0.15
38 0.15
39 0.37
4 -0.17
43 0.15
44 0.15
45 0.15
46 0.15
47 0.15
48 0.15
49 0.15
5 -0.57
50 0.15
51 0.15
52 0.4
6 -0.55
7 -0.62
8 -0.62
9 -0.62

> <PUBCHEM_EFFECTIVE_ROTOR_COUNT>
8

> <PUBCHEM_PHARMACOPHORE_FEATURES>
11
1 10 donor
1 4 acceptor
1 5 acceptor
1 6 donor
1 7 acceptor
1 8 acceptor
4 8 9 10 33 cation
6 11 12 13 14 15 16 rings
6 17 22 23 25 26 28 rings
6 7 18 20 27 30 32 rings
6 8 9 24 31 33 34 rings

> <PUBCHEM_HEAVY_ATOM_COUNT>
35

> <PUBCHEM_ATOM_DEF_STEREO_COUNT>
0

> <PUBCHEM_ATOM_UDEF_STEREO_COUNT>
0

> <PUBCHEM_BOND_DEF_STEREO_COUNT>
0

> <PUBCHEM_BOND_UDEF_STEREO_COUNT>
0

> <PUBCHEM_ISOTOPIC_ATOM_COUNT>
0

> <PUBCHEM_COMPONENT_COUNT>
1

> <PUBCHEM_CACTVS_TAUTO_COUNT>
6

> <PUBCHEM_CONFORMER_ID>
02CC168800000001

> <PUBCHEM_MMFF94_ENERGY>
116.3861

> <PUBCHEM_FEATURE_SELFOVERLAP>
55.87

> <PUBCHEM_SHAPE_FINGERPRINT>
10391435 84 13470400094173097909
10533779 47 18041006103123229011
10554248 39 18260546779104072590
11007060 377 10879994679508171751
11135926 11 18341041957419428807
11181472 205 18335710437851668884
11456790 92 18259984890150589169
11505856 67 15733498794404653988
11719270 70 17704073988505461230
12082328 90 18410853296604536935
12422481 6 18269281171222574688
13008946 170 18269833293658849640
13782708 43 17240758501996627898
13914758 101 18261109656254065361
13947934 56 18411132547036296719
14118638 360 12823027416808582915
14347424 109 18187924023774673544
15131766 46 17902234738795362676
15183329 4 17775015621385839921
15419008 47 16370996421545253381
1577012 14 18338801229266229621
15840311 113 17967535709616081909
18365409 1 10879410855376355872
19301679 30 18262790758763343826
19841028 212 18270960147027456578
21033648 29 16226892318769912248
21267235 1 13334735726545601695
21360443 126 12895064141616529892
21781055 127 15792298073454476543
22149856 69 16916246445531264579
249057 25 18342466953646468697
3044373 193 18335144206679656014
4073 2 18338241565675420175
4149490 64 18261118508519760179
68570916 9 18263645246116476783
99344 41 18342453750864454335

> <PUBCHEM_SHAPE_MULTIPOLES>
661.82
28.91
2.91
1.61
47.49
0.55
-0.15
-1.35
-8.37
-6.11
1.71
-1.75
0.13
-2.7

> <PUBCHEM_SHAPE_SELFOVERLAP>
1455.938

> <PUBCHEM_SHAPE_VOLUME>
356.5

> <PUBCHEM_COORDINATE_TYPE>
2
5
10

$$$$
