11690518
  -OEChem-10062122003D

 45 48  0     0  0  0  0  0  0999 V2000
   -5.0737    3.2896    0.4045 F   0  0  0  0  0  0  0  0  0  0  0  0
   -7.6242   -2.4481   -0.0083 F   0  0  0  0  0  0  0  0  0  0  0  0
   -5.8826   -2.7248   -1.2708 F   0  0  0  0  0  0  0  0  0  0  0  0
   -5.7030   -2.9356    0.8860 F   0  0  0  0  0  0  0  0  0  0  0  0
   -1.8408   -0.5284   -0.2705 O   0  0  0  0  0  0  0  0  0  0  0  0
    6.4203   -0.7435    2.2269 N   0  0  0  0  0  0  0  0  0  0  0  0
    7.4514   -0.9690    1.3857 N   0  0  0  0  0  0  0  0  0  0  0  0
    7.5561   -0.7918   -1.0310 N   0  0  0  0  0  0  0  0  0  0  0  0
   -0.7010    1.5145   -0.1407 N   0  0  0  0  0  0  0  0  0  0  0  0
   -3.0032    1.4766    0.0426 N   0  0  0  0  0  0  0  0  0  0  0  0
    4.1634   -0.1039    2.3562 N   0  0  0  0  0  0  0  0  0  0  0  0
    4.6927    0.0102   -0.7454 C   0  0  0  0  0  0  0  0  0  0  0  0
    5.5619   -0.3288    0.2804 C   0  0  0  0  0  0  0  0  0  0  0  0
    3.3178    0.3936   -0.5903 C   0  0  0  0  0  0  0  0  0  0  0  0
    6.9328   -0.7159    0.1787 C   0  0  0  0  0  0  0  0  0  0  0  0
    5.2599   -0.3561    1.6141 C   0  0  0  0  0  0  0  0  0  0  0  0
    2.3056   -0.5739   -0.6133 C   0  0  0  0  0  0  0  0  0  0  0  0
    2.9726    1.7397   -0.4156 C   0  0  0  0  0  0  0  0  0  0  0  0
    5.3510   -0.0739   -1.9769 C   0  0  0  0  0  0  0  0  0  0  0  0
    0.6353    1.1417   -0.2901 C   0  0  0  0  0  0  0  0  0  0  0  0
    0.9696   -0.2014   -0.4637 C   0  0  0  0  0  0  0  0  0  0  0  0
    1.6367    2.1122   -0.2660 C   0  0  0  0  0  0  0  0  0  0  0  0
    6.7110   -0.4595   -2.0589 C   0  0  0  0  0  0  0  0  0  0  0  0
   -4.3499    1.0474    0.1054 C   0  0  0  0  0  0  0  0  0  0  0  0
   -5.9627   -0.7276    0.0429 C   0  0  0  0  0  0  0  0  0  0  0  0
   -4.6355   -0.3025   -0.0174 C   0  0  0  0  0  0  0  0  0  0  0  0
   -1.8532    0.6911   -0.1366 C   0  0  0  0  0  0  0  0  0  0  0  0
   -5.3541    1.9840    0.2868 C   0  0  0  0  0  0  0  0  0  0  0  0
   -6.9855    0.2029    0.2251 C   0  0  0  0  0  0  0  0  0  0  0  0
   -6.6812    1.5587    0.3471 C   0  0  0  0  0  0  0  0  0  0  0  0
   -6.2876   -2.1776   -0.0868 C   0  0  0  0  0  0  0  0  0  0  0  0
    2.5488   -1.6259   -0.7473 H   0  0  0  0  0  0  0  0  0  0  0  0
    3.7401    2.5103   -0.3938 H   0  0  0  0  0  0  0  0  0  0  0  0
    4.8211    0.1582   -2.8987 H   0  0  0  0  0  0  0  0  0  0  0  0
    0.2546   -1.0110   -0.4933 H   0  0  0  0  0  0  0  0  0  0  0  0
    1.3906    3.1624   -0.1313 H   0  0  0  0  0  0  0  0  0  0  0  0
    6.5782   -0.8742    3.2180 H   0  0  0  0  0  0  0  0  0  0  0  0
    7.1811   -0.5109   -3.0395 H   0  0  0  0  0  0  0  0  0  0  0  0
   -0.8656    2.5107   -0.0187 H   0  0  0  0  0  0  0  0  0  0  0  0
   -3.8971   -1.0773   -0.1598 H   0  0  0  0  0  0  0  0  0  0  0  0
   -2.8623    2.4791    0.1396 H   0  0  0  0  0  0  0  0  0  0  0  0
    3.2769    0.1858    1.9601 H   0  0  0  0  0  0  0  0  0  0  0  0
    4.1687   -0.1923    3.3681 H   0  0  0  0  0  0  0  0  0  0  0  0
   -8.0252   -0.1087    0.2748 H   0  0  0  0  0  0  0  0  0  0  0  0
   -7.4773    2.2837    0.4890 H   0  0  0  0  0  0  0  0  0  0  0  0
  1 28  1  0  0  0  0
  2 31  1  0  0  0  0
  3 31  1  0  0  0  0
  4 31  1  0  0  0  0
  5 27  2  0  0  0  0
  6  7  1  0  0  0  0
  6 16  1  0  0  0  0
  6 37  1  0  0  0  0
  7 15  2  0  0  0  0
  8 15  1  0  0  0  0
  8 23  2  0  0  0  0
  9 20  1  0  0  0  0
  9 27  1  0  0  0  0
  9 39  1  0  0  0  0
 10 24  1  0  0  0  0
 10 27  1  0  0  0  0
 10 41  1  0  0  0  0
 11 16  1  0  0  0  0
 11 42  1  0  0  0  0
 11 43  1  0  0  0  0
 12 13  1  0  0  0  0
 12 14  1  0  0  0  0
 12 19  2  0  0  0  0
 13 15  1  0  0  0  0
 13 16  2  0  0  0  0
 14 17  2  0  0  0  0
 14 18  1  0  0  0  0
 17 21  1  0  0  0  0
 17 32  1  0  0  0  0
 18 22  2  0  0  0  0
 18 33  1  0  0  0  0
 19 23  1  0  0  0  0
 19 34  1  0  0  0  0
 20 21  2  0  0  0  0
 20 22  1  0  0  0  0
 21 35  1  0  0  0  0
 22 36  1  0  0  0  0
 23 38  1  0  0  0  0
 24 26  1  0  0  0  0
 24 28  2  0  0  0  0
 25 26  2  0  0  0  0
 25 29  1  0  0  0  0
 25 31  1  0  0  0  0
 26 40  1  0  0  0  0
 28 30  1  0  0  0  0
 29 30  2  0  0  0  0
 29 44  1  0  0  0  0
 30 45  1  0  0  0  0
M  END
> <PUBCHEM_COMPOUND_CID>
11690518

> <PUBCHEM_CONFORMER_RMSD>
0.8

> <PUBCHEM_CONFORMER_DIVERSEORDER>
1
18
10
16
21
13
19
7
8
20
11
12
15
6
9
14
17
2
3
5
4

> <PUBCHEM_MMFF94_PARTIAL_CHARGES>
42
1 -0.19
10 -0.55
11 -0.88
15 0.54
16 -0.07
17 -0.15
18 -0.15
19 -0.15
2 -0.34
20 0.12
21 -0.15
22 -0.15
23 0.16
24 0.12
25 -0.14
26 -0.15
27 0.69
28 0.19
29 -0.15
3 -0.34
30 -0.15
31 1.16
32 0.15
33 0.15
34 0.15
35 0.15
36 0.15
37 0.27
38 0.15
39 0.37
4 -0.34
40 0.15
41 0.37
42 0.4
43 0.4
44 0.15
45 0.15
5 -0.57
6 0.3
7 -0.71
8 -0.57
9 -0.55

> <PUBCHEM_EFFECTIVE_ROTOR_COUNT>
6

> <PUBCHEM_PHARMACOPHORE_FEATURES>
12
1 10 donor
1 11 cation
1 11 donor
1 5 acceptor
1 6 donor
1 8 acceptor
1 9 donor
3 7 8 15 cation
5 6 7 13 15 16 rings
6 14 17 18 20 21 22 rings
6 24 25 26 28 29 30 rings
6 8 12 13 15 19 23 rings

> <PUBCHEM_HEAVY_ATOM_COUNT>
31

> <PUBCHEM_ATOM_DEF_STEREO_COUNT>
0

> <PUBCHEM_ATOM_UDEF_STEREO_COUNT>
0

> <PUBCHEM_BOND_DEF_STEREO_COUNT>
0

> <PUBCHEM_BOND_UDEF_STEREO_COUNT>
0

> <PUBCHEM_ISOTOPIC_ATOM_COUNT>
0

> <PUBCHEM_COMPONENT_COUNT>
1

> <PUBCHEM_CACTVS_TAUTO_COUNT>
47

> <PUBCHEM_CONFORMER_ID>
00B2621600000001

> <PUBCHEM_MMFF94_ENERGY>
90.1175

> <PUBCHEM_FEATURE_SELFOVERLAP>
61.137

> <PUBCHEM_SHAPE_FINGERPRINT>
10 15 17917704725705707016
10299344 5 17821452343659131332
10319926 262 18272366477837538465
11135926 11 18408881807715380775
11646440 116 17203611492909125104
11719270 70 18343585110048815702
11761917 87 15625682509371304326
11963148 33 18409444757104936222
11991303 11 14996296850126035883
12166972 35 18040438818978697701
13533116 47 16950564342796904216
13782708 43 18335982047098115613
14068700 675 18334018280460691133
14251764 18 17967817141468746956
14344974 204 17987511692688968823
15119646 104 17676768674139290682
15183329 4 17458061577404697275
15419008 47 17632572713070837544
15419008 91 18130490964535233448
1577012 14 17967819335954409828
15840311 113 11743543377492706626
20028762 73 18412265047247595990
20157964 124 14979952554799112076
21130935 74 18342175523420719370
21136928 126 14316854348966473256
21315759 40 17894353271642214397
22956985 138 17758111502620855594
23081809 10 17821453447513426788
23516275 137 17533232863876569243
23522609 53 17824008678240639156
23559900 14 18268424810947787369
23569914 152 13772089505754979483
25025965 108 18201428242989246303
2747138 104 17846781793445179224
3004659 81 18335709342677005084
3383291 50 18271524290586010887
397638 26 17632860828319804959
397830 11 17489296550960408210
4073 2 18260839236554621779
44389302 135 18189323573750469914
5104073 3 18342461490943960041
59682541 52 14851596670841422890
9831232 110 18130235852779176214
9953998 17 17918277541873961193

> <PUBCHEM_SHAPE_MULTIPOLES>
573.12
26.05
2.37
1.47
6.57
0.29
0.37
10.95
1.78
6.57
0.02
-4.1
0.44
-1.19

> <PUBCHEM_SHAPE_SELFOVERLAP>
1279.616

> <PUBCHEM_SHAPE_VOLUME>
304.8

> <PUBCHEM_COORDINATE_TYPE>
2
5
10

$$$$
