16105503
  -OEChem-10062121593D

 41 46  0     0  0  0  0  0  0999 V2000
   -2.2798   -3.1580    0.2787 O   0  0  0  0  0  0  0  0  0  0  0  0
   -1.7675    2.0109   -0.1304 N   0  0  0  0  0  0  0  0  0  0  0  0
    0.0228   -3.4970    0.2491 N   0  0  0  0  0  0  0  0  0  0  0  0
    0.5889    1.1013   -0.0931 C   0  0  0  0  0  0  0  0  0  0  0  0
    1.3770   -0.0912   -0.0977 C   0  0  0  0  0  0  0  0  0  0  0  0
    0.6872   -1.3041   -0.0158 C   0  0  0  0  0  0  0  0  0  0  0  0
   -0.8265    1.0078   -0.0929 C   0  0  0  0  0  0  0  0  0  0  0  0
   -1.5247   -0.2027   -0.0337 C   0  0  0  0  0  0  0  0  0  0  0  0
   -0.7240   -1.3494    0.0305 C   0  0  0  0  0  0  0  0  0  0  0  0
    1.2943    2.4410   -0.0967 C   0  0  0  0  0  0  0  0  0  0  0  0
    2.8627    0.0541   -0.1202 C   0  0  0  0  0  0  0  0  0  0  0  0
    2.5433    2.3925    0.7803 C   0  0  0  0  0  0  0  0  0  0  0  0
    1.2158   -2.7033    0.0887 C   0  0  0  0  0  0  0  0  0  0  0  0
    3.4412    1.2664    0.3320 C   0  0  0  0  0  0  0  0  0  0  0  0
   -2.9288    0.1107   -0.0420 C   0  0  0  0  0  0  0  0  0  0  0  0
   -3.0398    1.5010   -0.1026 C   0  0  0  0  0  0  0  0  0  0  0  0
   -1.1385   -2.7486    0.1937 C   0  0  0  0  0  0  0  0  0  0  0  0
    3.7452   -0.9256   -0.6027 C   0  0  0  0  0  0  0  0  0  0  0  0
    4.8338    1.4370    0.3792 C   0  0  0  0  0  0  0  0  0  0  0  0
   -4.1289   -0.6349   -0.0107 C   0  0  0  0  0  0  0  0  0  0  0  0
   -4.2670    2.1757   -0.1273 C   0  0  0  0  0  0  0  0  0  0  0  0
    5.1332   -0.7455   -0.5720 C   0  0  0  0  0  0  0  0  0  0  0  0
    5.6778    0.4287   -0.0691 C   0  0  0  0  0  0  0  0  0  0  0  0
   -5.3658    0.0231   -0.0345 C   0  0  0  0  0  0  0  0  0  0  0  0
   -5.4320    1.4099   -0.0909 C   0  0  0  0  0  0  0  0  0  0  0  0
    1.5566    2.6908   -1.1326 H   0  0  0  0  0  0  0  0  0  0  0  0
    0.6368    3.2329    0.2774 H   0  0  0  0  0  0  0  0  0  0  0  0
    2.2769    2.2331    1.8326 H   0  0  0  0  0  0  0  0  0  0  0  0
    3.0638    3.3548    0.7090 H   0  0  0  0  0  0  0  0  0  0  0  0
    1.6956   -3.0440   -0.8306 H   0  0  0  0  0  0  0  0  0  0  0  0
    1.8538   -2.8496    0.9638 H   0  0  0  0  0  0  0  0  0  0  0  0
   -1.5531    2.9970   -0.1770 H   0  0  0  0  0  0  0  0  0  0  0  0
    0.0315   -4.5057    0.3635 H   0  0  0  0  0  0  0  0  0  0  0  0
    3.3864   -1.8490   -1.0407 H   0  0  0  0  0  0  0  0  0  0  0  0
    5.2629    2.3635    0.7517 H   0  0  0  0  0  0  0  0  0  0  0  0
   -4.1258   -1.7177    0.0267 H   0  0  0  0  0  0  0  0  0  0  0  0
   -4.3142    3.2588   -0.1735 H   0  0  0  0  0  0  0  0  0  0  0  0
    5.7864   -1.5281   -0.9483 H   0  0  0  0  0  0  0  0  0  0  0  0
    6.7545    0.5647   -0.0424 H   0  0  0  0  0  0  0  0  0  0  0  0
   -6.2826   -0.5600   -0.0099 H   0  0  0  0  0  0  0  0  0  0  0  0
   -6.3998    1.9037   -0.1090 H   0  0  0  0  0  0  0  0  0  0  0  0
  1 17  2  0  0  0  0
  2  7  1  0  0  0  0
  2 16  1  0  0  0  0
  2 32  1  0  0  0  0
  3 13  1  0  0  0  0
  3 17  1  0  0  0  0
  3 33  1  0  0  0  0
  4  5  2  0  0  0  0
  4  7  1  0  0  0  0
  4 10  1  0  0  0  0
  5  6  1  0  0  0  0
  5 11  1  0  0  0  0
  6  9  2  0  0  0  0
  6 13  1  0  0  0  0
  7  8  2  0  0  0  0
  8  9  1  0  0  0  0
  8 15  1  0  0  0  0
  9 17  1  0  0  0  0
 10 12  1  0  0  0  0
 10 26  1  0  0  0  0
 10 27  1  0  0  0  0
 11 14  1  0  0  0  0
 11 18  2  0  0  0  0
 12 14  1  0  0  0  0
 12 28  1  0  0  0  0
 12 29  1  0  0  0  0
 13 30  1  0  0  0  0
 13 31  1  0  0  0  0
 14 19  2  0  0  0  0
 15 16  1  0  0  0  0
 15 20  2  0  0  0  0
 16 21  2  0  0  0  0
 18 22  1  0  0  0  0
 18 34  1  0  0  0  0
 19 23  1  0  0  0  0
 19 35  1  0  0  0  0
 20 24  1  0  0  0  0
 20 36  1  0  0  0  0
 21 25  1  0  0  0  0
 21 37  1  0  0  0  0
 22 23  2  0  0  0  0
 22 38  1  0  0  0  0
 23 39  1  0  0  0  0
 24 25  2  0  0  0  0
 24 40  1  0  0  0  0
 25 41  1  0  0  0  0
M  END
> <PUBCHEM_COMPOUND_CID>
16105503

> <PUBCHEM_CONFORMER_RMSD>
0.6

> <PUBCHEM_CONFORMER_DIVERSEORDER>
1

> <PUBCHEM_MMFF94_PARTIAL_CHARGES>
31
1 -0.57
10 0.14
12 0.14
13 0.44
14 -0.14
16 -0.15
17 0.54
18 -0.15
19 -0.15
2 0.03
20 -0.15
21 -0.15
22 -0.15
23 -0.15
24 -0.15
25 -0.15
3 -0.73
32 0.27
33 0.37
34 0.15
35 0.15
36 0.15
37 0.15
38 0.15
39 0.15
4 -0.14
40 0.15
41 0.15
6 -0.14
7 -0.15
9 0.09

> <PUBCHEM_EFFECTIVE_ROTOR_COUNT>
0.8

> <PUBCHEM_PHARMACOPHORE_FEATURES>
10
1 1 acceptor
1 2 cation
1 2 donor
1 3 donor
5 2 7 8 15 16 rings
5 3 6 9 13 17 rings
6 11 14 18 19 22 23 rings
6 15 16 20 21 24 25 rings
6 4 5 10 11 12 14 rings
6 4 5 6 7 8 9 rings

> <PUBCHEM_HEAVY_ATOM_COUNT>
25

> <PUBCHEM_ATOM_DEF_STEREO_COUNT>
0

> <PUBCHEM_ATOM_UDEF_STEREO_COUNT>
0

> <PUBCHEM_BOND_DEF_STEREO_COUNT>
0

> <PUBCHEM_BOND_UDEF_STEREO_COUNT>
0

> <PUBCHEM_ISOTOPIC_ATOM_COUNT>
0

> <PUBCHEM_COMPONENT_COUNT>
1

> <PUBCHEM_CACTVS_TAUTO_COUNT>
5

> <PUBCHEM_CONFORMER_ID>
00F5C01F00000001

> <PUBCHEM_MMFF94_ENERGY>
73.7497

> <PUBCHEM_FEATURE_SELFOVERLAP>
51.045

> <PUBCHEM_SHAPE_FINGERPRINT>
10165383 225 18335424534452114868
10319926 262 18197197339603625592
10411042 1 17834109032777240087
10693767 8 17914886548280827655
10906281 52 18200897122446721500
10967382 1 18338234868960919463
1100329 8 18338517546486430984
11112241 14 16771802589499051568
11370993 70 18410852179105626025
11578080 2 16556763429374185450
12011746 2 18409168792174698444
12035758 1 18411420639533639712
12236239 1 17632577128486588141
12403259 415 18408597054739938093
12592029 89 18336544923841765106
12788726 201 17988647337923468016
12838862 33 18337934736593884805
13140716 1 18265897045470816803
13402501 40 18411983546579722020
13544592 145 18342747295363112638
138480 1 17689996735140092531
14787075 74 18201714076728916453
14790565 3 18409736135869808980
15042514 8 18191309492990683443
15099037 51 18410857659373138932
15131766 46 16082791450504769420
15196674 1 18411699880832145140
15209289 33 18413107259968422285
15927050 60 18410009940462567114
1601671 61 18335420119209773620
16728300 4 17245239939941028314
18681886 176 18408880767325914768
19591789 44 18337953364156665214
20028762 73 18201714085219125167
21033648 29 18337939139020214097
21236236 1 18340768251526736295
21267235 1 18411989061101543093
21279426 13 18268431235342526012
21781051 124 17969809503930877019
21796203 349 16969175560960987275
21859007 373 17897700146699866668
22182313 1 18267328519501088791
22393880 68 18340761551472356125
23227448 37 18341893034430670519
23402539 116 18342170081211488605
23558518 356 17828481697905537280
23559900 14 18343301505142781176
3004659 81 18334299717889562278
3178227 256 18336560360513532609
335352 9 18410856560214822430
338550 245 18262242230202450052
34934 24 18410007758892467466
350125 39 18337678632278596305
3680242 22 18336543794761368434
38695281 34 18131632253588888039
404807 14 15189138858987364726
484989 97 18265614471758360391
495365 180 17346306142569847896
5104073 3 18411136918014947801
5265222 85 18264502848438516948
59755656 215 18336262354186567861
6138700 20 18339645512889767006
9709674 26 18269835487763742780

> <PUBCHEM_SHAPE_MULTIPOLES>
498.66
10.95
3.35
0.68
0.1
2.17
0
-4.45
0.65
-0.68
-0.42
0.22
-0.04
0.7

> <PUBCHEM_SHAPE_SELFOVERLAP>
1161.121

> <PUBCHEM_SHAPE_VOLUME>
254.9

> <PUBCHEM_COORDINATE_TYPE>
2
5
10

$$$$
