49830375
  -OEChem-10062121543D

 45 49  0     0  0  0  0  0  0999 V2000
    5.7269    1.3907    0.4103 S   0  0  0  0  0  0  0  0  0  0  0  0
   -3.1119   -1.0566    0.3185 O   0  0  0  0  0  0  0  0  0  0  0  0
    6.6030   -1.0955    0.1425 N   0  0  0  0  0  0  0  0  0  0  0  0
   -2.3097    1.0844   -0.1934 N   0  0  0  0  0  0  0  0  0  0  0  0
    5.0350   -2.8840   -0.2769 N   0  0  0  0  0  0  0  0  0  0  0  0
    2.7619   -2.5701   -0.6338 N   0  0  0  0  0  0  0  0  0  0  0  0
   -4.5858    0.6910   -0.1739 N   0  0  0  0  0  0  0  0  0  0  0  0
    2.1937    3.0794   -0.4873 C   0  0  0  0  0  0  0  0  0  0  0  0
    3.3265    0.4849    0.1328 C   0  0  0  0  0  0  0  0  0  0  0  0
    3.4659    3.0267    0.3674 C   0  0  0  0  0  0  0  0  0  0  0  0
    1.3013    1.8807   -0.2352 C   0  0  0  0  0  0  0  0  0  0  0  0
    1.8636    0.6132    0.0581 C   0  0  0  0  0  0  0  0  0  0  0  0
    4.0549    1.6535    0.2901 C   0  0  0  0  0  0  0  0  0  0  0  0
    4.1979   -0.6609    0.0167 C   0  0  0  0  0  0  0  0  0  0  0  0
   -0.0896    2.0233   -0.3354 C   0  0  0  0  0  0  0  0  0  0  0  0
    1.0064   -0.4638    0.3104 C   0  0  0  0  0  0  0  0  0  0  0  0
    5.5293   -0.2823    0.1753 C   0  0  0  0  0  0  0  0  0  0  0  0
   -0.9255    0.9332   -0.1068 C   0  0  0  0  0  0  0  0  0  0  0  0
   -0.3790   -0.3038    0.2237 C   0  0  0  0  0  0  0  0  0  0  0  0
    3.9928   -2.0260   -0.2312 C   0  0  0  0  0  0  0  0  0  0  0  0
    6.2632   -2.3732   -0.0844 C   0  0  0  0  0  0  0  0  0  0  0  0
   -3.3199    0.1140    0.0158 C   0  0  0  0  0  0  0  0  0  0  0  0
   -5.8519    0.0695   -0.0615 C   0  0  0  0  0  0  0  0  0  0  0  0
   -7.0136    0.8075   -0.2884 C   0  0  0  0  0  0  0  0  0  0  0  0
   -5.9384   -1.2810    0.2762 C   0  0  0  0  0  0  0  0  0  0  0  0
   -8.2620    0.1949   -0.1773 C   0  0  0  0  0  0  0  0  0  0  0  0
   -7.1866   -1.8937    0.3872 C   0  0  0  0  0  0  0  0  0  0  0  0
   -8.3484   -1.1557    0.1605 C   0  0  0  0  0  0  0  0  0  0  0  0
    1.6601    4.0122   -0.2702 H   0  0  0  0  0  0  0  0  0  0  0  0
    2.4552    3.0879   -1.5533 H   0  0  0  0  0  0  0  0  0  0  0  0
    4.1692    3.7935    0.0236 H   0  0  0  0  0  0  0  0  0  0  0  0
    3.2213    3.2462    1.4146 H   0  0  0  0  0  0  0  0  0  0  0  0
   -0.5147    2.9931   -0.5852 H   0  0  0  0  0  0  0  0  0  0  0  0
    1.3584   -1.3986    0.7265 H   0  0  0  0  0  0  0  0  0  0  0  0
   -0.9613   -1.1824    0.4637 H   0  0  0  0  0  0  0  0  0  0  0  0
   -2.6330    2.0175   -0.4366 H   0  0  0  0  0  0  0  0  0  0  0  0
    7.0819   -3.0829   -0.1209 H   0  0  0  0  0  0  0  0  0  0  0  0
    2.7438   -3.5616   -0.8387 H   0  0  0  0  0  0  0  0  0  0  0  0
    2.0994   -1.9824   -1.1190 H   0  0  0  0  0  0  0  0  0  0  0  0
   -4.6054    1.6766   -0.4233 H   0  0  0  0  0  0  0  0  0  0  0  0
   -6.9604    1.8606   -0.5523 H   0  0  0  0  0  0  0  0  0  0  0  0
   -5.0879   -1.9196    0.4670 H   0  0  0  0  0  0  0  0  0  0  0  0
   -9.1666    0.7694   -0.3538 H   0  0  0  0  0  0  0  0  0  0  0  0
   -7.2555   -2.9453    0.6502 H   0  0  0  0  0  0  0  0  0  0  0  0
   -9.3203   -1.6327    0.2470 H   0  0  0  0  0  0  0  0  0  0  0  0
  1 13  1  0  0  0  0
  1 17  1  0  0  0  0
  2 22  2  0  0  0  0
  3 17  2  0  0  0  0
  3 21  1  0  0  0  0
  4 18  1  0  0  0  0
  4 22  1  0  0  0  0
  4 36  1  0  0  0  0
  5 20  1  0  0  0  0
  5 21  2  0  0  0  0
  6 20  1  0  0  0  0
  6 38  1  0  0  0  0
  6 39  1  0  0  0  0
  7 22  1  0  0  0  0
  7 23  1  0  0  0  0
  7 40  1  0  0  0  0
  8 10  1  0  0  0  0
  8 11  1  0  0  0  0
  8 29  1  0  0  0  0
  8 30  1  0  0  0  0
  9 12  1  0  0  0  0
  9 13  2  0  0  0  0
  9 14  1  0  0  0  0
 10 13  1  0  0  0  0
 10 31  1  0  0  0  0
 10 32  1  0  0  0  0
 11 12  2  0  0  0  0
 11 15  1  0  0  0  0
 12 16  1  0  0  0  0
 14 17  1  0  0  0  0
 14 20  2  0  0  0  0
 15 18  2  0  0  0  0
 15 33  1  0  0  0  0
 16 19  2  0  0  0  0
 16 34  1  0  0  0  0
 18 19  1  0  0  0  0
 19 35  1  0  0  0  0
 21 37  1  0  0  0  0
 23 24  2  0  0  0  0
 23 25  1  0  0  0  0
 24 26  1  0  0  0  0
 24 41  1  0  0  0  0
 25 27  2  0  0  0  0
 25 42  1  0  0  0  0
 26 28  2  0  0  0  0
 26 43  1  0  0  0  0
 27 28  1  0  0  0  0
 27 44  1  0  0  0  0
 28 45  1  0  0  0  0
M  END
> <PUBCHEM_COMPOUND_CID>
49830375

> <PUBCHEM_CONFORMER_RMSD>
0.8

> <PUBCHEM_CONFORMER_DIVERSEORDER>
1
7
6
5
4
8
2
10
3
9

> <PUBCHEM_MMFF94_PARTIAL_CHARGES>
40
1 -0.08
10 0.18
11 -0.14
12 0.05
13 -0.14
15 -0.15
16 -0.15
17 0.3
18 0.12
19 -0.15
2 -0.57
20 0.41
21 0.47
22 0.69
23 0.12
24 -0.15
25 -0.15
26 -0.15
27 -0.15
28 -0.15
3 -0.57
33 0.15
34 0.15
35 0.15
36 0.37
37 0.15
38 0.4
39 0.4
4 -0.55
40 0.37
41 0.15
42 0.15
43 0.15
44 0.15
45 0.15
5 -0.62
6 -0.9
7 -0.55
8 0.14
9 -0.05

> <PUBCHEM_EFFECTIVE_ROTOR_COUNT>
4.4

> <PUBCHEM_PHARMACOPHORE_FEATURES>
12
1 2 acceptor
1 3 acceptor
1 4 donor
1 6 cation
1 6 donor
1 7 donor
3 3 5 21 cation
5 1 9 13 14 17 rings
6 11 12 15 16 18 19 rings
6 23 24 25 26 27 28 rings
6 3 5 14 17 20 21 rings
6 8 9 10 11 12 13 rings

> <PUBCHEM_HEAVY_ATOM_COUNT>
28

> <PUBCHEM_ATOM_DEF_STEREO_COUNT>
0

> <PUBCHEM_ATOM_UDEF_STEREO_COUNT>
0

> <PUBCHEM_BOND_DEF_STEREO_COUNT>
0

> <PUBCHEM_BOND_UDEF_STEREO_COUNT>
0

> <PUBCHEM_ISOTOPIC_ATOM_COUNT>
0

> <PUBCHEM_COMPONENT_COUNT>
1

> <PUBCHEM_CACTVS_TAUTO_COUNT>
12

> <PUBCHEM_CONFORMER_ID>
02F859E700000001

> <PUBCHEM_MMFF94_ENERGY>
95.1862

> <PUBCHEM_FEATURE_SELFOVERLAP>
61.109

> <PUBCHEM_SHAPE_FINGERPRINT>
10165383 225 18200588229343396616
10299344 5 18202565090513277455
10316853 100 18408044022161324290
10411042 1 18267022748864315338
10580692 12 18410292498245133945
11409948 8 18270667711989935298
117089 54 17912937076180455702
11719270 70 18131070437454130591
12166972 35 18342459257392232393
12236239 1 18273496788992253121
12623949 98 17774168873268817710
12717326 120 16444769353023828435
13383665 225 17822588152388667892
13533116 47 18343864441515118017
1361 2 18411136931074377042
13617811 41 15791729698493305623
13685833 64 18409730655765053273
13782708 43 17894906304690280651
13885169 127 18408884006738525517
13989917 61 18411984688836047974
14170010 4 18411135853105728672
14400156 413 18270386291593258961
14933364 13 18408040732637913865
15183329 4 18186236217596120641
15352257 5 18408041819122468299
15361156 5 17968386752995643703
15419008 47 17749101180507672909
15419008 91 18042666417232068117
15483637 11 18122343750771772222
15510794 2 18261112998735816139
17492 89 17905325123000750442
20028762 73 18343302539497111822
20157964 124 18341050804249951568
20771845 140 16559031575622474310
21033650 10 16516245120600747181
21049683 271 18409171009380786260
21130935 74 18341051913005485995
21197605 99 18341896316044569550
21267235 1 18341052935007027750
21315759 40 17846499258006808195
21315763 28 18411981382522840169
22224240 67 12031784760616683685
23522609 53 18120688818326286813
23559900 14 18337386141038202569
23569943 247 18046063757210267522
249057 25 18059869367654427057
255183 451 18198914626189336822
3004659 81 18186518808721216889
3103668 31 17823129022316276997
335352 9 18408887351911108606
34797466 226 16877944974772117204
3633792 109 18411134702719105761
4073 2 17969506085913360867
4340502 62 14620797093685351228
46194498 28 17822289115311399324
465052 167 18343585123038868230
59755656 215 17821445742547767851
6441014 3 17332528973727365006
9831232 110 18335703814816562607
99344 41 18342738503760808007
9962374 69 18340196487952075583

> <PUBCHEM_SHAPE_MULTIPOLES>
549.3
23.01
3.02
0.68
43.65
0.01
0.01
10.55
0.96
-5.16
-0.28
-0.06
-0.03
1.03

> <PUBCHEM_SHAPE_SELFOVERLAP>
1220.568

> <PUBCHEM_SHAPE_VOLUME>
292.7

> <PUBCHEM_COORDINATE_TYPE>
2
5
10

$$$$
