9868229
  -OEChem-10062121543D

 44 47  0     0  0  0  0  0  0999 V2000
   -6.8001    0.3470    2.1633 S   0  0  0  0  0  0  0  0  0  0  0  0
    5.1269   -3.2464   -0.6226 F   0  0  0  0  0  0  0  0  0  0  0  0
    7.6500    2.4776    0.0556 F   0  0  0  0  0  0  0  0  0  0  0  0
    5.7155    3.0200   -0.7615 F   0  0  0  0  0  0  0  0  0  0  0  0
    5.9271    2.6507    1.3710 F   0  0  0  0  0  0  0  0  0  0  0  0
    1.8842    0.5070    0.3173 O   0  0  0  0  0  0  0  0  0  0  0  0
    0.7543   -1.5340    0.1001 N   0  0  0  0  0  0  0  0  0  0  0  0
    3.0526   -1.4708   -0.1212 N   0  0  0  0  0  0  0  0  0  0  0  0
   -7.9253    0.9775   -0.1679 N   0  0  0  0  0  0  0  0  0  0  0  0
   -6.5976    0.8680   -2.1937 N   0  0  0  0  0  0  0  0  0  0  0  0
   -4.3164    0.2184   -2.2025 N   0  0  0  0  0  0  0  0  0  0  0  0
   -4.6264   -0.1016    0.8714 C   0  0  0  0  0  0  0  0  0  0  0  0
   -3.2467   -0.4690    0.6739 C   0  0  0  0  0  0  0  0  0  0  0  0
   -5.5828    0.3019   -0.1128 C   0  0  0  0  0  0  0  0  0  0  0  0
   -6.8116    0.5744    0.4744 C   0  0  0  0  0  0  0  0  0  0  0  0
   -2.9126   -1.7977    0.4259 C   0  0  0  0  0  0  0  0  0  0  0  0
   -2.2553    0.5067    0.7322 C   0  0  0  0  0  0  0  0  0  0  0  0
   -0.5812   -1.1786    0.2923 C   0  0  0  0  0  0  0  0  0  0  0  0
   -5.1546   -0.1202    2.1440 C   0  0  0  0  0  0  0  0  0  0  0  0
   -1.5774   -2.1531    0.2346 C   0  0  0  0  0  0  0  0  0  0  0  0
   -0.9201    0.1514    0.5409 C   0  0  0  0  0  0  0  0  0  0  0  0
   -5.5113    0.4659   -1.5000 C   0  0  0  0  0  0  0  0  0  0  0  0
    4.3955   -1.0297   -0.1849 C   0  0  0  0  0  0  0  0  0  0  0  0
    5.9975    0.7515   -0.0578 C   0  0  0  0  0  0  0  0  0  0  0  0
    4.6747    0.3136    0.0058 C   0  0  0  0  0  0  0  0  0  0  0  0
    1.9015   -0.7036    0.1192 C   0  0  0  0  0  0  0  0  0  0  0  0
    5.4016   -1.9474   -0.4375 C   0  0  0  0  0  0  0  0  0  0  0  0
    7.0223   -0.1602   -0.3113 C   0  0  0  0  0  0  0  0  0  0  0  0
    6.7244   -1.5096   -0.5010 C   0  0  0  0  0  0  0  0  0  0  0  0
   -7.7254    1.0964   -1.4926 C   0  0  0  0  0  0  0  0  0  0  0  0
    6.3168    2.1942    0.1452 C   0  0  0  0  0  0  0  0  0  0  0  0
   -3.6776   -2.5688    0.3766 H   0  0  0  0  0  0  0  0  0  0  0  0
   -2.5047    1.5477    0.9240 H   0  0  0  0  0  0  0  0  0  0  0  0
   -4.6623   -0.3839    3.0707 H   0  0  0  0  0  0  0  0  0  0  0  0
   -1.3278   -3.1932    0.0409 H   0  0  0  0  0  0  0  0  0  0  0  0
   -0.2095    0.9632    0.6001 H   0  0  0  0  0  0  0  0  0  0  0  0
    0.9226   -2.5212   -0.0767 H   0  0  0  0  0  0  0  0  0  0  0  0
    3.9347    1.0740    0.2056 H   0  0  0  0  0  0  0  0  0  0  0  0
    2.9158   -2.4675   -0.2698 H   0  0  0  0  0  0  0  0  0  0  0  0
    8.0587    0.1614   -0.3646 H   0  0  0  0  0  0  0  0  0  0  0  0
    7.5221   -2.2197   -0.6985 H   0  0  0  0  0  0  0  0  0  0  0  0
   -8.5833    1.4181   -2.0727 H   0  0  0  0  0  0  0  0  0  0  0  0
   -4.3158    0.3509   -3.2054 H   0  0  0  0  0  0  0  0  0  0  0  0
   -3.4715   -0.0841   -1.7454 H   0  0  0  0  0  0  0  0  0  0  0  0
  1 15  1  0  0  0  0
  1 19  1  0  0  0  0
  2 27  1  0  0  0  0
  3 31  1  0  0  0  0
  4 31  1  0  0  0  0
  5 31  1  0  0  0  0
  6 26  2  0  0  0  0
  7 18  1  0  0  0  0
  7 26  1  0  0  0  0
  7 37  1  0  0  0  0
  8 23  1  0  0  0  0
  8 26  1  0  0  0  0
  8 39  1  0  0  0  0
  9 15  2  0  0  0  0
  9 30  1  0  0  0  0
 10 22  1  0  0  0  0
 10 30  2  0  0  0  0
 11 22  1  0  0  0  0
 11 43  1  0  0  0  0
 11 44  1  0  0  0  0
 12 13  1  0  0  0  0
 12 14  1  0  0  0  0
 12 19  2  0  0  0  0
 13 16  2  0  0  0  0
 13 17  1  0  0  0  0
 14 15  1  0  0  0  0
 14 22  2  0  0  0  0
 16 20  1  0  0  0  0
 16 32  1  0  0  0  0
 17 21  2  0  0  0  0
 17 33  1  0  0  0  0
 18 20  2  0  0  0  0
 18 21  1  0  0  0  0
 19 34  1  0  0  0  0
 20 35  1  0  0  0  0
 21 36  1  0  0  0  0
 23 25  1  0  0  0  0
 23 27  2  0  0  0  0
 24 25  2  0  0  0  0
 24 28  1  0  0  0  0
 24 31  1  0  0  0  0
 25 38  1  0  0  0  0
 27 29  1  0  0  0  0
 28 29  2  0  0  0  0
 28 40  1  0  0  0  0
 29 41  1  0  0  0  0
 30 42  1  0  0  0  0
M  END
> <PUBCHEM_COMPOUND_CID>
9868229

> <PUBCHEM_CONFORMER_RMSD>
0.8

> <PUBCHEM_CONFORMER_DIVERSEORDER>
1
19
14
20
10
13
18
8
7
21
11
16
15
4
12
17
9
2
5
6
3

> <PUBCHEM_MMFF94_PARTIAL_CHARGES>
43
1 -0.08
10 -0.62
11 -0.9
12 -0.05
13 0.05
15 0.3
16 -0.15
17 -0.15
18 0.12
19 -0.11
2 -0.19
20 -0.15
21 -0.15
22 0.41
23 0.12
24 -0.14
25 -0.15
26 0.69
27 0.19
28 -0.15
29 -0.15
3 -0.34
30 0.47
31 1.16
32 0.15
33 0.15
34 0.15
35 0.15
36 0.15
37 0.37
38 0.15
39 0.37
4 -0.34
40 0.15
41 0.15
42 0.15
43 0.4
44 0.4
5 -0.34
6 -0.57
7 -0.55
8 -0.55
9 -0.57

> <PUBCHEM_EFFECTIVE_ROTOR_COUNT>
6

> <PUBCHEM_PHARMACOPHORE_FEATURES>
11
1 11 cation
1 11 donor
1 6 acceptor
1 7 donor
1 8 donor
1 9 acceptor
3 9 10 30 cation
5 1 12 14 15 19 rings
6 13 16 17 18 20 21 rings
6 23 24 25 27 28 29 rings
6 9 10 14 15 22 30 rings

> <PUBCHEM_HEAVY_ATOM_COUNT>
31

> <PUBCHEM_ATOM_DEF_STEREO_COUNT>
0

> <PUBCHEM_ATOM_UDEF_STEREO_COUNT>
0

> <PUBCHEM_BOND_DEF_STEREO_COUNT>
0

> <PUBCHEM_BOND_UDEF_STEREO_COUNT>
0

> <PUBCHEM_ISOTOPIC_ATOM_COUNT>
0

> <PUBCHEM_COMPONENT_COUNT>
1

> <PUBCHEM_CACTVS_TAUTO_COUNT>
12

> <PUBCHEM_CONFORMER_ID>
009693C500000001

> <PUBCHEM_MMFF94_ENERGY>
86.3982

> <PUBCHEM_FEATURE_SELFOVERLAP>
55.95

> <PUBCHEM_SHAPE_FINGERPRINT>
10 15 17748828539840274192
10066227 112 18408886239108403306
10162869 55 18131342008610614390
10280341 67 17024008390959522829
10299344 5 17203608160119978599
10319926 262 16443071625144071329
10554248 39 18060144206537237734
10835480 77 18411982494402301434
11007060 377 18113902706206639451
11315181 36 16630521822546465259
11386260 185 18273220790357541932
11761917 142 16951673702136409885
12082328 90 18202002115080118303
125118 31 17894354380086934548
13008946 282 18200860839348983088
13878862 14 18342447158964776492
14068700 675 16415478233698492425
14429380 56 18341889684667084588
14598715 104 17676758812926248541
14856354 85 16200428079554756365
15183329 4 17203608181473326847
15276724 80 18271807882490656565
15400415 2 18340492274382919386
15419008 47 17821728316735900564
15419008 91 17821723957480939501
1577012 14 17561369474074245401
20157964 124 18413674600243609254
20281389 69 18187086156515421002
20554085 129 16949998127998289200
21033648 29 17676204684344990335
21150785 3 16845289445061876891
21859007 373 17676760985662404636
23081809 10 17489871509737711539
23522609 53 17202506466327115873
23559900 14 18201151161050792769
23576562 1 16916214636818711264
249057 25 17417539012355365186
2838139 119 18271528615290088267
328310 630 18272940444202453105
3918712 181 18268712900142875184
397830 11 17969236692152198331
4073 2 18262527008552973642
4169191 19 18341337768026146048
44555599 121 17988653968972983056
4760202 170 18272358759808480353
504579 68 17847064398119302724
5265222 85 14691992713893891805
54039377 194 17131824414246721375
58902169 19 17489585662552813412
6176135 31 13190336877286526512
6698420 124 18338248068234385955
6898599 12 18058167422106509630

> <PUBCHEM_SHAPE_MULTIPOLES>
581.95
26.92
2.39
1.54
6.76
0.38
-0.15
11.99
-3.18
6.38
-0.11
-4.25
0.43
2.18

> <PUBCHEM_SHAPE_SELFOVERLAP>
1283.263

> <PUBCHEM_SHAPE_VOLUME>
317.7

> <PUBCHEM_COORDINATE_TYPE>
2
5
10

$$$$
