44410948
  -OEChem-10062121593D

 51 54  0     1  0  0  0  0  0999 V2000
    6.6245    3.0766    1.2471 Cl  0  0  0  0  0  0  0  0  0  0  0  0
    4.1060    1.6985    1.9457 F   0  0  0  0  0  0  0  0  0  0  0  0
   -5.3151    0.0475    1.0289 O   0  0  0  0  0  0  0  0  0  0  0  0
   -3.4429   -1.9362    0.2941 O   0  0  0  0  0  0  0  0  0  0  0  0
   -3.0711    1.2225   -0.3305 N   0  0  2  0  0  0  0  0  0  0  0  0
   -6.5344    1.6916   -0.1076 N   0  0  0  0  0  0  0  0  0  0  0  0
    0.9071   -3.7448   -0.3856 N   0  0  0  0  0  0  0  0  0  0  0  0
    2.6754   -0.0827    0.3831 N   0  0  0  0  0  0  0  0  0  0  0  0
    2.8683   -2.3615   -0.1695 N   0  0  0  0  0  0  0  0  0  0  0  0
   -4.2285    2.0085    0.0534 C   0  0  1  0  0  0  0  0  0  0  0  0
   -4.7882    2.8350   -1.1052 C   0  0  0  0  0  0  0  0  0  0  0  0
   -6.2631    2.9383   -0.7701 C   0  0  0  0  0  0  0  0  0  0  0  0
   -5.3818    1.0912    0.3980 C   0  0  0  0  0  0  0  0  0  0  0  0
   -2.4143    0.6687    0.8542 C   0  0  0  0  0  0  0  0  0  0  0  0
   -1.5436   -0.4984    0.5268 C   0  0  0  0  0  0  0  0  0  0  0  0
   -2.1322    2.0364   -1.1010 C   0  0  0  0  0  0  0  0  0  0  0  0
   -0.1626   -0.3339    0.4865 C   0  0  0  0  0  0  0  0  0  0  0  0
   -2.0937   -1.7475    0.2614 C   0  0  0  0  0  0  0  0  0  0  0  0
    0.6668   -1.4265    0.1792 C   0  0  0  0  0  0  0  0  0  0  0  0
    0.1232   -2.6930   -0.0906 C   0  0  0  0  0  0  0  0  0  0  0  0
   -1.2621   -2.8292   -0.0434 C   0  0  0  0  0  0  0  0  0  0  0  0
    2.0543   -1.3296    0.1226 C   0  0  0  0  0  0  0  0  0  0  0  0
    2.2369   -3.5220   -0.4090 C   0  0  0  0  0  0  0  0  0  0  0  0
   -3.9200   -3.2497    0.0094 C   0  0  0  0  0  0  0  0  0  0  0  0
    3.8663    0.4976   -0.0813 C   0  0  0  0  0  0  0  0  0  0  0  0
    4.5697    1.3933    0.7241 C   0  0  0  0  0  0  0  0  0  0  0  0
    4.3452    0.1776   -1.3517 C   0  0  0  0  0  0  0  0  0  0  0  0
    5.7519    1.9691    0.2591 C   0  0  0  0  0  0  0  0  0  0  0  0
    5.5274    0.7535   -1.8167 C   0  0  0  0  0  0  0  0  0  0  0  0
    6.2307    1.6494   -1.0115 C   0  0  0  0  0  0  0  0  0  0  0  0
   -4.0332    2.6655    0.9120 H   0  0  0  0  0  0  0  0  0  0  0  0
   -4.7038    2.3010   -2.0615 H   0  0  0  0  0  0  0  0  0  0  0  0
   -4.3173    3.8168   -1.2143 H   0  0  0  0  0  0  0  0  0  0  0  0
   -6.4706    3.7508   -0.0671 H   0  0  0  0  0  0  0  0  0  0  0  0
   -6.8976    3.0393   -1.6540 H   0  0  0  0  0  0  0  0  0  0  0  0
   -3.1152    0.3314    1.6253 H   0  0  0  0  0  0  0  0  0  0  0  0
   -1.8330    1.4486    1.3683 H   0  0  0  0  0  0  0  0  0  0  0  0
   -7.4657    1.3079    0.0185 H   0  0  0  0  0  0  0  0  0  0  0  0
   -1.2259    1.4749   -1.3513 H   0  0  0  0  0  0  0  0  0  0  0  0
   -1.8249    2.9400   -0.5608 H   0  0  0  0  0  0  0  0  0  0  0  0
   -2.5345    2.3318   -2.0750 H   0  0  0  0  0  0  0  0  0  0  0  0
    0.2514    0.6505    0.6890 H   0  0  0  0  0  0  0  0  0  0  0  0
   -1.6425   -3.8238   -0.2579 H   0  0  0  0  0  0  0  0  0  0  0  0
    2.2989    0.3830    1.2044 H   0  0  0  0  0  0  0  0  0  0  0  0
    2.8629   -4.3732   -0.6475 H   0  0  0  0  0  0  0  0  0  0  0  0
   -5.0123   -3.2160    0.0800 H   0  0  0  0  0  0  0  0  0  0  0  0
   -3.5779   -3.9752    0.7553 H   0  0  0  0  0  0  0  0  0  0  0  0
   -3.6794   -3.5546   -1.0149 H   0  0  0  0  0  0  0  0  0  0  0  0
    3.8087   -0.5058   -2.0044 H   0  0  0  0  0  0  0  0  0  0  0  0
    5.8985    0.5072   -2.8073 H   0  0  0  0  0  0  0  0  0  0  0  0
    7.1499    2.0910   -1.3878 H   0  0  0  0  0  0  0  0  0  0  0  0
  1 28  1  0  0  0  0
  2 26  1  0  0  0  0
  3 13  2  0  0  0  0
  4 18  1  0  0  0  0
  4 24  1  0  0  0  0
  5 10  1  0  0  0  0
  5 14  1  0  0  0  0
  5 16  1  0  0  0  0
  6 12  1  0  0  0  0
  6 13  1  0  0  0  0
  6 38  1  0  0  0  0
  7 20  1  0  0  0  0
  7 23  2  0  0  0  0
  8 22  1  0  0  0  0
  8 25  1  0  0  0  0
  8 44  1  0  0  0  0
  9 22  2  0  0  0  0
  9 23  1  0  0  0  0
 10 11  1  0  0  0  0
 10 13  1  0  0  0  0
 10 31  1  0  0  0  0
 11 12  1  0  0  0  0
 11 32  1  0  0  0  0
 11 33  1  0  0  0  0
 12 34  1  0  0  0  0
 12 35  1  0  0  0  0
 14 15  1  0  0  0  0
 14 36  1  0  0  0  0
 14 37  1  0  0  0  0
 15 17  2  0  0  0  0
 15 18  1  0  0  0  0
 16 39  1  0  0  0  0
 16 40  1  0  0  0  0
 16 41  1  0  0  0  0
 17 19  1  0  0  0  0
 17 42  1  0  0  0  0
 18 21  2  0  0  0  0
 19 20  2  0  0  0  0
 19 22  1  0  0  0  0
 20 21  1  0  0  0  0
 21 43  1  0  0  0  0
 23 45  1  0  0  0  0
 24 46  1  0  0  0  0
 24 47  1  0  0  0  0
 24 48  1  0  0  0  0
 25 26  2  0  0  0  0
 25 27  1  0  0  0  0
 26 28  1  0  0  0  0
 27 29  2  0  0  0  0
 27 49  1  0  0  0  0
 28 30  2  0  0  0  0
 29 30  1  0  0  0  0
 29 50  1  0  0  0  0
 30 51  1  0  0  0  0
M  END
> <PUBCHEM_COMPOUND_CID>
44410948

> <PUBCHEM_CONFORMER_RMSD>
1.2

> <PUBCHEM_CONFORMER_DIVERSEORDER>
1
90
43
68
70
56
28
71
46
3
92
42
78
97
96
20
41
30
61
81
53
105
48
74
109
16
99
75
9
111
58
13
36
47
103
87
54
15
80
37
39
59
17
40
66
110
104
55
33
22
65
10
67
27
107
93
84
76
79
32
63
18
94
89
112
35
98
85
102
91
83
69
31
26
64
6
51
86
8
106
38
95
88
100
44
4
11
45
29
23
21
19
34
72
7
57
101
25
60
77
24
73
49
50
62
12
108
5
52
2
14
82

> <PUBCHEM_MMFF94_PARTIAL_CHARGES>
36
1 -0.18
10 0.33
12 0.3
13 0.57
14 0.41
15 -0.14
16 0.27
17 -0.15
18 0.08
2 -0.19
20 0.31
21 -0.15
22 0.41
23 0.47
24 0.28
25 0.1
26 0.19
27 -0.15
28 0.18
29 -0.15
3 -0.57
30 -0.15
38 0.37
4 -0.36
42 0.15
43 0.15
44 0.4
45 0.15
49 0.15
5 -0.81
50 0.15
51 0.15
6 -0.73
7 -0.62
8 -0.6
9 -0.62

> <PUBCHEM_EFFECTIVE_ROTOR_COUNT>
6.8

> <PUBCHEM_PHARMACOPHORE_FEATURES>
11
1 3 acceptor
1 4 acceptor
1 5 cation
1 6 donor
1 8 donor
3 7 9 23 cation
3 8 9 22 cation
5 6 10 11 12 13 rings
6 15 17 18 19 20 21 rings
6 25 26 27 28 29 30 rings
6 7 9 19 20 22 23 rings

> <PUBCHEM_HEAVY_ATOM_COUNT>
30

> <PUBCHEM_ATOM_DEF_STEREO_COUNT>
0

> <PUBCHEM_ATOM_UDEF_STEREO_COUNT>
1

> <PUBCHEM_BOND_DEF_STEREO_COUNT>
0

> <PUBCHEM_BOND_UDEF_STEREO_COUNT>
0

> <PUBCHEM_ISOTOPIC_ATOM_COUNT>
0

> <PUBCHEM_COMPONENT_COUNT>
1

> <PUBCHEM_CACTVS_TAUTO_COUNT>
9

> <PUBCHEM_CONFORMER_ID>
02A5A84400000001

> <PUBCHEM_MMFF94_ENERGY>
108.5994

> <PUBCHEM_FEATURE_SELFOVERLAP>
55.997

> <PUBCHEM_SHAPE_FINGERPRINT>
10050765 1 18410292493043377010
10411042 1 17474389557185779107
10498660 4 18341900705716949784
10670039 82 18261962955034783852
10864689 126 18412266099704669436
12107183 9 18189601771323585914
12390115 104 18342187686266701483
12403259 415 18272097149180983866
12422481 6 17603304825761207836
12730499 353 18339649949036816498
13540713 4 18337127682543830931
13540713 5 18265874947849313363
14294032 229 18339366382332223198
14790565 3 18192158302544257060
15575132 122 18336553827314244014
15961568 22 17749680588301031645
17980427 23 17531251711400426566
19053607 189 18259989253990511604
21033648 29 18271518823382260992
21279426 13 18201168702309048406
21302155 148 18333169466294800765
21521721 280 18267871593368627393
22393880 68 18343309167095633062
23559900 14 18126562319183989579
23569914 152 17340984277946269030
2747138 104 18046078313038906715
2838139 119 18410567366807386244
44249763 50 18271800289325833924
508706 21 18268425918141325728
5219985 13 18410012160970241006
6327066 14 18408321094685598556
7288768 16 17967817154259171339
7808743 9 18335419084048536041
9849439 229 18409160030894945698
9981440 41 18334861670762407066

> <PUBCHEM_SHAPE_MULTIPOLES>
575.34
16.66
4.68
1.19
3.57
2.64
0.08
-19.45
0.76
-1.79
0.44
1.37
-0.75
2.29

> <PUBCHEM_SHAPE_SELFOVERLAP>
1250.086

> <PUBCHEM_SHAPE_VOLUME>
316

> <PUBCHEM_COORDINATE_TYPE>
2
5
10

$$$$
