49830471
  -OEChem-10052115183D

 49 53  0     0  0  0  0  0  0999 V2000
   -5.4105   -0.9659   -0.2833 O   0  0  0  0  0  0  0  0  0  0  0  0
    3.9564   -0.7479    0.9482 N   0  0  0  0  0  0  0  0  0  0  0  0
   -2.6568   -4.1819   -0.5211 N   0  0  0  0  0  0  0  0  0  0  0  0
   -3.4729   -3.1170   -0.4537 N   0  0  0  0  0  0  0  0  0  0  0  0
   -3.0705   -0.7970   -0.0863 N   0  0  0  0  0  0  0  0  0  0  0  0
    3.5694   -2.5138   -0.2176 N   0  0  0  0  0  0  0  0  0  0  0  0
    4.5330   -1.6964    0.1925 N   0  0  0  0  0  0  0  0  0  0  0  0
   -1.7108    5.0027   -0.6837 N   0  0  0  0  0  0  0  0  0  0  0  0
   -1.2879   -2.5105   -0.1454 C   0  0  0  0  0  0  0  0  0  0  0  0
   -1.3321   -3.8859   -0.3438 C   0  0  0  0  0  0  0  0  0  0  0  0
    1.1075   -2.6769    0.0755 C   0  0  0  0  0  0  0  0  0  0  0  0
   -0.0481   -1.8857    0.0691 C   0  0  0  0  0  0  0  0  0  0  0  0
   -2.6366   -2.1019   -0.2255 C   0  0  0  0  0  0  0  0  0  0  0  0
    2.3862   -2.0589    0.2947 C   0  0  0  0  0  0  0  0  0  0  0  0
   -0.1923   -4.6930   -0.3415 C   0  0  0  0  0  0  0  0  0  0  0  0
    1.0344   -4.0564   -0.1264 C   0  0  0  0  0  0  0  0  0  0  0  0
    4.7474    0.2976    1.5456 C   0  0  0  0  0  0  0  0  0  0  0  0
    2.6112   -0.9308    1.0430 C   0  0  0  0  0  0  0  0  0  0  0  0
    5.1326    1.3852    0.5738 C   0  0  0  0  0  0  0  0  0  0  0  0
   -4.3906   -0.3048   -0.1202 C   0  0  0  0  0  0  0  0  0  0  0  0
    6.1734    1.1757   -0.3307 C   0  0  0  0  0  0  0  0  0  0  0  0
    4.4478    2.6005    0.5799 C   0  0  0  0  0  0  0  0  0  0  0  0
   -4.5408    1.1590    0.0901 C   0  0  0  0  0  0  0  0  0  0  0  0
    6.5295    2.1814   -1.2295 C   0  0  0  0  0  0  0  0  0  0  0  0
    4.8039    3.6063   -0.3187 C   0  0  0  0  0  0  0  0  0  0  0  0
    5.8446    3.3966   -1.2235 C   0  0  0  0  0  0  0  0  0  0  0  0
   -3.4998    2.0233   -0.2491 C   0  0  0  0  0  0  0  0  0  0  0  0
   -5.7232    1.6683    0.6274 C   0  0  0  0  0  0  0  0  0  0  0  0
   -3.6410    3.3970   -0.0511 C   0  0  0  0  0  0  0  0  0  0  0  0
   -5.8645    3.0420    0.8252 C   0  0  0  0  0  0  0  0  0  0  0  0
   -4.8233    3.9063    0.4861 C   0  0  0  0  0  0  0  0  0  0  0  0
   -2.5758    4.2829   -0.4002 C   0  0  0  0  0  0  0  0  0  0  0  0
   -0.0095   -0.8099    0.2135 H   0  0  0  0  0  0  0  0  0  0  0  0
   -0.2514   -5.7643   -0.4977 H   0  0  0  0  0  0  0  0  0  0  0  0
    1.9340   -4.6693   -0.1168 H   0  0  0  0  0  0  0  0  0  0  0  0
    5.6454   -0.1638    1.9750 H   0  0  0  0  0  0  0  0  0  0  0  0
    4.1803    0.7113    2.3883 H   0  0  0  0  0  0  0  0  0  0  0  0
    1.9718   -0.2710    1.6135 H   0  0  0  0  0  0  0  0  0  0  0  0
   -3.0697   -5.0904   -0.6915 H   0  0  0  0  0  0  0  0  0  0  0  0
   -2.3187   -0.1440    0.1127 H   0  0  0  0  0  0  0  0  0  0  0  0
    6.7195    0.2363   -0.3432 H   0  0  0  0  0  0  0  0  0  0  0  0
    3.6336    2.7760    1.2780 H   0  0  0  0  0  0  0  0  0  0  0  0
    7.3407    2.0188   -1.9331 H   0  0  0  0  0  0  0  0  0  0  0  0
    4.2705    4.5523   -0.3144 H   0  0  0  0  0  0  0  0  0  0  0  0
    6.1219    4.1797   -1.9231 H   0  0  0  0  0  0  0  0  0  0  0  0
   -2.5816    1.6595   -0.7030 H   0  0  0  0  0  0  0  0  0  0  0  0
   -6.5444    1.0122    0.9034 H   0  0  0  0  0  0  0  0  0  0  0  0
   -6.7846    3.4385    1.2444 H   0  0  0  0  0  0  0  0  0  0  0  0
   -4.9486    4.9745    0.6463 H   0  0  0  0  0  0  0  0  0  0  0  0
  1 20  2  0  0  0  0
  2  7  1  0  0  0  0
  2 17  1  0  0  0  0
  2 18  1  0  0  0  0
  3  4  1  0  0  0  0
  3 10  1  0  0  0  0
  3 39  1  0  0  0  0
  4 13  2  0  0  0  0
  5 13  1  0  0  0  0
  5 20  1  0  0  0  0
  5 40  1  0  0  0  0
  6  7  2  0  0  0  0
  6 14  1  0  0  0  0
  8 32  3  0  0  0  0
  9 10  2  0  0  0  0
  9 12  1  0  0  0  0
  9 13  1  0  0  0  0
 10 15  1  0  0  0  0
 11 12  2  0  0  0  0
 11 14  1  0  0  0  0
 11 16  1  0  0  0  0
 12 33  1  0  0  0  0
 14 18  2  0  0  0  0
 15 16  2  0  0  0  0
 15 34  1  0  0  0  0
 16 35  1  0  0  0  0
 17 19  1  0  0  0  0
 17 36  1  0  0  0  0
 17 37  1  0  0  0  0
 18 38  1  0  0  0  0
 19 21  2  0  0  0  0
 19 22  1  0  0  0  0
 20 23  1  0  0  0  0
 21 24  1  0  0  0  0
 21 41  1  0  0  0  0
 22 25  2  0  0  0  0
 22 42  1  0  0  0  0
 23 27  1  0  0  0  0
 23 28  2  0  0  0  0
 24 26  2  0  0  0  0
 24 43  1  0  0  0  0
 25 26  1  0  0  0  0
 25 44  1  0  0  0  0
 26 45  1  0  0  0  0
 27 29  2  0  0  0  0
 27 46  1  0  0  0  0
 28 30  1  0  0  0  0
 28 47  1  0  0  0  0
 29 31  1  0  0  0  0
 29 32  1  0  0  0  0
 30 31  2  0  0  0  0
 30 48  1  0  0  0  0
 31 49  1  0  0  0  0
M  END
> <PUBCHEM_COMPOUND_CID>
49830471

> <PUBCHEM_CONFORMER_RMSD>
1

> <PUBCHEM_CONFORMER_DIVERSEORDER>
2
120
74
87
88
52
27
108
115
148
119
90
109
16
105
112
99
56
123
104
58
62
126
36
13
98
44
76
146
68
31
42
69
66
96
94
97
101
95
41
30
136
75
100
79
138
29
117
77
72
84
122
12
80
118
125
83
60
86
35
46
113
67
82
28
65
85
7
142
124
57
121
63
32
54
17
102
144
110
141
127
149
129
34
55
91
61
78
50
47
106
5
38
133
21
45
73
137
11
40
53
134
37
3
131
93
139
43
143
33
114
92
8
135
25
71
10
48
15
128
20
107
23
130
59
6
111
132
22
39
116
14
140
145
26
4
103
51
89
24
64
49
19
147
1
9
70
81
18

> <PUBCHEM_MMFF94_PARTIAL_CHARGES>
46
1 -0.57
10 -0.15
11 0.05
12 -0.15
13 0.35
14 0.17
15 -0.15
16 -0.15
17 0.4
18 -0.3
19 -0.14
2 0.31
20 0.54
21 -0.15
22 -0.15
23 0.09
24 -0.15
25 -0.15
26 -0.15
27 -0.15
28 -0.15
29 0.07
3 0.3
30 -0.15
31 -0.15
32 0.48
33 0.15
34 0.15
35 0.15
38 0.15
39 0.27
4 -0.71
40 0.37
41 0.15
42 0.15
43 0.15
44 0.15
45 0.15
46 0.15
47 0.15
48 0.15
49 0.15
5 -0.49
6 -0.23
7 -0.42
8 -0.56

> <PUBCHEM_EFFECTIVE_ROTOR_COUNT>
6

> <PUBCHEM_PHARMACOPHORE_FEATURES>
9
1 1 acceptor
1 3 donor
1 5 donor
1 8 acceptor
5 2 6 7 14 18 rings
5 3 4 9 10 13 rings
6 19 21 22 24 25 26 rings
6 23 27 28 29 30 31 rings
6 9 10 11 12 15 16 rings

> <PUBCHEM_HEAVY_ATOM_COUNT>
32

> <PUBCHEM_ATOM_DEF_STEREO_COUNT>
0

> <PUBCHEM_ATOM_UDEF_STEREO_COUNT>
0

> <PUBCHEM_BOND_DEF_STEREO_COUNT>
0

> <PUBCHEM_BOND_UDEF_STEREO_COUNT>
0

> <PUBCHEM_ISOTOPIC_ATOM_COUNT>
0

> <PUBCHEM_COMPONENT_COUNT>
1

> <PUBCHEM_CACTVS_TAUTO_COUNT>
24

> <PUBCHEM_CONFORMER_ID>
02F85A4700000002

> <PUBCHEM_MMFF94_ENERGY>
72.992

> <PUBCHEM_FEATURE_SELFOVERLAP>
45.764

> <PUBCHEM_SHAPE_FINGERPRINT>
100830 2 18261682587780671788
10883706 163 18261668190786200669
10917259 128 18122895694021623176
10917259 69 18410296931073474092
11273773 38 18411419471171153280
11374522 34 18116424834924497421
11410812 94 18120956134204143396
11761917 142 18125431158775640232
11973864 155 18056501468353267976
11973864 220 17755310303322900228
12107183 9 18264191557752047034
12173638 208 17480039501545544689
13627167 48 18270420320649403108
13944108 23 17981894038367582240
14251764 75 18411423890554850673
14347329 18 18340481266148865242
14790565 3 18411136913640598490
14849402 71 18050568447743525498
14932702 115 18059853991270418672
15274700 147 17396724432555908860
15320291 9 17473248886849248552
15320467 1 18410853304076470769
16067690 210 18040709226098727097
16990350 14 18339077073851973682
18393751 57 18335144164178934691
19053607 189 18339350864610323008
19302320 297 18193277386316642434
19611394 137 17537445393950831411
20691028 202 18341328894998271849
21133410 127 18043534902199889908
21315764 268 17832423090999153685
21859007 373 17984975150028944000
22033318 11 18114447995533653472
22864921 10 18335140865190266724
23398203 216 18336820918530266812
23569914 152 10276224768822295046
245318 6 18114758095628868364
24893989 43 11783489247865226933
325973 47 16681749962368704845
437795 96 17755290172072347749
50080093 196 17968087685743594888
5047190 48 18409727331144296948
50677037 204 18194391414834294609
550186 7 18129665321512346214
550186 72 18051409870771007911
5776283 40 18266198140528490742
6036956 94 18336259051689546589
6176135 31 18267297630101441369
6371009 1 18194935522818461731
6608658 132 18055059123819265878
7808743 9 18411975875430904739
9982175 49 17532664644405002908

> <PUBCHEM_SHAPE_MULTIPOLES>
617.81
16.46
8.26
0.96
9.36
0.05
-0.1
-19.62
-0.06
-4.21
1.73
0.99
-0.4
-2.37

> <PUBCHEM_SHAPE_SELFOVERLAP>
1379.187

> <PUBCHEM_SHAPE_VOLUME>
327

> <PUBCHEM_COORDINATE_TYPE>
2
5
10

$$$$
