19078761
  -OEChem-10052115183D

 27 29  0     0  0  0  0  0  0999 V2000
    2.9494   -2.4343    0.0007 O   0  0  0  0  0  0  0  0  0  0  0  0
    4.1058   -0.3849   -0.0003 N   0  0  0  0  0  0  0  0  0  0  0  0
    2.2726    0.9838   -0.0003 C   0  0  0  0  0  0  0  0  0  0  0  0
    1.8227   -0.3374   -0.0002 C   0  0  0  0  0  0  0  0  0  0  0  0
    3.7616    1.0244   -0.0004 C   0  0  0  0  0  0  0  0  0  0  0  0
   -0.4347    0.3810    0.0005 C   0  0  0  0  0  0  0  0  0  0  0  0
    0.4826   -0.6709    0.0002 C   0  0  0  0  0  0  0  0  0  0  0  0
    2.9943   -1.2184   -0.0001 C   0  0  0  0  0  0  0  0  0  0  0  0
    1.3678    2.0282    0.0001 C   0  0  0  0  0  0  0  0  0  0  0  0
    0.0034    1.7185    0.0004 C   0  0  0  0  0  0  0  0  0  0  0  0
   -1.8536    0.0944    0.0002 C   0  0  0  0  0  0  0  0  0  0  0  0
   -2.5376   -0.0435    1.2080 C   0  0  0  0  0  0  0  0  0  0  0  0
   -2.5370   -0.0439   -1.2079 C   0  0  0  0  0  0  0  0  0  0  0  0
   -3.9049   -0.3195    1.2077 C   0  0  0  0  0  0  0  0  0  0  0  0
   -3.9043   -0.3198   -1.2083 C   0  0  0  0  0  0  0  0  0  0  0  0
   -4.5882   -0.4577   -0.0004 C   0  0  0  0  0  0  0  0  0  0  0  0
    4.1674    1.4859   -0.9041 H   0  0  0  0  0  0  0  0  0  0  0  0
    4.1676    1.4862    0.9030 H   0  0  0  0  0  0  0  0  0  0  0  0
    0.1643   -1.7082    0.0002 H   0  0  0  0  0  0  0  0  0  0  0  0
    1.6995    3.0607    0.0001 H   0  0  0  0  0  0  0  0  0  0  0  0
    5.0611   -0.7282    0.0001 H   0  0  0  0  0  0  0  0  0  0  0  0
   -0.7171    2.5342    0.0006 H   0  0  0  0  0  0  0  0  0  0  0  0
   -2.0202    0.0613    2.1588 H   0  0  0  0  0  0  0  0  0  0  0  0
   -2.0192    0.0605   -2.1584 H   0  0  0  0  0  0  0  0  0  0  0  0
   -4.4376   -0.4269    2.1481 H   0  0  0  0  0  0  0  0  0  0  0  0
   -4.4365   -0.4274   -2.1488 H   0  0  0  0  0  0  0  0  0  0  0  0
   -5.6528   -0.6727   -0.0006 H   0  0  0  0  0  0  0  0  0  0  0  0
  1  8  2  0  0  0  0
  2  5  1  0  0  0  0
  2  8  1  0  0  0  0
  2 21  1  0  0  0  0
  3  4  2  0  0  0  0
  3  5  1  0  0  0  0
  3  9  1  0  0  0  0
  4  7  1  0  0  0  0
  4  8  1  0  0  0  0
  5 17  1  0  0  0  0
  5 18  1  0  0  0  0
  6  7  2  0  0  0  0
  6 10  1  0  0  0  0
  6 11  1  0  0  0  0
  7 19  1  0  0  0  0
  9 10  2  0  0  0  0
  9 20  1  0  0  0  0
 10 22  1  0  0  0  0
 11 12  2  0  0  0  0
 11 13  1  0  0  0  0
 12 14  1  0  0  0  0
 12 23  1  0  0  0  0
 13 15  2  0  0  0  0
 13 24  1  0  0  0  0
 14 16  2  0  0  0  0
 14 25  1  0  0  0  0
 15 16  1  0  0  0  0
 15 26  1  0  0  0  0
 16 27  1  0  0  0  0
M  END
> <PUBCHEM_COMPOUND_CID>
19078761

> <PUBCHEM_CONFORMER_RMSD>
0.6

> <PUBCHEM_CONFORMER_DIVERSEORDER>
1
2

> <PUBCHEM_MMFF94_PARTIAL_CHARGES>
23
1 -0.57
10 -0.15
12 -0.15
13 -0.15
14 -0.15
15 -0.15
16 -0.15
19 0.15
2 -0.73
20 0.15
21 0.37
22 0.15
23 0.15
24 0.15
25 0.15
26 0.15
27 0.15
3 -0.14
4 0.09
5 0.44
7 -0.15
8 0.54
9 -0.15

> <PUBCHEM_EFFECTIVE_ROTOR_COUNT>
1.4

> <PUBCHEM_PHARMACOPHORE_FEATURES>
5
1 1 acceptor
1 2 donor
5 2 3 4 5 8 rings
6 11 12 13 14 15 16 rings
6 3 4 6 7 9 10 rings

> <PUBCHEM_HEAVY_ATOM_COUNT>
16

> <PUBCHEM_ATOM_DEF_STEREO_COUNT>
0

> <PUBCHEM_ATOM_UDEF_STEREO_COUNT>
0

> <PUBCHEM_BOND_DEF_STEREO_COUNT>
0

> <PUBCHEM_BOND_UDEF_STEREO_COUNT>
0

> <PUBCHEM_ISOTOPIC_ATOM_COUNT>
0

> <PUBCHEM_COMPONENT_COUNT>
1

> <PUBCHEM_CACTVS_TAUTO_COUNT>
2

> <PUBCHEM_CONFORMER_ID>
01231E6900000001

> <PUBCHEM_MMFF94_ENERGY>
50.6524

> <PUBCHEM_FEATURE_SELFOVERLAP>
25.46

> <PUBCHEM_SHAPE_FINGERPRINT>
11471102 20 18409448119942164924
11615757 297 18343303695127423377
11796584 16 16588295052094830762
12032990 46 18334298643087285546
12236239 1 17775569762566610513
12553582 1 18341894065402065454
12670546 56 17632573859895091969
13140716 1 18123184873403946448
13296908 3 18113617872026717771
13581323 91 16415763033196140869
13705890 14 17603307046580838204
13760787 5 18412266155148308460
13862211 1 18410852136710139722
14144814 61 18272371974931122225
14251717 144 18411979174049852478
14252887 29 18201726128549528446
14386348 63 17894633668909096723
14576447 43 18129086991365232391
15219456 202 17968375740477937541
15375358 24 18040713696900718416
15375462 189 18131914866362322312
15653759 3 17240481437919473529
16945 1 18410575123740089536
1813 80 18129116558109898268
200 152 18272645771186828613
20279233 1 17821729446359069899
20281475 54 18342735221656317807
20645477 70 18408597046107467703
20871998 22 18199476467560920046
21267235 1 18340776970304858070
21501925 9 18410849937243363512
22094290 60 16153425047834955477
2255824 54 18271527623337616380
22646028 1 17989485234196893015
22646028 28 18131630097504450135
23402539 116 18272929401583072060
23557571 272 16950276299870946428
23559900 14 17095797742249981770
26918003 58 18333168370930129161
2748010 2 18194674878944872228
33824 294 18408321103491603042
474 4 17699836616784308064
5104073 3 18411699842182650193
573450 72 17060621088343929059
602551 16 15123500471245411605
77492 1 17703793647673857409
83771 10 18413388713617956928

> <PUBCHEM_SHAPE_MULTIPOLES>
318.42
8.4
1.64
0.98
2.89
0.06
0
2.02
0
-1.96
0
1.21
0.04
0

> <PUBCHEM_SHAPE_SELFOVERLAP>
712.877

> <PUBCHEM_SHAPE_VOLUME>
171.1

> <PUBCHEM_COORDINATE_TYPE>
2
5
10

$$$$
