49830704
  -OEChem-10062121533D

 44 46  0     0  0  0  0  0  0999 V2000
    7.1967    0.2122   -0.1570 F   0  0  0  0  0  0  0  0  0  0  0  0
    5.7364    1.3258   -1.3210 F   0  0  0  0  0  0  0  0  0  0  0  0
    5.8096    1.5622    0.8336 F   0  0  0  0  0  0  0  0  0  0  0  0
    1.3204    1.4041   -0.0910 O   0  0  0  0  0  0  0  0  0  0  0  0
   -0.6620    0.1733    0.1090 N   0  0  0  0  0  0  0  0  0  0  0  0
   -3.5544    3.1843   -0.1265 N   0  0  0  0  0  0  0  0  0  0  0  0
    1.3668   -0.9203    0.1622 N   0  0  0  0  0  0  0  0  0  0  0  0
    3.6210   -0.1797    0.0068 N   0  0  0  0  0  0  0  0  0  0  0  0
   -4.8234   -0.7575    0.3477 C   0  0  0  0  0  0  0  0  0  0  0  0
   -5.2918   -2.1626    0.5171 C   0  0  0  0  0  0  0  0  0  0  0  0
   -3.0177    0.8472    0.1123 C   0  0  0  0  0  0  0  0  0  0  0  0
   -3.4623   -0.4762    0.2723 C   0  0  0  0  0  0  0  0  0  0  0  0
   -5.5207   -2.8657   -0.8284 C   0  0  0  0  0  0  0  0  0  0  0  0
   -3.9465    1.9054    0.0265 C   0  0  0  0  0  0  0  0  0  0  0  0
   -1.6536    1.1587    0.0337 C   0  0  0  0  0  0  0  0  0  0  0  0
   -5.7438    0.2799    0.2637 C   0  0  0  0  0  0  0  0  0  0  0  0
   -5.3015    1.5954    0.1048 C   0  0  0  0  0  0  0  0  0  0  0  0
   -5.9650   -4.3086   -0.6485 C   0  0  0  0  0  0  0  0  0  0  0  0
   -1.2465    2.4756   -0.1241 C   0  0  0  0  0  0  0  0  0  0  0  0
   -2.2284    3.4425   -0.1982 C   0  0  0  0  0  0  0  0  0  0  0  0
    0.7410    0.3312    0.0457 C   0  0  0  0  0  0  0  0  0  0  0  0
    2.7524   -1.2059    0.1480 C   0  0  0  0  0  0  0  0  0  0  0  0
    4.9340   -0.5012   -0.0016 C   0  0  0  0  0  0  0  0  0  0  0  0
    3.1329   -2.5317    0.2803 C   0  0  0  0  0  0  0  0  0  0  0  0
    5.4168   -1.7938    0.1239 C   0  0  0  0  0  0  0  0  0  0  0  0
    4.4925   -2.8228    0.2671 C   0  0  0  0  0  0  0  0  0  0  0  0
    5.8972    0.6279   -0.1584 C   0  0  0  0  0  0  0  0  0  0  0  0
   -4.5615   -2.7272    1.1115 H   0  0  0  0  0  0  0  0  0  0  0  0
   -6.2193   -2.1762    1.1043 H   0  0  0  0  0  0  0  0  0  0  0  0
   -2.7779   -1.3158    0.3396 H   0  0  0  0  0  0  0  0  0  0  0  0
   -6.2795   -2.3259   -1.4082 H   0  0  0  0  0  0  0  0  0  0  0  0
   -4.5983   -2.8483   -1.4219 H   0  0  0  0  0  0  0  0  0  0  0  0
   -6.8112    0.0823    0.3184 H   0  0  0  0  0  0  0  0  0  0  0  0
   -6.0426    2.3901    0.0412 H   0  0  0  0  0  0  0  0  0  0  0  0
   -5.2095   -4.8863   -0.1067 H   0  0  0  0  0  0  0  0  0  0  0  0
   -6.9049   -4.3618   -0.0898 H   0  0  0  0  0  0  0  0  0  0  0  0
   -6.1211   -4.7820   -1.6228 H   0  0  0  0  0  0  0  0  0  0  0  0
   -0.2325    2.8315   -0.1962 H   0  0  0  0  0  0  0  0  0  0  0  0
   -0.9680   -0.7851    0.2241 H   0  0  0  0  0  0  0  0  0  0  0  0
   -1.9716    4.4897   -0.3215 H   0  0  0  0  0  0  0  0  0  0  0  0
    0.7556   -1.7258    0.2706 H   0  0  0  0  0  0  0  0  0  0  0  0
    2.4074   -3.3309    0.3917 H   0  0  0  0  0  0  0  0  0  0  0  0
    6.4773   -2.0202    0.1134 H   0  0  0  0  0  0  0  0  0  0  0  0
    4.8310   -3.8496    0.3681 H   0  0  0  0  0  0  0  0  0  0  0  0
  1 27  1  0  0  0  0
  2 27  1  0  0  0  0
  3 27  1  0  0  0  0
  4 21  2  0  0  0  0
  5 15  1  0  0  0  0
  5 21  1  0  0  0  0
  5 39  1  0  0  0  0
  6 14  2  0  0  0  0
  6 20  1  0  0  0  0
  7 21  1  0  0  0  0
  7 22  1  0  0  0  0
  7 41  1  0  0  0  0
  8 22  1  0  0  0  0
  8 23  2  0  0  0  0
  9 10  1  0  0  0  0
  9 12  2  0  0  0  0
  9 16  1  0  0  0  0
 10 13  1  0  0  0  0
 10 28  1  0  0  0  0
 10 29  1  0  0  0  0
 11 12  1  0  0  0  0
 11 14  1  0  0  0  0
 11 15  2  0  0  0  0
 12 30  1  0  0  0  0
 13 18  1  0  0  0  0
 13 31  1  0  0  0  0
 13 32  1  0  0  0  0
 14 17  1  0  0  0  0
 15 19  1  0  0  0  0
 16 17  2  0  0  0  0
 16 33  1  0  0  0  0
 17 34  1  0  0  0  0
 18 35  1  0  0  0  0
 18 36  1  0  0  0  0
 18 37  1  0  0  0  0
 19 20  2  0  0  0  0
 19 38  1  0  0  0  0
 20 40  1  0  0  0  0
 22 24  2  0  0  0  0
 23 25  1  0  0  0  0
 23 27  1  0  0  0  0
 24 26  1  0  0  0  0
 24 42  1  0  0  0  0
 25 26  2  0  0  0  0
 25 43  1  0  0  0  0
 26 44  1  0  0  0  0
M  END
> <PUBCHEM_COMPOUND_CID>
49830704

> <PUBCHEM_CONFORMER_RMSD>
0.8

> <PUBCHEM_CONFORMER_DIVERSEORDER>
1
67
17
70
27
63
59
18
62
34
73
4
68
39
40
11
32
71
52
20
6
12
44
50
19
57
14
38
21
53
69
54
31
16
51
30
13
9
43
56
66
65
36
72
61
48
55
74
8
35
41
60
37
42
64
22
33
58
3
47
49
45
2
23
7
28
29
26
5
15
10
25
24
46

> <PUBCHEM_MMFF94_PARTIAL_CHARGES>
34
1 -0.34
10 0.14
12 -0.15
14 0.31
15 0.12
16 -0.15
17 -0.15
19 -0.15
2 -0.34
20 0.16
21 0.69
22 0.43
23 0.17
24 -0.15
25 -0.15
26 -0.15
27 1.16
3 -0.34
30 0.15
33 0.15
34 0.15
38 0.15
39 0.37
4 -0.57
40 0.15
41 0.37
42 0.15
43 0.15
44 0.15
5 -0.55
6 -0.62
7 -0.55
8 -0.62
9 -0.14

> <PUBCHEM_EFFECTIVE_ROTOR_COUNT>
7

> <PUBCHEM_PHARMACOPHORE_FEATURES>
9
1 18 hydrophobe
1 4 acceptor
1 5 donor
1 6 acceptor
1 7 donor
1 8 acceptor
6 6 11 14 15 19 20 rings
6 8 22 23 24 25 26 rings
6 9 11 12 14 16 17 rings

> <PUBCHEM_HEAVY_ATOM_COUNT>
27

> <PUBCHEM_ATOM_DEF_STEREO_COUNT>
0

> <PUBCHEM_ATOM_UDEF_STEREO_COUNT>
0

> <PUBCHEM_BOND_DEF_STEREO_COUNT>
0

> <PUBCHEM_BOND_UDEF_STEREO_COUNT>
0

> <PUBCHEM_ISOTOPIC_ATOM_COUNT>
0

> <PUBCHEM_COMPONENT_COUNT>
1

> <PUBCHEM_CACTVS_TAUTO_COUNT>
11

> <PUBCHEM_CONFORMER_ID>
02F85B3000000001

> <PUBCHEM_MMFF94_ENERGY>
71.2476

> <PUBCHEM_FEATURE_SELFOVERLAP>
45.756

> <PUBCHEM_SHAPE_FINGERPRINT>
10411042 1 18267021855558791911
10595046 47 18335140865031569042
10835480 77 18263638481121323685
11476731 50 17629749330466821663
11524674 6 16988556871714539791
11963148 33 18409722985139131370
12107183 9 17254553803701710648
1361 4 18412544293183941102
13631057 29 18412825815473233731
14168556 18 18268143348254046376
14429380 30 18265053716486118379
14461889 52 18411131459828965202
14659021 117 18261388992706471075
15196674 1 18336548192649506488
15250474 111 18117265974336074547
15803439 3 17537403291086873413
16087824 20 18337670808162440853
16110190 28 18341337704228916171
17844677 252 18265903449689307944
18608769 82 18413103979077690544
20511986 3 17822846473237882247
23559900 14 18410566293514682769
239999 70 18198345053328130166
3246875 12 18339639053443583392
335352 9 18410289213069633629
34797466 226 17989211408831568188
4073 2 18041289789786648130
4214541 1 18192431870412387473
4325135 7 18334860498240940348
4461854 278 17915472803165315855
497634 4 18336267817021380741
5104073 3 18267300941810948392
550186 72 18410292519071364597
6431902 208 18335421309448971379
67856867 119 18260275178089000236
7970288 3 18267300031721661655

> <PUBCHEM_SHAPE_MULTIPOLES>
508.03
18.74
4.26
0.73
15.67
1.89
0.06
8.18
0.89
-6.48
0.66
0
0.1
-1.19

> <PUBCHEM_SHAPE_SELFOVERLAP>
1101.386

> <PUBCHEM_SHAPE_VOLUME>
277.7

> <PUBCHEM_COORDINATE_TYPE>
2
5
10

$$$$
