44352930
  -OEChem-10052115143D

 75 83  0     1  0  0  0  0  0999 V2000
    0.8273   -0.2154    2.6269 O   0  0  0  0  0  0  0  0  0  0  0  0
   -0.7584    0.5234   -0.2127 O   0  0  0  0  0  0  0  0  0  0  0  0
    6.3114   -1.6913   -2.0465 O   0  0  0  0  0  0  0  0  0  0  0  0
   -3.9475    1.2039    1.7528 O   0  0  0  0  0  0  0  0  0  0  0  0
   -8.0372    0.0164   -3.3327 O   0  5  0  0  0  0  0  0  0  0  0  0
   -6.0266    0.8943   -3.4098 O   0  0  0  0  0  0  0  0  0  0  0  0
    1.3768    1.4375    1.0857 N   0  0  0  0  0  0  0  0  0  0  0  0
    1.7127   -1.5401    0.9322 N   0  0  0  0  0  0  0  0  0  0  0  0
   -2.9604   -0.8054    1.0765 N   0  0  0  0  0  0  0  0  0  0  0  0
    6.4079    0.6432   -2.1716 N   0  0  0  0  0  0  0  0  0  0  0  0
   -6.9374    0.2898   -2.7939 N   0  3  0  0  0  0  0  0  0  0  0  0
    0.3200    0.9403    1.9538 C   0  0  1  0  0  0  0  0  0  0  0  0
   -1.0112    0.6908    1.1894 C   0  0  2  0  0  0  0  0  0  0  0  0
    0.6908   -1.4400    1.9489 C   0  0  2  0  0  0  0  0  0  0  0  0
   -1.6838   -0.5770    1.7083 C   0  0  2  0  0  0  0  0  0  0  0  0
   -0.7391   -1.7546    1.4858 C   0  0  0  0  0  0  0  0  0  0  0  0
    2.4124    0.7858    0.4572 C   0  0  0  0  0  0  0  0  0  0  0  0
    2.5670   -0.6293    0.3751 C   0  0  0  0  0  0  0  0  0  0  0  0
    3.4165    1.5418   -0.2564 C   0  0  0  0  0  0  0  0  0  0  0  0
    3.7086   -1.0814   -0.4034 C   0  0  0  0  0  0  0  0  0  0  0  0
    1.5752    2.7543    0.6452 C   0  0  0  0  0  0  0  0  0  0  0  0
    0.0534    1.8543    3.1730 C   0  0  0  0  0  0  0  0  0  0  0  0
    2.2461   -2.7499    0.4759 C   0  0  0  0  0  0  0  0  0  0  0  0
    2.8138    2.8550   -0.0584 C   0  0  0  0  0  0  0  0  0  0  0  0
    4.5422    1.0913   -0.9384 C   0  0  0  0  0  0  0  0  0  0  0  0
    4.6794   -0.2863   -1.0085 C   0  0  0  0  0  0  0  0  0  0  0  0
    3.4199   -2.5171   -0.3004 C   0  0  0  0  0  0  0  0  0  0  0  0
    5.6350    1.7702   -1.6938 C   0  0  0  0  0  0  0  0  0  0  0  0
    0.7603    3.8968    0.7869 C   0  0  0  0  0  0  0  0  0  0  0  0
    5.8766   -0.5854   -1.7917 C   0  0  0  0  0  0  0  0  0  0  0  0
    1.7800   -4.0603    0.7137 C   0  0  0  0  0  0  0  0  0  0  0  0
    3.2280    4.1323   -0.5149 C   0  0  0  0  0  0  0  0  0  0  0  0
   -3.1030   -2.0698    0.3456 C   0  0  0  0  0  0  0  0  0  0  0  0
    4.0820   -3.6550   -0.8283 C   0  0  0  0  0  0  0  0  0  0  0  0
   -4.0071    0.1293    1.1562 C   0  0  0  0  0  0  0  0  0  0  0  0
   -1.9267    0.7610   -0.9872 C   0  0  0  0  0  0  0  0  0  0  0  0
    1.2016    5.1349    0.3131 C   0  0  0  0  0  0  0  0  0  0  0  0
    2.4285    5.2572   -0.3159 C   0  0  0  0  0  0  0  0  0  0  0  0
    2.4681   -5.1457    0.1737 C   0  0  0  0  0  0  0  0  0  0  0  0
    3.6057   -4.9472   -0.5895 C   0  0  0  0  0  0  0  0  0  0  0  0
   -5.2875   -0.1813    0.5005 C   0  0  0  0  0  0  0  0  0  0  0  0
   -5.5030    0.1975   -0.8245 C   0  0  0  0  0  0  0  0  0  0  0  0
   -6.2860   -0.8542    1.2049 C   0  0  0  0  0  0  0  0  0  0  0  0
   -6.7170   -0.0968   -1.4455 C   0  0  0  0  0  0  0  0  0  0  0  0
   -7.5000   -1.1482    0.5841 C   0  0  0  0  0  0  0  0  0  0  0  0
   -7.7154   -0.7697   -0.7412 C   0  0  0  0  0  0  0  0  0  0  0  0
   -1.6296    1.5856    1.3133 H   0  0  0  0  0  0  0  0  0  0  0  0
    0.9643   -2.1974    2.6949 H   0  0  0  0  0  0  0  0  0  0  0  0
   -1.8847   -0.4608    2.7812 H   0  0  0  0  0  0  0  0  0  0  0  0
   -1.0927   -2.6241    2.0553 H   0  0  0  0  0  0  0  0  0  0  0  0
   -0.6700   -2.0739    0.4417 H   0  0  0  0  0  0  0  0  0  0  0  0
   -0.5144    1.3159    3.9429 H   0  0  0  0  0  0  0  0  0  0  0  0
   -0.5192    2.7522    2.9387 H   0  0  0  0  0  0  0  0  0  0  0  0
    0.9942    2.1624    3.6456 H   0  0  0  0  0  0  0  0  0  0  0  0
    5.2621    2.3333   -2.5528 H   0  0  0  0  0  0  0  0  0  0  0  0
    6.2650    2.3888   -1.0503 H   0  0  0  0  0  0  0  0  0  0  0  0
   -0.2218    3.8414    1.2411 H   0  0  0  0  0  0  0  0  0  0  0  0
    0.8896   -4.2376    1.3100 H   0  0  0  0  0  0  0  0  0  0  0  0
    4.1678    4.2438   -1.0498 H   0  0  0  0  0  0  0  0  0  0  0  0
   -2.4072   -2.1368   -0.4932 H   0  0  0  0  0  0  0  0  0  0  0  0
   -4.0966   -2.1924   -0.0880 H   0  0  0  0  0  0  0  0  0  0  0  0
   -2.9769   -2.9105    1.0341 H   0  0  0  0  0  0  0  0  0  0  0  0
    4.9746   -3.5487   -1.4343 H   0  0  0  0  0  0  0  0  0  0  0  0
    7.2508    0.7376   -2.7293 H   0  0  0  0  0  0  0  0  0  0  0  0
   -1.5745    1.1621   -1.9448 H   0  0  0  0  0  0  0  0  0  0  0  0
   -2.5792    1.5326   -0.5722 H   0  0  0  0  0  0  0  0  0  0  0  0
   -2.4453   -0.1557   -1.2526 H   0  0  0  0  0  0  0  0  0  0  0  0
    0.5693    6.0103    0.4366 H   0  0  0  0  0  0  0  0  0  0  0  0
    2.7589    6.2257   -0.6804 H   0  0  0  0  0  0  0  0  0  0  0  0
    2.1069   -6.1544    0.3546 H   0  0  0  0  0  0  0  0  0  0  0  0
    4.1338   -5.8000   -1.0070 H   0  0  0  0  0  0  0  0  0  0  0  0
   -4.7204    0.7308   -1.3552 H   0  0  0  0  0  0  0  0  0  0  0  0
   -6.1281   -1.1541    2.2376 H   0  0  0  0  0  0  0  0  0  0  0  0
   -8.2772   -1.6722    1.1328 H   0  0  0  0  0  0  0  0  0  0  0  0
   -8.6734   -1.0156   -1.1921 H   0  0  0  0  0  0  0  0  0  0  0  0
  1 12  1  0  0  0  0
  1 14  1  0  0  0  0
  2 13  1  0  0  0  0
  2 36  1  0  0  0  0
  3 30  2  0  0  0  0
  4 35  2  0  0  0  0
  5 11  1  0  0  0  0
  6 11  2  0  0  0  0
  7 12  1  0  0  0  0
  7 17  1  0  0  0  0
  7 21  1  0  0  0  0
  8 14  1  0  0  0  0
  8 18  1  0  0  0  0
  8 23  1  0  0  0  0
  9 15  1  0  0  0  0
  9 33  1  0  0  0  0
  9 35  1  0  0  0  0
 10 28  1  0  0  0  0
 10 30  1  0  0  0  0
 10 64  1  0  0  0  0
 11 44  1  0  0  0  0
 12 13  1  0  0  0  0
 12 22  1  0  0  0  0
 13 15  1  0  0  0  0
 13 47  1  0  0  0  0
 14 16  1  0  0  0  0
 14 48  1  0  0  0  0
 15 16  1  0  0  0  0
 15 49  1  0  0  0  0
 16 50  1  0  0  0  0
 16 51  1  0  0  0  0
 17 18  2  0  0  0  0
 17 19  1  0  0  0  0
 18 20  1  0  0  0  0
 19 24  1  0  0  0  0
 19 25  2  0  0  0  0
 20 26  2  0  0  0  0
 20 27  1  0  0  0  0
 21 24  1  0  0  0  0
 21 29  2  0  0  0  0
 22 52  1  0  0  0  0
 22 53  1  0  0  0  0
 22 54  1  0  0  0  0
 23 27  1  0  0  0  0
 23 31  2  0  0  0  0
 24 32  2  0  0  0  0
 25 26  1  0  0  0  0
 25 28  1  0  0  0  0
 26 30  1  0  0  0  0
 27 34  2  0  0  0  0
 28 55  1  0  0  0  0
 28 56  1  0  0  0  0
 29 37  1  0  0  0  0
 29 57  1  0  0  0  0
 31 39  1  0  0  0  0
 31 58  1  0  0  0  0
 32 38  1  0  0  0  0
 32 59  1  0  0  0  0
 33 60  1  0  0  0  0
 33 61  1  0  0  0  0
 33 62  1  0  0  0  0
 34 40  1  0  0  0  0
 34 63  1  0  0  0  0
 35 41  1  0  0  0  0
 36 65  1  0  0  0  0
 36 66  1  0  0  0  0
 36 67  1  0  0  0  0
 37 38  2  0  0  0  0
 37 68  1  0  0  0  0
 38 69  1  0  0  0  0
 39 40  2  0  0  0  0
 39 70  1  0  0  0  0
 40 71  1  0  0  0  0
 41 42  2  0  0  0  0
 41 43  1  0  0  0  0
 42 44  1  0  0  0  0
 42 72  1  0  0  0  0
 43 45  2  0  0  0  0
 43 73  1  0  0  0  0
 44 46  2  0  0  0  0
 45 46  1  0  0  0  0
 45 74  1  0  0  0  0
 46 75  1  0  0  0  0
M  CHG  2   5  -1  11   1
M  END
> <PUBCHEM_COMPOUND_CID>
44352930

> <PUBCHEM_CONFORMER_RMSD>
1

> <PUBCHEM_CONFORMER_DIVERSEORDER>
1
10
5
14
11
4
13
8
2
7
3
12
6
9

> <PUBCHEM_MMFF94_PARTIAL_CHARGES>
55
1 -0.56
10 -0.73
11 0.91
12 0.54
13 0.28
14 0.54
15 0.3
17 -0.05
18 -0.05
19 -0.01
2 -0.56
20 -0.01
21 -0.15
23 -0.15
25 -0.14
26 0.09
28 0.44
29 -0.15
3 -0.57
30 0.54
31 -0.15
32 -0.15
33 0.3
34 -0.15
35 0.54
36 0.28
37 -0.15
38 -0.15
39 -0.15
4 -0.57
40 -0.15
41 0.09
42 -0.15
43 -0.15
44 0.13
45 -0.15
46 -0.15
5 -0.52
57 0.15
58 0.15
59 0.15
6 -0.52
63 0.15
64 0.37
68 0.15
69 0.15
7 -0.04
70 0.15
71 0.15
72 0.15
73 0.15
74 0.15
75 0.15
8 -0.04
9 -0.66

> <PUBCHEM_EFFECTIVE_ROTOR_COUNT>
6.2

> <PUBCHEM_PHARMACOPHORE_FEATURES>
19
1 1 acceptor
1 10 donor
1 2 acceptor
1 3 acceptor
1 4 acceptor
1 5 acceptor
1 5 anion
1 6 acceptor
1 7 cation
1 8 cation
5 10 25 26 28 30 rings
5 7 17 19 21 24 rings
5 8 18 20 23 27 rings
6 1 12 13 14 15 16 rings
6 17 18 19 20 25 26 rings
6 21 24 29 32 37 38 rings
6 23 27 31 34 39 40 rings
6 41 42 43 44 45 46 rings
7 1 7 8 12 14 17 18 rings

> <PUBCHEM_HEAVY_ATOM_COUNT>
46

> <PUBCHEM_ATOM_DEF_STEREO_COUNT>
4

> <PUBCHEM_ATOM_UDEF_STEREO_COUNT>
0

> <PUBCHEM_BOND_DEF_STEREO_COUNT>
0

> <PUBCHEM_BOND_UDEF_STEREO_COUNT>
0

> <PUBCHEM_ISOTOPIC_ATOM_COUNT>
0

> <PUBCHEM_COMPONENT_COUNT>
1

> <PUBCHEM_CACTVS_TAUTO_COUNT>
2

> <PUBCHEM_CONFORMER_ID>
02A4C5A200000001

> <PUBCHEM_MMFF94_ENERGY>
217.1161

> <PUBCHEM_FEATURE_SELFOVERLAP>
97.466

> <PUBCHEM_SHAPE_FINGERPRINT>
10556698 54 17825359935824743021
10622 236 18057886840514508355
10675989 125 18340778146809769984
10693767 8 18129955490009408814
10930396 42 18341038711025267256
11115154 58 17917722275163969729
11135609 149 18196915708979313413
11135926 11 18338253603951474722
1361 2 18339933709263098450
13911987 19 18118998938574912780
14068700 675 17988656159854839656
14415360 78 18194122056450943300
15082195 135 18339911723669031475
15324884 4 17537460765543298880
15328829 1 17559702601841412219
15439362 3 18052266386308605600
15444296 8 17550403838473546518
15484559 13 18411706508568550350
15950262 2 15359411725399217006
15968369 26 17627500872200710520
19319366 153 18129378370399344825
20775438 99 17914045654177360812
21133410 171 17536849114829562506
21792965 68 15574725715886017476
21968339 14 18261103054636292722
22121540 332 17531790429475476469
23559900 14 18269280221348740921
23569914 152 17616222825611358743
24771750 20 17900843830552144893
3388396 114 18193861275074421198
3504750 166 16603498828439155538
376196 1 17898844918581387361
3882209 13 17972586690109568602
3918712 181 15864617407210409509
4066623 53 18114455644421975132
42767 46 16845565431687868239
4353968 344 18124049932101306534
46194498 28 18334290989961946993
57527306 92 15864355817431307404
6004065 56 18340214080702577160

> <PUBCHEM_SHAPE_MULTIPOLES>
886.54
17.18
5.98
2.5
34.61
0.64
0.86
-3.92
15.86
-11.12
-0.3
3.15
0.54
0.8

> <PUBCHEM_SHAPE_SELFOVERLAP>
2036.117

> <PUBCHEM_SHAPE_VOLUME>
455

> <PUBCHEM_COORDINATE_TYPE>
2
5
10

$$$$
