24905222
  -OEChem-10052115143D

 45 49  0     0  0  0  0  0  0999 V2000
   -2.4387   -0.2338    0.0119 N   0  0  0  0  0  0  0  0  0  0  0  0
   -1.2343   -0.8288    0.0968 N   0  0  0  0  0  0  0  0  0  0  0  0
   -3.4033    1.9834   -0.1133 N   0  0  0  0  0  0  0  0  0  0  0  0
    5.0928   -0.7623    0.1852 N   0  0  0  0  0  0  0  0  0  0  0  0
   -1.6874    3.7169   -0.0768 N   0  0  0  0  0  0  0  0  0  0  0  0
    0.6432    3.2219    0.0649 N   0  0  0  0  0  0  0  0  0  0  0  0
   -3.6890   -1.0837   -0.0283 C   0  0  0  0  0  0  0  0  0  0  0  0
   -3.8918   -1.9828    1.2091 C   0  0  0  0  0  0  0  0  0  0  0  0
   -3.7193   -2.0315   -1.2407 C   0  0  0  0  0  0  0  0  0  0  0  0
   -3.8734   -3.4155    0.6882 C   0  0  0  0  0  0  0  0  0  0  0  0
   -4.4030   -3.2906   -0.7295 C   0  0  0  0  0  0  0  0  0  0  0  0
   -2.3727    1.1272   -0.0291 C   0  0  0  0  0  0  0  0  0  0  0  0
   -1.0277    1.4464    0.0336 C   0  0  0  0  0  0  0  0  0  0  0  0
   -0.3792    0.1997    0.1096 C   0  0  0  0  0  0  0  0  0  0  0  0
    1.0338   -0.0475    0.1947 C   0  0  0  0  0  0  0  0  0  0  0  0
   -0.6964    2.7970    0.0072 C   0  0  0  0  0  0  0  0  0  0  0  0
    1.7777   -0.2058   -0.9800 C   0  0  0  0  0  0  0  0  0  0  0  0
    3.1629   -0.4478   -0.8890 C   0  0  0  0  0  0  0  0  0  0  0  0
    1.6471   -0.1267    1.4435 C   0  0  0  0  0  0  0  0  0  0  0  0
    3.7508   -0.5218    0.3757 C   0  0  0  0  0  0  0  0  0  0  0  0
    3.0196   -0.3656    1.5586 C   0  0  0  0  0  0  0  0  0  0  0  0
   -2.9611    3.2594   -0.1310 C   0  0  0  0  0  0  0  0  0  0  0  0
    4.1984   -0.6526   -1.8434 C   0  0  0  0  0  0  0  0  0  0  0  0
    5.3729   -0.8430   -1.1525 C   0  0  0  0  0  0  0  0  0  0  0  0
    6.0780   -0.9119    1.2346 C   0  0  0  0  0  0  0  0  0  0  0  0
   -4.5196   -0.3703   -0.0925 H   0  0  0  0  0  0  0  0  0  0  0  0
   -4.8740   -1.7700    1.6488 H   0  0  0  0  0  0  0  0  0  0  0  0
   -3.1424   -1.8274    1.9916 H   0  0  0  0  0  0  0  0  0  0  0  0
   -2.7103   -2.2760   -1.5928 H   0  0  0  0  0  0  0  0  0  0  0  0
   -4.2603   -1.5905   -2.0842 H   0  0  0  0  0  0  0  0  0  0  0  0
   -4.4785   -4.0880    1.3028 H   0  0  0  0  0  0  0  0  0  0  0  0
   -2.8452   -3.7961    0.6752 H   0  0  0  0  0  0  0  0  0  0  0  0
   -4.1699   -4.1669   -1.3408 H   0  0  0  0  0  0  0  0  0  0  0  0
   -5.4910   -3.1556   -0.7203 H   0  0  0  0  0  0  0  0  0  0  0  0
    1.3023   -0.1443   -1.9559 H   0  0  0  0  0  0  0  0  0  0  0  0
    1.0643   -0.0025    2.3544 H   0  0  0  0  0  0  0  0  0  0  0  0
    3.4911   -0.4257    2.5337 H   0  0  0  0  0  0  0  0  0  0  0  0
   -3.7295    4.0221   -0.1978 H   0  0  0  0  0  0  0  0  0  0  0  0
    4.0964   -0.6599   -2.9199 H   0  0  0  0  0  0  0  0  0  0  0  0
    6.3779   -1.0283   -1.5074 H   0  0  0  0  0  0  0  0  0  0  0  0
    1.4027    2.5601    0.1282 H   0  0  0  0  0  0  0  0  0  0  0  0
    0.8401    4.2136    0.0435 H   0  0  0  0  0  0  0  0  0  0  0  0
    6.1018    0.0112    1.8192 H   0  0  0  0  0  0  0  0  0  0  0  0
    5.7892   -1.7603    1.8602 H   0  0  0  0  0  0  0  0  0  0  0  0
    7.0608   -1.0955    0.7929 H   0  0  0  0  0  0  0  0  0  0  0  0
  1  2  1  0  0  0  0
  1  7  1  0  0  0  0
  1 12  1  0  0  0  0
  2 14  2  0  0  0  0
  3 12  2  0  0  0  0
  3 22  1  0  0  0  0
  4 20  1  0  0  0  0
  4 24  1  0  0  0  0
  4 25  1  0  0  0  0
  5 16  1  0  0  0  0
  5 22  2  0  0  0  0
  6 16  1  0  0  0  0
  6 41  1  0  0  0  0
  6 42  1  0  0  0  0
  7  8  1  0  0  0  0
  7  9  1  0  0  0  0
  7 26  1  0  0  0  0
  8 10  1  0  0  0  0
  8 27  1  0  0  0  0
  8 28  1  0  0  0  0
  9 11  1  0  0  0  0
  9 29  1  0  0  0  0
  9 30  1  0  0  0  0
 10 11  1  0  0  0  0
 10 31  1  0  0  0  0
 10 32  1  0  0  0  0
 11 33  1  0  0  0  0
 11 34  1  0  0  0  0
 12 13  1  0  0  0  0
 13 14  1  0  0  0  0
 13 16  2  0  0  0  0
 14 15  1  0  0  0  0
 15 17  2  0  0  0  0
 15 19  1  0  0  0  0
 17 18  1  0  0  0  0
 17 35  1  0  0  0  0
 18 20  2  0  0  0  0
 18 23  1  0  0  0  0
 19 21  2  0  0  0  0
 19 36  1  0  0  0  0
 20 21  1  0  0  0  0
 21 37  1  0  0  0  0
 22 38  1  0  0  0  0
 23 24  2  0  0  0  0
 23 39  1  0  0  0  0
 24 40  1  0  0  0  0
 25 43  1  0  0  0  0
 25 44  1  0  0  0  0
 25 45  1  0  0  0  0
M  END
> <PUBCHEM_COMPOUND_CID>
24905222

> <PUBCHEM_CONFORMER_RMSD>
0.6

> <PUBCHEM_CONFORMER_DIVERSEORDER>
2
15
8
4
11
16
10
7
12
3
9
13
6
5
14
1

> <PUBCHEM_MMFF94_PARTIAL_CHARGES>
27
1 0.31
12 0.11
14 0.23
15 0.05
16 0.41
17 -0.15
19 -0.15
2 -0.71
20 -0.15
21 -0.15
22 0.47
23 -0.15
24 -0.3
25 0.26
3 -0.57
35 0.15
36 0.15
37 0.15
38 0.15
39 0.15
4 0.05
40 0.15
41 0.4
42 0.4
5 -0.62
6 -0.9
7 0.26

> <PUBCHEM_EFFECTIVE_ROTOR_COUNT>
3

> <PUBCHEM_PHARMACOPHORE_FEATURES>
11
1 2 acceptor
1 4 cation
1 6 cation
1 6 donor
3 1 3 12 cation
3 3 5 22 cation
5 1 2 12 13 14 rings
5 4 18 20 23 24 rings
5 7 8 9 10 11 rings
6 15 17 18 19 20 21 rings
6 3 5 12 13 16 22 rings

> <PUBCHEM_HEAVY_ATOM_COUNT>
25

> <PUBCHEM_ATOM_DEF_STEREO_COUNT>
0

> <PUBCHEM_ATOM_UDEF_STEREO_COUNT>
0

> <PUBCHEM_BOND_DEF_STEREO_COUNT>
0

> <PUBCHEM_BOND_UDEF_STEREO_COUNT>
0

> <PUBCHEM_ISOTOPIC_ATOM_COUNT>
0

> <PUBCHEM_COMPONENT_COUNT>
1

> <PUBCHEM_CACTVS_TAUTO_COUNT>
5

> <PUBCHEM_CONFORMER_ID>
017C060600000002

> <PUBCHEM_MMFF94_ENERGY>
56.4127

> <PUBCHEM_FEATURE_SELFOVERLAP>
56.195

> <PUBCHEM_SHAPE_FINGERPRINT>
10319926 262 18197196102531828898
10369192 42 17057225955673596376
10411042 1 18338515373829097571
11056379 131 18338525148694453166
11069576 57 16761956634634651351
11370993 144 16916519068263600699
11796584 16 18126288533121755486
12236239 1 17531816736129214024
12363563 72 18337955722268271171
12553582 1 18335702793010127739
12616971 3 17095812010321080612
12623949 98 17416131804606427158
12714826 92 18201722838166671443
12788726 201 18260272966233421442
13140716 1 18411983598430884465
13583140 156 17916573251189809326
14251757 5 18334010580337579527
14790565 3 17835245545442867057
14844126 61 18408601444533735315
15042514 8 18410300181619444345
15131766 46 15577572363752506053
15250474 111 18116141187152867658
15842332 3 17677604268431935570
16087824 20 18337951174889922165
17138139 8 17460025399772618850
17349148 13 17749112192777165874
17539 30 18411694379569850517
1813 80 18198911481640168951
18222031 100 18199184164892898623
18927931 339 18411984654280734734
20101258 96 18337122240819656313
20505436 4 17606979286442335376
20775438 99 17038934612824635979
21033648 29 17417515943790300762
21033650 10 18120119224806414478
21065201 7 18270116808501620682
21728266 224 18334285445112110866
23402539 116 18261110747254795254
23557571 272 18272368633610362512
23559900 14 18339913904953047305
255183 451 18052827137380904239
314173 85 18341897432709367875
495365 180 12757415194587743816
5104073 3 18342455946172452856
621550 5 17917719027767299152
6673363 416 18267880548550311996
7471813 234 18261955262184100980
7495541 125 18131632322677252738
7970288 3 18266459982693557567
84936 182 7852207902790157351

> <PUBCHEM_SHAPE_MULTIPOLES>
484.6
11.35
3.92
1.31
10.68
2.58
-0.03
-9.35
-0.38
-7.26
-0.12
1.28
-0.67
0.12

> <PUBCHEM_SHAPE_SELFOVERLAP>
1087.256

> <PUBCHEM_SHAPE_VOLUME>
257.6

> <PUBCHEM_COORDINATE_TYPE>
2
5
10

$$$$
