44318001
  -OEChem-10062122043D

 68 73  0     1  0  0  0  0  0999 V2000
   -3.2919   -2.1441   -0.6258 O   0  0  0  0  0  0  0  0  0  0  0  0
    0.9459    1.5301   -0.2992 O   0  0  0  0  0  0  0  0  0  0  0  0
   -0.9781   -0.2798   -2.8491 O   0  0  0  0  0  0  0  0  0  0  0  0
    2.1136    3.4730    1.4777 O   0  0  0  0  0  0  0  0  0  0  0  0
   -3.7253    1.8425   -1.0813 O   0  0  0  0  0  0  0  0  0  0  0  0
   -1.1335    5.8216   -1.1550 O   0  0  0  0  0  0  0  0  0  0  0  0
   -1.4522    1.4418    2.0860 O   0  0  0  0  0  0  0  0  0  0  0  0
   -4.8385   -1.4328    3.7774 O   0  0  0  0  0  0  0  0  0  0  0  0
    0.9069   -4.4055    1.1345 O   0  0  0  0  0  0  0  0  0  0  0  0
    2.1284   -5.4509   -1.1328 O   0  0  0  0  0  0  0  0  0  0  0  0
    3.8651   -1.1782    2.6970 O   0  0  0  0  0  0  0  0  0  0  0  0
    6.3080   -1.3174    1.3787 O   0  0  0  0  0  0  0  0  0  0  0  0
   -1.4729    0.1889   -0.5187 C   0  0  1  0  0  0  0  0  0  0  0  0
   -1.9582   -0.4517   -1.8300 C   0  0  2  0  0  0  0  0  0  0  0  0
   -1.3644    1.7028   -0.6872 C   0  0  0  0  0  0  0  0  0  0  0  0
   -2.3020   -1.9389   -1.6455 C   0  0  1  0  0  0  0  0  0  0  0  0
   -2.3663   -0.2486    0.6276 C   0  0  0  0  0  0  0  0  0  0  0  0
   -0.1257    2.3393   -0.5757 C   0  0  0  0  0  0  0  0  0  0  0  0
   -0.0305    3.7304   -0.7081 C   0  0  0  0  0  0  0  0  0  0  0  0
    2.3378    3.5298    0.0682 C   0  0  1  0  0  0  0  0  0  0  0  0
    2.2317    2.1247   -0.5388 C   0  0  1  0  0  0  0  0  0  0  0  0
    1.2899    4.4392   -0.5704 C   0  0  0  0  0  0  0  0  0  0  0  0
   -3.2196   -1.3535    0.4915 C   0  0  0  0  0  0  0  0  0  0  0  0
   -2.5103    2.4477   -0.9615 C   0  0  0  0  0  0  0  0  0  0  0  0
   -1.1117   -2.8813   -1.5045 C   0  0  0  0  0  0  0  0  0  0  0  0
   -2.3194    0.4079    1.8702 C   0  0  0  0  0  0  0  0  0  0  0  0
   -1.1874    4.4680   -0.9941 C   0  0  0  0  0  0  0  0  0  0  0  0
   -2.4214    3.8290   -1.1191 C   0  0  0  0  0  0  0  0  0  0  0  0
    3.3211    1.2031   -0.0225 C   0  0  0  0  0  0  0  0  0  0  0  0
   -4.0552   -1.7401    1.5457 C   0  0  0  0  0  0  0  0  0  0  0  0
   -3.1459    0.0130    2.9233 C   0  0  0  0  0  0  0  0  0  0  0  0
   -0.6355   -3.2187   -0.2376 C   0  0  0  0  0  0  0  0  0  0  0  0
   -4.0214   -1.0550    2.7576 C   0  0  0  0  0  0  0  0  0  0  0  0
   -0.4994   -3.4066   -2.6423 C   0  0  0  0  0  0  0  0  0  0  0  0
    3.0964    0.4257    1.1137 C   0  0  0  0  0  0  0  0  0  0  0  0
    4.5466    1.1326   -0.6847 C   0  0  0  0  0  0  0  0  0  0  0  0
    0.4528   -4.0816   -0.1085 C   0  0  0  0  0  0  0  0  0  0  0  0
    0.5891   -4.2693   -2.5132 C   0  0  0  0  0  0  0  0  0  0  0  0
    1.0652   -4.6069   -1.2463 C   0  0  0  0  0  0  0  0  0  0  0  0
    4.0974   -0.4222    1.5877 C   0  0  0  0  0  0  0  0  0  0  0  0
    5.5477    0.2848   -0.2106 C   0  0  0  0  0  0  0  0  0  0  0  0
    5.3231   -0.4927    0.9255 C   0  0  0  0  0  0  0  0  0  0  0  0
   -0.4838   -0.2302   -0.2981 H   0  0  0  0  0  0  0  0  0  0  0  0
   -2.8715    0.0283   -2.1939 H   0  0  0  0  0  0  0  0  0  0  0  0
   -2.8074   -2.2563   -2.5687 H   0  0  0  0  0  0  0  0  0  0  0  0
    3.3383    3.9510   -0.0845 H   0  0  0  0  0  0  0  0  0  0  0  0
    2.3482    2.1868   -1.6309 H   0  0  0  0  0  0  0  0  0  0  0  0
    1.6234    4.7334   -1.5730 H   0  0  0  0  0  0  0  0  0  0  0  0
    1.1662    5.3434    0.0372 H   0  0  0  0  0  0  0  0  0  0  0  0
   -3.3148    4.4092   -1.3375 H   0  0  0  0  0  0  0  0  0  0  0  0
   -1.3369   -0.6610   -3.6684 H   0  0  0  0  0  0  0  0  0  0  0  0
   -4.7213   -2.5908    1.4190 H   0  0  0  0  0  0  0  0  0  0  0  0
   -3.1108    0.5335    3.8773 H   0  0  0  0  0  0  0  0  0  0  0  0
   -1.0879   -2.8279    0.6657 H   0  0  0  0  0  0  0  0  0  0  0  0
   -0.8599   -3.1538   -3.6357 H   0  0  0  0  0  0  0  0  0  0  0  0
    2.2098    4.3755    1.8265 H   0  0  0  0  0  0  0  0  0  0  0  0
    2.1473    0.4792    1.6413 H   0  0  0  0  0  0  0  0  0  0  0  0
    4.7344    1.7347   -1.5696 H   0  0  0  0  0  0  0  0  0  0  0  0
   -4.4000    2.5166   -1.2711 H   0  0  0  0  0  0  0  0  0  0  0  0
   -2.0261    6.1570   -1.3462 H   0  0  0  0  0  0  0  0  0  0  0  0
   -1.5604    1.7673    2.9960 H   0  0  0  0  0  0  0  0  0  0  0  0
    1.0567   -4.6715   -3.4081 H   0  0  0  0  0  0  0  0  0  0  0  0
    6.4980    0.2400   -0.7359 H   0  0  0  0  0  0  0  0  0  0  0  0
   -5.3768   -2.1893    3.4873 H   0  0  0  0  0  0  0  0  0  0  0  0
    0.3654   -3.9487    1.8008 H   0  0  0  0  0  0  0  0  0  0  0  0
    2.4211   -5.7129   -2.0226 H   0  0  0  0  0  0  0  0  0  0  0  0
    2.9642   -1.0021    3.0185 H   0  0  0  0  0  0  0  0  0  0  0  0
    7.0829   -1.2349    0.7967 H   0  0  0  0  0  0  0  0  0  0  0  0
  1 16  1  0  0  0  0
  1 23  1  0  0  0  0
  2 18  1  0  0  0  0
  2 21  1  0  0  0  0
  3 14  1  0  0  0  0
  3 51  1  0  0  0  0
  4 20  1  0  0  0  0
  4 56  1  0  0  0  0
  5 24  1  0  0  0  0
  5 59  1  0  0  0  0
  6 27  1  0  0  0  0
  6 60  1  0  0  0  0
  7 26  1  0  0  0  0
  7 61  1  0  0  0  0
  8 33  1  0  0  0  0
  8 64  1  0  0  0  0
  9 37  1  0  0  0  0
  9 65  1  0  0  0  0
 10 39  1  0  0  0  0
 10 66  1  0  0  0  0
 11 40  1  0  0  0  0
 11 67  1  0  0  0  0
 12 42  1  0  0  0  0
 12 68  1  0  0  0  0
 13 14  1  0  0  0  0
 13 15  1  0  0  0  0
 13 17  1  0  0  0  0
 13 43  1  0  0  0  0
 14 16  1  0  0  0  0
 14 44  1  0  0  0  0
 15 18  1  0  0  0  0
 15 24  2  0  0  0  0
 16 25  1  0  0  0  0
 16 45  1  0  0  0  0
 17 23  1  0  0  0  0
 17 26  2  0  0  0  0
 18 19  2  0  0  0  0
 19 22  1  0  0  0  0
 19 27  1  0  0  0  0
 20 21  1  0  0  0  0
 20 22  1  0  0  0  0
 20 46  1  0  0  0  0
 21 29  1  0  0  0  0
 21 47  1  0  0  0  0
 22 48  1  0  0  0  0
 22 49  1  0  0  0  0
 23 30  2  0  0  0  0
 24 28  1  0  0  0  0
 25 32  2  0  0  0  0
 25 34  1  0  0  0  0
 26 31  1  0  0  0  0
 27 28  2  0  0  0  0
 28 50  1  0  0  0  0
 29 35  2  0  0  0  0
 29 36  1  0  0  0  0
 30 33  1  0  0  0  0
 30 52  1  0  0  0  0
 31 33  2  0  0  0  0
 31 53  1  0  0  0  0
 32 37  1  0  0  0  0
 32 54  1  0  0  0  0
 34 38  2  0  0  0  0
 34 55  1  0  0  0  0
 35 40  1  0  0  0  0
 35 57  1  0  0  0  0
 36 41  2  0  0  0  0
 36 58  1  0  0  0  0
 37 39  2  0  0  0  0
 38 39  1  0  0  0  0
 38 62  1  0  0  0  0
 40 42  2  0  0  0  0
 41 42  1  0  0  0  0
 41 63  1  0  0  0  0
M  END
> <PUBCHEM_COMPOUND_CID>
44318001

> <PUBCHEM_CONFORMER_RMSD>
1

> <PUBCHEM_CONFORMER_DIVERSEORDER>
5
65
8
18
48
17
30
59
75
26
56
62
46
29
54
37
6
40
58
21
13
71
66
72
36
31
23
19
43
9
49
63
38
60
2
35
11
7
67
44
39
61
47
74
57
64
1
27
55
12
73
68
14
53
4
28
41
20
52
10
51
15
69
24
50
3
70
42
25
34
45
32
16
33
22

> <PUBCHEM_MMFF94_PARTIAL_CHARGES>
61
1 -0.36
10 -0.53
11 -0.53
12 -0.53
13 0.29
14 0.28
15 -0.14
16 0.42
17 -0.14
18 0.08
19 -0.14
2 -0.36
20 0.28
21 0.42
22 0.14
23 0.08
24 0.08
25 -0.14
26 0.08
27 0.08
28 -0.15
29 -0.14
3 -0.68
30 -0.15
31 -0.15
32 -0.15
33 0.08
34 -0.15
35 -0.15
36 -0.15
37 0.08
38 -0.15
39 0.08
4 -0.68
40 0.08
41 -0.15
42 0.08
5 -0.53
50 0.15
51 0.4
52 0.15
53 0.15
54 0.15
55 0.15
56 0.4
57 0.15
58 0.15
59 0.45
6 -0.53
60 0.45
61 0.45
62 0.15
63 0.15
64 0.45
65 0.45
66 0.45
67 0.45
68 0.45
7 -0.53
8 -0.53
9 -0.53

> <PUBCHEM_EFFECTIVE_ROTOR_COUNT>
4.6

> <PUBCHEM_PHARMACOPHORE_FEATURES>
20
1 1 acceptor
1 10 donor
1 11 donor
1 12 donor
1 2 acceptor
1 3 acceptor
1 3 donor
1 4 acceptor
1 4 donor
1 5 donor
1 6 donor
1 7 donor
1 8 donor
1 9 donor
6 1 13 14 16 17 23 rings
6 15 18 19 24 27 28 rings
6 17 23 26 30 31 33 rings
6 2 18 19 20 21 22 rings
6 25 32 34 37 38 39 rings
6 29 35 36 40 41 42 rings

> <PUBCHEM_HEAVY_ATOM_COUNT>
42

> <PUBCHEM_ATOM_DEF_STEREO_COUNT>
3

> <PUBCHEM_ATOM_UDEF_STEREO_COUNT>
2

> <PUBCHEM_BOND_DEF_STEREO_COUNT>
0

> <PUBCHEM_BOND_UDEF_STEREO_COUNT>
0

> <PUBCHEM_ISOTOPIC_ATOM_COUNT>
0

> <PUBCHEM_COMPONENT_COUNT>
1

> <PUBCHEM_CACTVS_TAUTO_COUNT>
986

> <PUBCHEM_CONFORMER_ID>
02A43D3100000005

> <PUBCHEM_MMFF94_ENERGY>
137.4172

> <PUBCHEM_FEATURE_SELFOVERLAP>
101.581

> <PUBCHEM_SHAPE_FINGERPRINT>
10928967 22 18338237171727924598
12156800 1 16666034814756314625
14279260 333 17678161708665399434
14844126 61 18192967418912375448
15484559 13 17465615137095652613
15775530 1 17976839596531920813
17974551 9 16986887962706929448
19319366 153 17318191754611984156
20764821 26 18340765919607363070
21133410 221 17259600571397340946
21796203 349 18190766269837637112
3027735 51 18199726103607442783
3380486 77 18125436664627405255
3493558 16 14250339418174896273
463206 1 17830447646287317044
469060 322 18411979195725532435
5265222 85 18339636730151158220

> <PUBCHEM_SHAPE_MULTIPOLES>
793.91
8.6
7.82
2.86
8.66
0.86
-1.56
2.72
-6.66
1.32
5.03
-2.97
1.42
-1.22

> <PUBCHEM_SHAPE_SELFOVERLAP>
1787.637

> <PUBCHEM_SHAPE_VOLUME>
411.3

> <PUBCHEM_COORDINATE_TYPE>
2
5
10

$$$$
