24905344
  -OEChem-10052115153D

 38 40  0     0  0  0  0  0  0999 V2000
    4.5865   -0.6928   -2.0437 O   0  0  0  0  0  0  0  0  0  0  0  0
   -2.1657    0.9365   -0.1231 N   0  0  0  0  0  0  0  0  0  0  0  0
   -0.9255    1.4150    0.0883 N   0  0  0  0  0  0  0  0  0  0  0  0
   -3.3281   -1.1802   -0.2989 N   0  0  0  0  0  0  0  0  0  0  0  0
   -1.8118   -3.0688   -0.0074 N   0  0  0  0  0  0  0  0  0  0  0  0
    0.5242   -2.7964    0.4003 N   0  0  0  0  0  0  0  0  0  0  0  0
   -3.2588    1.8573   -0.3271 C   0  0  0  0  0  0  0  0  0  0  0  0
   -2.2331   -0.4251   -0.1167 C   0  0  0  0  0  0  0  0  0  0  0  0
   -0.9436   -0.8702    0.1156 C   0  0  0  0  0  0  0  0  0  0  0  0
   -0.1859    0.3100    0.2329 C   0  0  0  0  0  0  0  0  0  0  0  0
    1.2295    0.4226    0.4796 C   0  0  0  0  0  0  0  0  0  0  0  0
   -3.0506    2.7090   -1.5820 C   0  0  0  0  0  0  0  0  0  0  0  0
   -3.4862    2.7424    0.9008 C   0  0  0  0  0  0  0  0  0  0  0  0
   -0.7496   -2.2465    0.1681 C   0  0  0  0  0  0  0  0  0  0  0  0
    2.1235    0.4614   -0.5903 C   0  0  0  0  0  0  0  0  0  0  0  0
    1.7054    0.4929    1.7890 C   0  0  0  0  0  0  0  0  0  0  0  0
    3.4934    0.5705   -0.3510 C   0  0  0  0  0  0  0  0  0  0  0  0
    3.0752    0.6019    2.0284 C   0  0  0  0  0  0  0  0  0  0  0  0
   -3.0179   -2.4926   -0.2269 C   0  0  0  0  0  0  0  0  0  0  0  0
    3.9692    0.6408    0.9583 C   0  0  0  0  0  0  0  0  0  0  0  0
    4.4498    0.6121   -1.4945 C   0  0  0  0  0  0  0  0  0  0  0  0
   -4.1658    1.2597   -0.4783 H   0  0  0  0  0  0  0  0  0  0  0  0
   -2.1776    3.3643   -1.4868 H   0  0  0  0  0  0  0  0  0  0  0  0
   -3.9256    3.3401   -1.7702 H   0  0  0  0  0  0  0  0  0  0  0  0
   -2.8961    2.0749   -2.4620 H   0  0  0  0  0  0  0  0  0  0  0  0
   -2.6300    3.3989    1.0915 H   0  0  0  0  0  0  0  0  0  0  0  0
   -3.6434    2.1322    1.7972 H   0  0  0  0  0  0  0  0  0  0  0  0
   -4.3700    3.3742    0.7635 H   0  0  0  0  0  0  0  0  0  0  0  0
    1.7572    0.4060   -1.6135 H   0  0  0  0  0  0  0  0  0  0  0  0
    1.0217    0.4633    2.6342 H   0  0  0  0  0  0  0  0  0  0  0  0
    3.4458    0.6560    3.0478 H   0  0  0  0  0  0  0  0  0  0  0  0
    5.0338    0.7243    1.1599 H   0  0  0  0  0  0  0  0  0  0  0  0
   -3.8463   -3.1795   -0.3631 H   0  0  0  0  0  0  0  0  0  0  0  0
    4.0865    1.2910   -2.2739 H   0  0  0  0  0  0  0  0  0  0  0  0
    5.4387    0.9633   -1.1804 H   0  0  0  0  0  0  0  0  0  0  0  0
    1.3341   -2.2092    0.5342 H   0  0  0  0  0  0  0  0  0  0  0  0
    0.6211   -3.8026    0.4307 H   0  0  0  0  0  0  0  0  0  0  0  0
    5.2064   -0.6243   -2.7898 H   0  0  0  0  0  0  0  0  0  0  0  0
  1 21  1  0  0  0  0
  1 38  1  0  0  0  0
  2  3  1  0  0  0  0
  2  7  1  0  0  0  0
  2  8  1  0  0  0  0
  3 10  2  0  0  0  0
  4  8  2  0  0  0  0
  4 19  1  0  0  0  0
  5 14  1  0  0  0  0
  5 19  2  0  0  0  0
  6 14  1  0  0  0  0
  6 36  1  0  0  0  0
  6 37  1  0  0  0  0
  7 12  1  0  0  0  0
  7 13  1  0  0  0  0
  7 22  1  0  0  0  0
  8  9  1  0  0  0  0
  9 10  1  0  0  0  0
  9 14  2  0  0  0  0
 10 11  1  0  0  0  0
 11 15  1  0  0  0  0
 11 16  2  0  0  0  0
 12 23  1  0  0  0  0
 12 24  1  0  0  0  0
 12 25  1  0  0  0  0
 13 26  1  0  0  0  0
 13 27  1  0  0  0  0
 13 28  1  0  0  0  0
 15 17  2  0  0  0  0
 15 29  1  0  0  0  0
 16 18  1  0  0  0  0
 16 30  1  0  0  0  0
 17 20  1  0  0  0  0
 17 21  1  0  0  0  0
 18 20  2  0  0  0  0
 18 31  1  0  0  0  0
 19 33  1  0  0  0  0
 20 32  1  0  0  0  0
 21 34  1  0  0  0  0
 21 35  1  0  0  0  0
M  END
> <PUBCHEM_COMPOUND_CID>
24905344

> <PUBCHEM_CONFORMER_RMSD>
0.6

> <PUBCHEM_CONFORMER_DIVERSEORDER>
1
6
3
14
11
5
9
4
12
13
10
2
7
8

> <PUBCHEM_MMFF94_PARTIAL_CHARGES>
26
1 -0.68
10 0.23
11 0.05
14 0.41
15 -0.15
16 -0.15
17 -0.14
18 -0.15
19 0.47
2 0.31
20 -0.15
21 0.42
29 0.15
3 -0.71
30 0.15
31 0.15
32 0.15
33 0.15
36 0.4
37 0.4
38 0.4
4 -0.57
5 -0.62
6 -0.9
7 0.26
8 0.11

> <PUBCHEM_EFFECTIVE_ROTOR_COUNT>
3

> <PUBCHEM_PHARMACOPHORE_FEATURES>
11
1 1 acceptor
1 1 donor
1 3 acceptor
1 6 cation
1 6 donor
3 2 4 8 cation
3 4 5 19 cation
3 7 12 13 hydrophobe
5 2 3 8 9 10 rings
6 11 15 16 17 18 20 rings
6 4 5 8 9 14 19 rings

> <PUBCHEM_HEAVY_ATOM_COUNT>
21

> <PUBCHEM_ATOM_DEF_STEREO_COUNT>
0

> <PUBCHEM_ATOM_UDEF_STEREO_COUNT>
0

> <PUBCHEM_BOND_DEF_STEREO_COUNT>
0

> <PUBCHEM_BOND_UDEF_STEREO_COUNT>
0

> <PUBCHEM_ISOTOPIC_ATOM_COUNT>
0

> <PUBCHEM_COMPONENT_COUNT>
1

> <PUBCHEM_CACTVS_TAUTO_COUNT>
5

> <PUBCHEM_CONFORMER_ID>
017C068000000001

> <PUBCHEM_MMFF94_ENERGY>
48.8533

> <PUBCHEM_FEATURE_SELFOVERLAP>
56.099

> <PUBCHEM_SHAPE_FINGERPRINT>
10165383 225 18195544609590593185
1100329 8 17980196383782767835
11582403 64 16479025599174158664
11725454 13 16840454879623783664
11796584 16 18342461388349885270
12160290 23 18337940281913219411
12173636 292 18336816516294172661
12236239 1 17531514482179489568
12553582 1 18118962739936790867
12714826 92 18340211902483926890
12788726 201 18189334748125790379
13140716 1 18049435143987577051
13878862 14 17113247842572739001
14022347 108 17973155424877307971
15842332 3 17676474065068010984
16752209 62 18335690689348844379
16945 1 18337942506632510227
18186145 218 18131070411541694008
19049666 15 17989207049154581850
20510252 161 18270673298491874505
20642791 178 17473273071788194320
20645477 70 16630530639750437572
20693207 138 17916600863529053492
20739085 24 16471501345269229179
20871999 31 18339371854595136764
21065201 7 18412260662322791858
22112679 90 17894618280078477536
22907989 373 18338514265379246405
22943178 12 17988921214907534312
2334 1 18338505340780063539
23366157 5 17753039510625046467
23419403 2 16912253157080338921
23526113 38 17489296508216528928
23557571 272 18270677696844691336
23559900 14 18273217461709946668
23598291 2 17530955874416970264
2748010 2 18265895753297765583
312425 83 18044404732451434164
350125 39 18266458711798995075
3729539 64 17691430519751240918
458136 41 18051419470328382481
57527295 17 17345752975903210244
59755656 215 18343303652526228623
59755656 520 17845388656647257113
6049 1 17988644163557364624
633830 44 17845363371526322033
7615 1 17459169898332248040
77492 1 17531234089434421160
81228 2 18265608969546097217
84936 182 17696454201416483817
88987 49 18336252514274080776
9709674 26 18130222765586296574
9862522 239 17823963564030209885

> <PUBCHEM_SHAPE_MULTIPOLES>
401.4
7.98
3.12
1.51
5.5
1.33
0.03
-2.99
2.25
-4.74
0.21
1.89
-0.6
0.45

> <PUBCHEM_SHAPE_SELFOVERLAP>
875.626

> <PUBCHEM_SHAPE_VOLUME>
218

> <PUBCHEM_COORDINATE_TYPE>
2
5
10

$$$$
