49830804
  -OEChem-10052115193D

 25 27  0     0  0  0  0  0  0999 V2000
    2.9119   -0.0755   -1.2107 S   0  0  0  0  0  0  0  0  0  0  0  0
   -3.3862   -1.9305   -1.2290 O   0  0  0  0  0  0  0  0  0  0  0  0
    0.0959    1.1848    0.0672 N   0  0  0  0  0  0  0  0  0  0  0  0
   -2.2586    0.6746   -0.0220 N   0  0  0  0  0  0  0  0  0  0  0  0
    0.9215    2.2664    0.1448 N   0  0  0  0  0  0  0  0  0  0  0  0
   -3.4270   -1.9988    1.0958 N   0  0  0  0  0  0  0  0  0  0  0  0
    0.4531   -0.1741    0.0241 C   0  0  0  0  0  0  0  0  0  0  0  0
   -1.2446    1.5817    0.0439 C   0  0  0  0  0  0  0  0  0  0  0  0
    1.8628   -0.6043    0.0351 C   0  0  0  0  0  0  0  0  0  0  0  0
   -0.5151   -1.1045   -0.0420 C   0  0  0  0  0  0  0  0  0  0  0  0
   -1.8999   -0.5697   -0.0601 C   0  0  0  0  0  0  0  0  0  0  0  0
   -1.2475    2.9567    0.0998 C   0  0  0  0  0  0  0  0  0  0  0  0
    2.5070   -1.4139    0.9446 C   0  0  0  0  0  0  0  0  0  0  0  0
    0.1036    3.3170    0.1598 C   0  0  0  0  0  0  0  0  0  0  0  0
    3.8802   -1.6023    0.6145 C   0  0  0  0  0  0  0  0  0  0  0  0
   -2.9902   -1.5781   -0.1308 C   0  0  0  0  0  0  0  0  0  0  0  0
    4.2331   -0.9298   -0.5348 C   0  0  0  0  0  0  0  0  0  0  0  0
   -0.3432   -2.1723   -0.0863 H   0  0  0  0  0  0  0  0  0  0  0  0
   -2.1138    3.6022    0.0991 H   0  0  0  0  0  0  0  0  0  0  0  0
    2.0247   -1.8529    1.8092 H   0  0  0  0  0  0  0  0  0  0  0  0
    0.5319    4.3074    0.2158 H   0  0  0  0  0  0  0  0  0  0  0  0
    4.5740   -2.2004    1.1908 H   0  0  0  0  0  0  0  0  0  0  0  0
    5.2035   -0.8992   -1.0097 H   0  0  0  0  0  0  0  0  0  0  0  0
   -3.0335   -1.6454    1.9622 H   0  0  0  0  0  0  0  0  0  0  0  0
   -4.1682   -2.6866    1.1796 H   0  0  0  0  0  0  0  0  0  0  0  0
  1  9  1  0  0  0  0
  1 17  1  0  0  0  0
  2 16  2  0  0  0  0
  3  5  1  0  0  0  0
  3  7  1  0  0  0  0
  3  8  1  0  0  0  0
  4  8  1  0  0  0  0
  4 11  2  0  0  0  0
  5 14  2  0  0  0  0
  6 16  1  0  0  0  0
  6 24  1  0  0  0  0
  6 25  1  0  0  0  0
  7  9  1  0  0  0  0
  7 10  2  0  0  0  0
  8 12  2  0  0  0  0
  9 13  2  0  0  0  0
 10 11  1  0  0  0  0
 10 18  1  0  0  0  0
 11 16  1  0  0  0  0
 12 14  1  0  0  0  0
 12 19  1  0  0  0  0
 13 15  1  0  0  0  0
 13 20  1  0  0  0  0
 14 21  1  0  0  0  0
 15 17  2  0  0  0  0
 15 22  1  0  0  0  0
 17 23  1  0  0  0  0
M  END
> <PUBCHEM_COMPOUND_CID>
49830804

> <PUBCHEM_CONFORMER_RMSD>
0.6

> <PUBCHEM_CONFORMER_DIVERSEORDER>
1
12
3
7
5
10
9
6
2
11
4
8

> <PUBCHEM_MMFF94_PARTIAL_CHARGES>
25
1 -0.08
10 -0.14
11 0.44
12 -0.15
13 -0.15
14 0.14
15 -0.15
16 0.63
17 -0.11
18 0.15
19 0.15
2 -0.57
20 0.15
21 0.15
22 0.15
23 0.15
24 0.37
25 0.37
3 0.6
4 -0.58
5 -0.71
6 -0.8
7 0.01
8 -0.03
9 -0.01

> <PUBCHEM_EFFECTIVE_ROTOR_COUNT>
2

> <PUBCHEM_PHARMACOPHORE_FEATURES>
7
1 2 acceptor
1 4 acceptor
1 5 acceptor
1 6 donor
5 1 9 13 15 17 rings
5 3 5 8 12 14 rings
6 3 4 7 8 10 11 rings

> <PUBCHEM_HEAVY_ATOM_COUNT>
17

> <PUBCHEM_ATOM_DEF_STEREO_COUNT>
0

> <PUBCHEM_ATOM_UDEF_STEREO_COUNT>
0

> <PUBCHEM_BOND_DEF_STEREO_COUNT>
0

> <PUBCHEM_BOND_UDEF_STEREO_COUNT>
0

> <PUBCHEM_ISOTOPIC_ATOM_COUNT>
0

> <PUBCHEM_COMPONENT_COUNT>
1

> <PUBCHEM_CACTVS_TAUTO_COUNT>
2

> <PUBCHEM_CONFORMER_ID>
02F85B9400000001

> <PUBCHEM_MMFF94_ENERGY>
35.0516

> <PUBCHEM_FEATURE_SELFOVERLAP>
35.65

> <PUBCHEM_SHAPE_FINGERPRINT>
10616163 171 18266742368434910838
10967382 1 18122625230253407392
10989021 7 18341050825782459419
11578080 2 17605808418597441892
11680986 33 18340755031485653913
12173636 292 17690837865862009188
12553582 1 18411421747350988495
12707595 3 18336263565014274411
13140716 1 18412548704067381369
13538477 17 18189897505106057972
13583140 156 17485616331799794978
14178342 30 17973994069208805394
14787075 74 18117560841521070484
15042514 8 18193844747333280153
15279307 12 17756429262070746946
15375462 189 18261125074822609307
15669948 3 18193275200420900722
16945 1 18196373619576728964
1813 80 18200890563810082183
18222031 100 18130504240500269111
19591789 44 16895405477213838458
19868273 325 18411419488139486518
200 152 18113616777042646558
20097449 115 18411421751629436539
20361792 2 18342734165105127079
20510252 161 17911516493675718248
20645477 70 18051683649588116263
20671657 53 18340481278917825967
20871998 184 18201436917935765342
20871998 22 18340203110738820649
20905425 154 18342744056874050972
21029758 11 18410567431184494175
21029758 27 18338244859097152007
21041028 32 18339376252773432321
21296965 67 18412544335811093955
21452121 199 18339068401975451040
21524375 3 17333638384858060137
22112679 90 18270141070181045129
23184049 29 18411134723597862524
2334 1 18339359785510272313
23402539 116 18126831717155139141
23419403 2 17901628792029199284
23557571 272 18129382601432442812
23559900 14 17912076154628481414
23598294 1 18338238154700734442
257057 1 18339632421322897101
2748010 2 18340472461170710013
3071541 236 18048027467818028689
3071541 250 18266467674836442661
3091708 16 9064592116807419081
352729 6 17690556390768604219
458136 41 17397563372906729041
54173680 148 18266458711371473728
57096353 35 18187096057032405502
6049 1 17774994645097596522
7364860 26 17981607374838308273
7615 1 17895479107831266702
77492 1 17822862948917227934
81228 2 18268995284712694265
8863177 126 17753623631095054683
9709674 26 17983855575949850566

> <PUBCHEM_SHAPE_MULTIPOLES>
327.91
6.27
3.28
0.93
3.79
2.74
-0.1
-5.08
-0.36
-2.64
0.34
0.22
-0.37
-0.49

> <PUBCHEM_SHAPE_SELFOVERLAP>
713.007

> <PUBCHEM_SHAPE_VOLUME>
179.6

> <PUBCHEM_COORDINATE_TYPE>
2
5
10

$$$$
