46906669
  -OEChem-10052115143D

 58 62  0     1  0  0  0  0  0999 V2000
    3.6957   -1.2196   -2.2888 Cl  0  0  0  0  0  0  0  0  0  0  0  0
    4.6923   -1.4129    2.7065 F   0  0  0  0  0  0  0  0  0  0  0  0
    6.3282   -2.5205   -2.3954 F   0  0  0  0  0  0  0  0  0  0  0  0
   -5.6418   -0.4747   -0.0123 N   0  0  0  0  0  0  0  0  0  0  0  0
   -8.2238   -1.6688    0.2461 N   0  0  0  0  0  0  0  0  0  0  0  0
    3.0205    0.7436    0.3526 N   0  0  2  0  0  0  0  0  0  0  0  0
    3.2197    3.5127   -0.0879 N   0  0  0  0  0  0  0  0  0  0  0  0
   -3.3930   -0.5067    0.7268 N   0  0  0  0  0  0  0  0  0  0  0  0
    0.8773    3.6978   -0.2288 N   0  0  0  0  0  0  0  0  0  0  0  0
   -5.7661   -1.9246    0.1833 C   0  0  0  0  0  0  0  0  0  0  0  0
   -6.7790    0.3275    0.4492 C   0  0  0  0  0  0  0  0  0  0  0  0
   -7.1125   -2.4241   -0.3456 C   0  0  0  0  0  0  0  0  0  0  0  0
   -8.0933   -0.2452   -0.0872 C   0  0  0  0  0  0  0  0  0  0  0  0
    4.2563    1.4570    0.6711 C   0  0  0  0  0  0  0  0  0  0  0  0
   -4.3573    0.0804   -0.0170 C   0  0  0  0  0  0  0  0  0  0  0  0
    1.8723    1.5112    0.1570 C   0  0  0  0  0  0  0  0  0  0  0  0
    4.3966    2.6849   -0.2169 C   0  0  0  0  0  0  0  0  0  0  0  0
   -9.5065   -2.1904   -0.2245 C   0  0  0  0  0  0  0  0  0  0  0  0
    2.9465   -0.6780    0.6483 C   0  0  0  0  0  0  0  0  0  0  0  0
    1.9678    2.9043   -0.0559 C   0  0  0  0  0  0  0  0  0  0  0  0
    0.5799    0.9632    0.1432 C   0  0  0  0  0  0  0  0  0  0  0  0
   -0.5401    1.7651   -0.0449 C   0  0  0  0  0  0  0  0  0  0  0  0
   -1.8695    1.2011   -0.0522 C   0  0  0  0  0  0  0  0  0  0  0  0
   -4.1581    1.2116   -0.7919 C   0  0  0  0  0  0  0  0  0  0  0  0
    4.2660   -1.3435    0.3707 C   0  0  0  0  0  0  0  0  0  0  0  0
   -2.8876    1.7765   -0.8046 C   0  0  0  0  0  0  0  0  0  0  0  0
   -2.1711    0.0705    0.6897 C   0  0  0  0  0  0  0  0  0  0  0  0
   -0.3393    3.1165   -0.2206 C   0  0  0  0  0  0  0  0  0  0  0  0
    4.6816   -1.6254   -0.9306 C   0  0  0  0  0  0  0  0  0  0  0  0
    5.0821   -1.6777    1.4515 C   0  0  0  0  0  0  0  0  0  0  0  0
    5.9132   -2.2417   -1.1512 C   0  0  0  0  0  0  0  0  0  0  0  0
    6.3138   -2.2940    1.2309 C   0  0  0  0  0  0  0  0  0  0  0  0
    6.7294   -2.5762   -0.0705 C   0  0  0  0  0  0  0  0  0  0  0  0
   -5.6670   -2.1621    1.2503 H   0  0  0  0  0  0  0  0  0  0  0  0
   -4.9693   -2.4555   -0.3527 H   0  0  0  0  0  0  0  0  0  0  0  0
   -6.7011    1.3701    0.1208 H   0  0  0  0  0  0  0  0  0  0  0  0
   -6.7912    0.3359    1.5468 H   0  0  0  0  0  0  0  0  0  0  0  0
   -7.2058   -3.4878   -0.0949 H   0  0  0  0  0  0  0  0  0  0  0  0
   -7.1292   -2.3439   -1.4410 H   0  0  0  0  0  0  0  0  0  0  0  0
   -8.1421   -0.0949   -1.1743 H   0  0  0  0  0  0  0  0  0  0  0  0
   -8.9204    0.3212    0.3580 H   0  0  0  0  0  0  0  0  0  0  0  0
    4.2311    1.7558    1.7275 H   0  0  0  0  0  0  0  0  0  0  0  0
    5.1668    0.8714    0.5297 H   0  0  0  0  0  0  0  0  0  0  0  0
    4.5198    2.3864   -1.2652 H   0  0  0  0  0  0  0  0  0  0  0  0
    5.2830    3.2606    0.0690 H   0  0  0  0  0  0  0  0  0  0  0  0
  -10.3363   -1.6504    0.2449 H   0  0  0  0  0  0  0  0  0  0  0  0
   -9.6141   -2.1100   -1.3123 H   0  0  0  0  0  0  0  0  0  0  0  0
   -9.6191   -3.2435    0.0562 H   0  0  0  0  0  0  0  0  0  0  0  0
    2.6493   -0.8174    1.6954 H   0  0  0  0  0  0  0  0  0  0  0  0
    2.1885   -1.1980    0.0517 H   0  0  0  0  0  0  0  0  0  0  0  0
    3.2703    4.5079   -0.2655 H   0  0  0  0  0  0  0  0  0  0  0  0
    0.4516   -0.1067    0.2716 H   0  0  0  0  0  0  0  0  0  0  0  0
   -4.9466    1.6496   -1.3952 H   0  0  0  0  0  0  0  0  0  0  0  0
   -2.7256    2.6475   -1.4336 H   0  0  0  0  0  0  0  0  0  0  0  0
   -1.4475   -0.4279    1.3271 H   0  0  0  0  0  0  0  0  0  0  0  0
   -1.1522    3.8247   -0.3449 H   0  0  0  0  0  0  0  0  0  0  0  0
    6.9490   -2.5543    2.0724 H   0  0  0  0  0  0  0  0  0  0  0  0
    7.6883   -3.0561   -0.2424 H   0  0  0  0  0  0  0  0  0  0  0  0
  1 29  1  0  0  0  0
  2 30  1  0  0  0  0
  3 31  1  0  0  0  0
  4 10  1  0  0  0  0
  4 11  1  0  0  0  0
  4 15  1  0  0  0  0
  5 12  1  0  0  0  0
  5 13  1  0  0  0  0
  5 18  1  0  0  0  0
  6 14  1  0  0  0  0
  6 16  1  0  0  0  0
  6 19  1  0  0  0  0
  7 17  1  0  0  0  0
  7 20  1  0  0  0  0
  7 51  1  0  0  0  0
  8 15  2  0  0  0  0
  8 27  1  0  0  0  0
  9 20  1  0  0  0  0
  9 28  2  0  0  0  0
 10 12  1  0  0  0  0
 10 34  1  0  0  0  0
 10 35  1  0  0  0  0
 11 13  1  0  0  0  0
 11 36  1  0  0  0  0
 11 37  1  0  0  0  0
 12 38  1  0  0  0  0
 12 39  1  0  0  0  0
 13 40  1  0  0  0  0
 13 41  1  0  0  0  0
 14 17  1  0  0  0  0
 14 42  1  0  0  0  0
 14 43  1  0  0  0  0
 15 24  1  0  0  0  0
 16 20  2  0  0  0  0
 16 21  1  0  0  0  0
 17 44  1  0  0  0  0
 17 45  1  0  0  0  0
 18 46  1  0  0  0  0
 18 47  1  0  0  0  0
 18 48  1  0  0  0  0
 19 25  1  0  0  0  0
 19 49  1  0  0  0  0
 19 50  1  0  0  0  0
 21 22  2  0  0  0  0
 21 52  1  0  0  0  0
 22 23  1  0  0  0  0
 22 28  1  0  0  0  0
 23 26  1  0  0  0  0
 23 27  2  0  0  0  0
 24 26  2  0  0  0  0
 24 53  1  0  0  0  0
 25 29  1  0  0  0  0
 25 30  2  0  0  0  0
 26 54  1  0  0  0  0
 27 55  1  0  0  0  0
 28 56  1  0  0  0  0
 29 31  2  0  0  0  0
 30 32  1  0  0  0  0
 31 33  1  0  0  0  0
 32 33  2  0  0  0  0
 32 57  1  0  0  0  0
 33 58  1  0  0  0  0
M  END
> <PUBCHEM_COMPOUND_CID>
46906669

> <PUBCHEM_CONFORMER_RMSD>
0.8

> <PUBCHEM_CONFORMER_DIVERSEORDER>
1
69
27
100
90
120
114
91
67
77
64
99
61
37
9
106
104
47
55
3
34
117
79
85
60
112
124
36
92
42
101
31
39
109
5
25
74
7
62
87
118
98
4
8
54
24
108
22
26
102
86
15
17
97
14
95
13
45
73
75
88
81
23
121
6
41
11
66
63
123
30
105
59
48
10
12
115
53
38
46
94
40
50
57
49
82
56
72
2
21
122
58
96
28
107
16
32
29
18
83
113
43
52
103
78
70
35
33
44
93
71
19
116
111
119
51
110
20
89
65
84
76
80
68

> <PUBCHEM_MMFF94_PARTIAL_CHARGES>
39
1 -0.18
10 0.37
11 0.37
12 0.27
13 0.27
14 0.37
15 0.41
16 0.1
17 0.37
18 0.27
19 0.51
2 -0.19
20 0.41
21 -0.15
24 -0.15
25 -0.14
26 -0.15
27 0.16
28 0.16
29 0.18
3 -0.19
30 0.19
31 0.19
32 -0.15
33 -0.15
4 -0.84
5 -0.81
51 0.4
52 0.15
53 0.15
54 0.15
55 0.15
56 0.15
57 0.15
58 0.15
6 -0.84
7 -0.87
8 -0.62
9 -0.62

> <PUBCHEM_EFFECTIVE_ROTOR_COUNT>
6

> <PUBCHEM_PHARMACOPHORE_FEATURES>
11
1 5 cation
1 6 cation
1 7 cation
1 7 donor
1 9 acceptor
3 4 8 15 cation
6 25 29 30 31 32 33 rings
6 4 5 10 11 12 13 rings
6 6 7 14 16 17 20 rings
6 8 15 23 24 26 27 rings
6 9 16 20 21 22 28 rings

> <PUBCHEM_HEAVY_ATOM_COUNT>
33

> <PUBCHEM_ATOM_DEF_STEREO_COUNT>
0

> <PUBCHEM_ATOM_UDEF_STEREO_COUNT>
0

> <PUBCHEM_BOND_DEF_STEREO_COUNT>
0

> <PUBCHEM_BOND_UDEF_STEREO_COUNT>
0

> <PUBCHEM_ISOTOPIC_ATOM_COUNT>
0

> <PUBCHEM_COMPONENT_COUNT>
1

> <PUBCHEM_CACTVS_TAUTO_COUNT>
2

> <PUBCHEM_CONFORMER_ID>
02CBBD2D00000001

> <PUBCHEM_MMFF94_ENERGY>
119.5941

> <PUBCHEM_FEATURE_SELFOVERLAP>
55.859

> <PUBCHEM_SHAPE_FINGERPRINT>
10 15 12967125025947143451
10411042 1 18337106766406059496
10580692 12 18410856569385570577
10981352 41 18201716271135588031
11409948 8 18271512158283809202
117089 54 18270128915577052878
11828532 37 18188504560970702675
11963148 33 18192988451056149774
11966995 16 18041271137092114199
12107183 9 18268436729123409601
12124843 1 17749958739458468318
12166972 35 17821732710692418772
12522641 33 18190468341374614668
12522641 68 17034466163441640884
13248334 5 18192150623164779028
13530399 1 11675139447699090655
13533116 47 18341894147159756449
13540713 4 18263624226325776524
1361 4 18194118741020929507
13673619 4 18187364307651889189
13690498 29 17968374546709235797
13782708 43 18260264162219877045
13989917 61 18340488958082558967
14040222 275 18337974319260170798
14068700 675 18408886196185455121
14347332 77 18260823766267433897
14919807 6 17604410922829155607
15001296 14 18188764080121750723
15198563 99 17095506393934892685
15510800 12 18272369728747986807
15721738 202 17917711280321588896
16990366 60 18263637382448258402
16993089 31 17458921435376326979
19301679 30 18273217469493376857
1979834 28 17418095399450714262
19841028 212 18409728504461530003
20028762 73 18342738494395712082
20165401 70 18341891952774482943
20982279 24 17895489137372078051
21130935 74 18341613776416434577
21585481 151 18131074796856641215
21585482 310 18413392016564060711
23522609 53 18118717398747373021
23559900 14 18335129865768783672
23569914 2 14204826638690075766
23569943 247 18259981540756437843
24893989 43 18341048635360980982
249057 25 12396839100849137893
255183 451 18411143524038775444
2748736 6 10015576195081341331
3004659 81 18040435460666997944
3383291 50 18412822478527043435
3504750 166 18201716250805125821
3711267 37 11891592613482321735
3862424 121 17169008818886645603
4073 2 17825388741964220097
439807 62 18186803560794910535
4461854 278 17775563144117883046
5718773 13 18409445873711380739
57527293 21 14548721916220137712
57527295 17 17532367565437318736
57816373 69 17917988390967837919
6712543 237 16487252184371268471
9831232 110 18340769239174094431
9962374 69 18343013428036406791

> <PUBCHEM_SHAPE_MULTIPOLES>
636.56
24.3
4.11
1.37
43.47
2.14
0.2
-26.37
0.46
-4.31
0.53
-3.04
-1.05
0.6

> <PUBCHEM_SHAPE_SELFOVERLAP>
1384.658

> <PUBCHEM_SHAPE_VOLUME>
350.2

> <PUBCHEM_COORDINATE_TYPE>
2
5
10

$$$$
