23646813
  -OEChem-10062121563D

 33 34  0     0  0  0  0  0  0999 V2000
   -3.9688   -3.1523    0.0841 Cl  0  0  0  0  0  0  0  0  0  0  0  0
   -2.7956    2.5904   -0.3796 O   0  0  0  0  0  0  0  0  0  0  0  0
    0.4880   -1.2719    0.0239 O   0  0  0  0  0  0  0  0  0  0  0  0
   -6.8894   -0.5448    0.6946 O   0  0  0  0  0  0  0  0  0  0  0  0
   -0.6929    0.7414   -0.1745 N   0  0  0  0  0  0  0  0  0  0  0  0
    1.6147    0.7720   -0.1250 N   0  0  0  0  0  0  0  0  0  0  0  0
    3.2861   -0.9233    0.0579 N   0  0  0  0  0  0  0  0  0  0  0  0
    5.2554    1.0700   -0.0655 N   0  0  0  0  0  0  0  0  0  0  0  0
    8.0919   -0.7799    0.1599 N   0  0  0  0  0  0  0  0  0  0  0  0
   -2.0268    0.3271   -0.1691 C   0  0  0  0  0  0  0  0  0  0  0  0
   -3.0609    1.2577   -0.2718 C   0  0  0  0  0  0  0  0  0  0  0  0
   -2.3203   -1.0323   -0.0597 C   0  0  0  0  0  0  0  0  0  0  0  0
   -4.3883    0.8290   -0.2652 C   0  0  0  0  0  0  0  0  0  0  0  0
   -4.6818   -0.5302   -0.1558 C   0  0  0  0  0  0  0  0  0  0  0  0
   -3.6478   -1.4608   -0.0530 C   0  0  0  0  0  0  0  0  0  0  0  0
    0.4769   -0.0496   -0.0806 C   0  0  0  0  0  0  0  0  0  0  0  0
    2.9734    0.3824   -0.0612 C   0  0  0  0  0  0  0  0  0  0  0  0
   -6.0833   -0.9316   -0.1532 C   0  0  0  0  0  0  0  0  0  0  0  0
   -2.6981    3.3311    0.8349 C   0  0  0  0  0  0  0  0  0  0  0  0
    3.9406    1.3613   -0.1218 C   0  0  0  0  0  0  0  0  0  0  0  0
    4.6006   -1.2146    0.1146 C   0  0  0  0  0  0  0  0  0  0  0  0
    5.5680   -0.2356    0.0540 C   0  0  0  0  0  0  0  0  0  0  0  0
    6.9584   -0.5355    0.1122 C   0  0  0  0  0  0  0  0  0  0  0  0
   -1.5697   -1.8047    0.0232 H   0  0  0  0  0  0  0  0  0  0  0  0
   -5.1892    1.5603   -0.3480 H   0  0  0  0  0  0  0  0  0  0  0  0
   -0.5489    1.7442   -0.2620 H   0  0  0  0  0  0  0  0  0  0  0  0
    1.4500    1.7716   -0.2138 H   0  0  0  0  0  0  0  0  0  0  0  0
   -6.3770   -1.6698   -0.9186 H   0  0  0  0  0  0  0  0  0  0  0  0
   -2.4423    4.3646    0.5858 H   0  0  0  0  0  0  0  0  0  0  0  0
   -1.9135    2.9228    1.4797 H   0  0  0  0  0  0  0  0  0  0  0  0
   -3.6570    3.3258    1.3626 H   0  0  0  0  0  0  0  0  0  0  0  0
    3.7030    2.4146   -0.2173 H   0  0  0  0  0  0  0  0  0  0  0  0
    4.8409   -2.2675    0.2102 H   0  0  0  0  0  0  0  0  0  0  0  0
  1 15  1  0  0  0  0
  2 11  1  0  0  0  0
  2 19  1  0  0  0  0
  3 16  2  0  0  0  0
  4 18  2  0  0  0  0
  5 10  1  0  0  0  0
  5 16  1  0  0  0  0
  5 26  1  0  0  0  0
  6 16  1  0  0  0  0
  6 17  1  0  0  0  0
  6 27  1  0  0  0  0
  7 17  2  0  0  0  0
  7 21  1  0  0  0  0
  8 20  2  0  0  0  0
  8 22  1  0  0  0  0
  9 23  3  0  0  0  0
 10 11  2  0  0  0  0
 10 12  1  0  0  0  0
 11 13  1  0  0  0  0
 12 15  2  0  0  0  0
 12 24  1  0  0  0  0
 13 14  2  0  0  0  0
 13 25  1  0  0  0  0
 14 15  1  0  0  0  0
 14 18  1  0  0  0  0
 17 20  1  0  0  0  0
 18 28  1  0  0  0  0
 19 29  1  0  0  0  0
 19 30  1  0  0  0  0
 19 31  1  0  0  0  0
 20 32  1  0  0  0  0
 21 22  2  0  0  0  0
 21 33  1  0  0  0  0
 22 23  1  0  0  0  0
M  END
> <PUBCHEM_COMPOUND_CID>
23646813

> <PUBCHEM_CONFORMER_RMSD>
0.8

> <PUBCHEM_CONFORMER_DIVERSEORDER>
1
21
7
13
26
25
16
5
22
2
8
14
6
24
15
11
3
23
12
18
4
17
10
20
9
19

> <PUBCHEM_MMFF94_PARTIAL_CHARGES>
30
1 -0.18
10 0.12
11 0.08
12 -0.15
13 -0.15
14 0.09
15 0.18
16 0.69
17 0.43
18 0.42
19 0.28
2 -0.36
20 0.16
21 0.16
22 0.38
23 0.48
24 0.15
25 0.15
26 0.37
27 0.37
28 0.06
3 -0.57
32 0.15
33 0.15
4 -0.57
5 -0.55
6 -0.55
7 -0.62
8 -0.62
9 -0.56

> <PUBCHEM_EFFECTIVE_ROTOR_COUNT>
6

> <PUBCHEM_PHARMACOPHORE_FEATURES>
9
1 2 acceptor
1 3 acceptor
1 4 acceptor
1 5 donor
1 6 donor
1 8 acceptor
1 9 acceptor
6 10 11 12 13 14 15 rings
6 7 8 17 20 21 22 rings

> <PUBCHEM_HEAVY_ATOM_COUNT>
23

> <PUBCHEM_ATOM_DEF_STEREO_COUNT>
0

> <PUBCHEM_ATOM_UDEF_STEREO_COUNT>
0

> <PUBCHEM_BOND_DEF_STEREO_COUNT>
0

> <PUBCHEM_BOND_UDEF_STEREO_COUNT>
0

> <PUBCHEM_ISOTOPIC_ATOM_COUNT>
0

> <PUBCHEM_COMPONENT_COUNT>
1

> <PUBCHEM_CACTVS_TAUTO_COUNT>
14

> <PUBCHEM_CONFORMER_ID>
0168D25D00000001

> <PUBCHEM_MMFF94_ENERGY>
77.4854

> <PUBCHEM_FEATURE_SELFOVERLAP>
45.723

> <PUBCHEM_SHAPE_FINGERPRINT>
10 15 18271513296112402264
10299344 5 18187086152937891382
10411042 1 18122343738904579231
10595046 47 18407760352730066756
11315181 36 18259705600995259325
11524674 6 17060339647505924895
12107183 9 17688304591065663346
12166972 35 17967534596866436228
12236239 1 17894630348546026941
12760667 363 18341893013498853855
13073987 5 18339641127643553842
13167823 11 18408600362217683478
13288520 33 18409448098831065567
14251764 18 18334577941180260820
14341114 176 18409169930346449453
15042514 8 18337954627268044527
15183329 4 18260828181599199138
17844677 252 18411705391755480620
18006028 8 18342173393586114141
18927931 339 18411422830025301071
19489759 90 18333731303819900920
21033648 29 17203027609385310640
21150785 3 14923946764768292578
21236236 1 18341050735915609561
21267235 1 18408046212288053452
21304253 13 18201725072578924521
21315763 28 18410009923777381256
2297311 6 18413674612664242117
23035841 295 18408604777196176467
23402539 116 18336542815413885583
23557571 272 18273501152067271605
23559900 14 18265889340553169497
23569943 247 16952520279303787778
3004659 81 18187361047956022312
335352 9 18409727383738458967
34797466 226 17846225483880508092
3545911 37 18408884040211793790
4073 2 17968381255548560818
4214541 1 18409728439425142356
4325135 7 18407759239969748278
5104073 3 18341887442831384592
54446538 1 18408885135882323324
59755656 215 18409729543078932239
59755656 520 16805601503822442091
67856867 119 18189338025391896972
7495541 125 17845933047751261816

> <PUBCHEM_SHAPE_MULTIPOLES>
432.69
18.69
2.56
0.66
23.36
0.86
0.03
-5.93
1.23
-3.76
0.36
-0.27
0.1
-0.2

> <PUBCHEM_SHAPE_SELFOVERLAP>
914.902

> <PUBCHEM_SHAPE_VOLUME>
240.4

> <PUBCHEM_COORDINATE_TYPE>
2
5
10

$$$$
