246391
  -OEChem-10052115183D

 30 32  0     0  0  0  0  0  0999 V2000
    1.3771   -2.3172    0.5508 O   0  0  0  0  0  0  0  0  0  0  0  0
    1.2446    2.2031   -0.5812 O   0  0  0  0  0  0  0  0  0  0  0  0
   -3.4677    2.0923    0.6542 O   0  0  0  0  0  0  0  0  0  0  0  0
   -5.3498   -1.1490   -0.9845 O   0  0  0  0  0  0  0  0  0  0  0  0
   -5.6339    0.3863    0.6674 O   0  0  0  0  0  0  0  0  0  0  0  0
    0.7986   -0.0728   -0.0179 N   0  0  0  0  0  0  0  0  0  0  0  0
    2.9935   -0.6790    0.1464 C   0  0  0  0  0  0  0  0  0  0  0  0
    2.9540    0.6670   -0.1587 C   0  0  0  0  0  0  0  0  0  0  0  0
   -0.6342   -0.1167   -0.0257 C   0  0  0  0  0  0  0  0  0  0  0  0
    1.6195   -1.1633    0.2461 C   0  0  0  0  0  0  0  0  0  0  0  0
    1.5540    1.0660   -0.2734 C   0  0  0  0  0  0  0  0  0  0  0  0
    4.1862   -1.3543    0.3165 C   0  0  0  0  0  0  0  0  0  0  0  0
    4.1047    1.4141   -0.3158 C   0  0  0  0  0  0  0  0  0  0  0  0
   -1.3728    1.0172    0.3207 C   0  0  0  0  0  0  0  0  0  0  0  0
   -1.2976   -1.2937   -0.3805 C   0  0  0  0  0  0  0  0  0  0  0  0
   -2.7671    0.9743    0.3124 C   0  0  0  0  0  0  0  0  0  0  0  0
   -3.4263   -0.2026   -0.0426 C   0  0  0  0  0  0  0  0  0  0  0  0
   -2.6916   -1.3366   -0.3889 C   0  0  0  0  0  0  0  0  0  0  0  0
    5.3652   -0.6196    0.1638 C   0  0  0  0  0  0  0  0  0  0  0  0
    5.3247    0.7530   -0.1498 C   0  0  0  0  0  0  0  0  0  0  0  0
   -4.8811   -0.2683   -0.0593 C   0  0  0  0  0  0  0  0  0  0  0  0
    4.2175   -2.4102    0.5588 H   0  0  0  0  0  0  0  0  0  0  0  0
    4.0740    2.4700   -0.5581 H   0  0  0  0  0  0  0  0  0  0  0  0
   -0.8792    1.9347    0.6277 H   0  0  0  0  0  0  0  0  0  0  0  0
   -0.7586   -2.1872   -0.6802 H   0  0  0  0  0  0  0  0  0  0  0  0
   -3.1762   -2.2699   -0.6636 H   0  0  0  0  0  0  0  0  0  0  0  0
    6.3263   -1.1114    0.2885 H   0  0  0  0  0  0  0  0  0  0  0  0
    6.2552    1.3028   -0.2640 H   0  0  0  0  0  0  0  0  0  0  0  0
   -2.8440    2.8076    0.8668 H   0  0  0  0  0  0  0  0  0  0  0  0
   -6.3301   -1.1867   -0.9890 H   0  0  0  0  0  0  0  0  0  0  0  0
  1 10  2  0  0  0  0
  2 11  2  0  0  0  0
  3 16  1  0  0  0  0
  3 29  1  0  0  0  0
  4 21  1  0  0  0  0
  4 30  1  0  0  0  0
  5 21  2  0  0  0  0
  6  9  1  0  0  0  0
  6 10  1  0  0  0  0
  6 11  1  0  0  0  0
  7  8  1  0  0  0  0
  7 10  1  0  0  0  0
  7 12  2  0  0  0  0
  8 11  1  0  0  0  0
  8 13  2  0  0  0  0
  9 14  2  0  0  0  0
  9 15  1  0  0  0  0
 12 19  1  0  0  0  0
 12 22  1  0  0  0  0
 13 20  1  0  0  0  0
 13 23  1  0  0  0  0
 14 16  1  0  0  0  0
 14 24  1  0  0  0  0
 15 18  2  0  0  0  0
 15 25  1  0  0  0  0
 16 17  2  0  0  0  0
 17 18  1  0  0  0  0
 17 21  1  0  0  0  0
 18 26  1  0  0  0  0
 19 20  2  0  0  0  0
 19 27  1  0  0  0  0
 20 28  1  0  0  0  0
M  END
> <PUBCHEM_COMPOUND_CID>
246391

> <PUBCHEM_CONFORMER_RMSD>
0.6

> <PUBCHEM_CONFORMER_DIVERSEORDER>
1
2
3

> <PUBCHEM_MMFF94_PARTIAL_CHARGES>
30
1 -0.57
10 0.54
11 0.54
12 -0.15
13 -0.15
14 -0.15
15 -0.15
16 0.08
17 0.09
18 -0.15
19 -0.15
2 -0.57
20 -0.15
21 0.63
22 0.15
23 0.15
24 0.15
25 0.15
26 0.15
27 0.15
28 0.15
29 0.45
3 -0.53
30 0.5
4 -0.65
5 -0.57
6 -0.24
7 0.09
8 0.09
9 0.12

> <PUBCHEM_EFFECTIVE_ROTOR_COUNT>
2.2

> <PUBCHEM_PHARMACOPHORE_FEATURES>
9
1 1 acceptor
1 2 acceptor
1 3 donor
1 4 acceptor
1 5 acceptor
3 4 5 21 anion
5 6 7 8 10 11 rings
6 7 8 12 13 19 20 rings
6 9 14 15 16 17 18 rings

> <PUBCHEM_HEAVY_ATOM_COUNT>
21

> <PUBCHEM_ATOM_DEF_STEREO_COUNT>
0

> <PUBCHEM_ATOM_UDEF_STEREO_COUNT>
0

> <PUBCHEM_BOND_DEF_STEREO_COUNT>
0

> <PUBCHEM_BOND_UDEF_STEREO_COUNT>
0

> <PUBCHEM_ISOTOPIC_ATOM_COUNT>
0

> <PUBCHEM_COMPONENT_COUNT>
1

> <PUBCHEM_CACTVS_TAUTO_COUNT>
4

> <PUBCHEM_CONFORMER_ID>
0003C27700000001

> <PUBCHEM_MMFF94_ENERGY>
73.0444

> <PUBCHEM_FEATURE_SELFOVERLAP>
45.82

> <PUBCHEM_SHAPE_FINGERPRINT>
11471102 20 18333729134961532854
12107183 9 17691407412536498810
12236239 1 18343864424313785790
13167823 11 18412261727052772398
13862211 1 18335697230858427210
14251764 18 18335416873121482562
14341114 176 18334864926056862339
15196674 1 18410575050503982504
15536298 74 18413389830747147882
17834072 33 18412543219166998438
1813 80 17386295298619684902
18522853 276 18412545413826831768
18681886 176 18272928349980671026
200 152 18413385454038303751
20028762 73 18341888542370418294
20612939 158 18040439923386107628
20645477 70 18409448051465625718
21033648 29 17313368063677460837
21065198 48 18411136887870840418
21267235 1 18410864243631941070
21421861 104 17680142976603893866
21641784 216 17531542979425208316
23402539 116 18202559584222824997
23557571 272 17203618076914673929
23558518 356 17319579381177913818
23559900 14 18270111443454511041
26918003 58 18040437711171832475
2871803 45 18187359913741751774
29717793 49 18201999906475151822
335352 9 18409730664270819590
34797466 226 17060063696226226116
350125 39 18411982451463645561
3545911 37 18409168830771342631
4214541 1 18412263908848809425
474 4 18040720311472237380
5104073 3 18410575058919688832
542803 24 18411419518188439723
602551 16 15984810601719507279
67856867 119 18268427008910635660
7495541 125 16845003615009459938
9709674 26 18341057341158806919

> <PUBCHEM_SHAPE_MULTIPOLES>
397.84
12.12
1.89
0.73
3.31
0.14
0.02
-0.11
0.02
-0.33
-0.04
0.26
-0.01
-1.08

> <PUBCHEM_SHAPE_SELFOVERLAP>
896.709

> <PUBCHEM_SHAPE_VOLUME>
207.9

> <PUBCHEM_COORDINATE_TYPE>
2
5
10

$$$$
