49830834
  -OEChem-10052120443D

 37 39  0     0  0  0  0  0  0999 V2000
   -5.0414   -1.2628   -0.0920 S   0  0  0  0  0  0  0  0  0  0  0  0
   -6.3535   -1.5585   -0.6365 O   0  0  0  0  0  0  0  0  0  0  0  0
   -3.9359   -2.1780   -0.2952 O   0  0  0  0  0  0  0  0  0  0  0  0
    0.6916    2.0097    0.3107 N   0  0  0  0  0  0  0  0  0  0  0  0
    5.4151   -0.7644   -0.2648 N   0  0  0  0  0  0  0  0  0  0  0  0
   -4.6078    0.3385   -0.5553 N   0  0  0  0  0  0  0  0  0  0  0  0
    5.0719   -2.0429   -0.0354 N   0  0  0  0  0  0  0  0  0  0  0  0
    2.9565   -3.0248    0.5057 N   0  0  0  0  0  0  0  0  0  0  0  0
    3.2637   -0.6516    0.1438 C   0  0  0  0  0  0  0  0  0  0  0  0
    1.9368    1.3618    0.1484 C   0  0  0  0  0  0  0  0  0  0  0  0
    4.3754    0.1211   -0.1731 C   0  0  0  0  0  0  0  0  0  0  0  0
    2.0162   -0.0271    0.3097 C   0  0  0  0  0  0  0  0  0  0  0  0
   -0.6337    1.5920    0.0928 C   0  0  0  0  0  0  0  0  0  0  0  0
    3.0691    2.1137   -0.1701 C   0  0  0  0  0  0  0  0  0  0  0  0
    4.3179    1.5067   -0.3381 C   0  0  0  0  0  0  0  0  0  0  0  0
    3.7622   -1.9702    0.2132 C   0  0  0  0  0  0  0  0  0  0  0  0
   -3.2626    0.7632   -0.3365 C   0  0  0  0  0  0  0  0  0  0  0  0
   -1.6669    2.1209    0.8665 C   0  0  0  0  0  0  0  0  0  0  0  0
   -0.9151    0.6488   -0.8956 C   0  0  0  0  0  0  0  0  0  0  0  0
   -2.9814    1.7066    0.6519 C   0  0  0  0  0  0  0  0  0  0  0  0
   -2.2296    0.2344   -1.1102 C   0  0  0  0  0  0  0  0  0  0  0  0
   -5.2486   -1.0374    1.6602 C   0  0  0  0  0  0  0  0  0  0  0  0
    1.1485   -0.6209    0.5794 H   0  0  0  0  0  0  0  0  0  0  0  0
    0.7706    2.9631    0.6534 H   0  0  0  0  0  0  0  0  0  0  0  0
    2.9929    3.1921   -0.2937 H   0  0  0  0  0  0  0  0  0  0  0  0
    5.1985    2.0889   -0.5856 H   0  0  0  0  0  0  0  0  0  0  0  0
    6.3830   -0.5610   -0.4810 H   0  0  0  0  0  0  0  0  0  0  0  0
   -1.4603    2.8555    1.6407 H   0  0  0  0  0  0  0  0  0  0  0  0
   -0.1343    0.2387   -1.5301 H   0  0  0  0  0  0  0  0  0  0  0  0
   -3.7783    2.1241    1.2618 H   0  0  0  0  0  0  0  0  0  0  0  0
   -2.4350   -0.4883   -1.8956 H   0  0  0  0  0  0  0  0  0  0  0  0
   -5.3118    1.0590   -0.3459 H   0  0  0  0  0  0  0  0  0  0  0  0
   -5.5976   -1.9832    2.0809 H   0  0  0  0  0  0  0  0  0  0  0  0
   -4.2894   -0.7702    2.1064 H   0  0  0  0  0  0  0  0  0  0  0  0
   -5.9949   -0.2598    1.8335 H   0  0  0  0  0  0  0  0  0  0  0  0
    3.3146   -3.9735    0.5557 H   0  0  0  0  0  0  0  0  0  0  0  0
    1.9623   -2.9292    0.6888 H   0  0  0  0  0  0  0  0  0  0  0  0
  1  2  2  0  0  0  0
  1  3  2  0  0  0  0
  1  6  1  0  0  0  0
  1 22  1  0  0  0  0
  4 10  1  0  0  0  0
  4 13  1  0  0  0  0
  4 24  1  0  0  0  0
  5  7  1  0  0  0  0
  5 11  1  0  0  0  0
  5 27  1  0  0  0  0
  6 17  1  0  0  0  0
  6 32  1  0  0  0  0
  7 16  2  0  0  0  0
  8 16  1  0  0  0  0
  8 36  1  0  0  0  0
  8 37  1  0  0  0  0
  9 11  2  0  0  0  0
  9 12  1  0  0  0  0
  9 16  1  0  0  0  0
 10 12  2  0  0  0  0
 10 14  1  0  0  0  0
 11 15  1  0  0  0  0
 12 23  1  0  0  0  0
 13 18  2  0  0  0  0
 13 19  1  0  0  0  0
 14 15  2  0  0  0  0
 14 25  1  0  0  0  0
 15 26  1  0  0  0  0
 17 20  2  0  0  0  0
 17 21  1  0  0  0  0
 18 20  1  0  0  0  0
 18 28  1  0  0  0  0
 19 21  2  0  0  0  0
 19 29  1  0  0  0  0
 20 30  1  0  0  0  0
 21 31  1  0  0  0  0
 22 33  1  0  0  0  0
 22 34  1  0  0  0  0
 22 35  1  0  0  0  0
M  END
> <PUBCHEM_COMPOUND_CID>
49830834

> <PUBCHEM_CONFORMER_RMSD>
0.6

> <PUBCHEM_CONFORMER_DIVERSEORDER>
1
104
76
73
105
72
165
45
102
27
142
149
89
2
141
154
48
145
96
36
20
155
32
31
133
167
10
152
75
162
95
46
166
129
66
136
122
26
55
175
176
126
60
79
69
139
82
134
24
93
34
103
146
113
148
140
115
56
19
178
151
5
52
85
29
135
17
13
132
138
28
171
71
170
41
42
108
38
59
164
169
21
25
77
39
163
88
90
143
106
109
63
35
57
83
117
80
67
128
112
159
40
87
92
174
100
101
124
147
53
156
98
43
7
33
86
137
44
37
150
172
130
47
6
173
131
22
70
110
160
68
177
121
78
62
168
94
9
14
91
161
157
107
11
127
18
74
65
120
64
158
118
4
114
116
125
61
97
119
49
8
3
50
111
16
99
23
179
51
30
81
153
84
123
144
15
58
12
54

> <PUBCHEM_MMFF94_PARTIAL_CHARGES>
33
1 1.33
10 0.1
11 -0.15
12 -0.15
13 0.1
14 -0.15
15 -0.15
16 0.37
17 0.2
18 -0.15
19 -0.15
2 -0.65
20 -0.15
21 -0.15
22 0.11
23 0.15
24 0.4
25 0.15
26 0.15
27 0.27
28 0.15
29 0.15
3 -0.65
30 0.15
31 0.15
32 0.42
36 0.4
37 0.4
4 -0.6
5 0.3
6 -0.76
7 -0.71
8 -0.88

> <PUBCHEM_EFFECTIVE_ROTOR_COUNT>
4

> <PUBCHEM_PHARMACOPHORE_FEATURES>
11
1 2 acceptor
1 3 acceptor
1 4 cation
1 4 donor
1 5 donor
1 6 donor
1 8 donor
3 7 8 16 cation
5 5 7 9 11 16 rings
6 13 17 18 19 20 21 rings
6 9 10 11 12 14 15 rings

> <PUBCHEM_HEAVY_ATOM_COUNT>
22

> <PUBCHEM_ATOM_DEF_STEREO_COUNT>
0

> <PUBCHEM_ATOM_UDEF_STEREO_COUNT>
0

> <PUBCHEM_BOND_DEF_STEREO_COUNT>
0

> <PUBCHEM_BOND_UDEF_STEREO_COUNT>
0

> <PUBCHEM_ISOTOPIC_ATOM_COUNT>
0

> <PUBCHEM_COMPONENT_COUNT>
1

> <PUBCHEM_CACTVS_TAUTO_COUNT>
18

> <PUBCHEM_CONFORMER_ID>
02F85BB200000001

> <PUBCHEM_MMFF94_ENERGY>
67.9613

> <PUBCHEM_FEATURE_SELFOVERLAP>
55.93

> <PUBCHEM_SHAPE_FINGERPRINT>
10498660 4 11963399518045572620
10616163 171 18343019952318602198
11089746 13 8070027744689891968
11595378 159 14764359188673275259
12107183 9 17908427944033151913
12596602 18 17275107270696231979
12633257 1 15769769191153200765
12760667 363 18343018900552508095
12788726 201 17775297061834033457
12916754 54 18409165489313731901
13103583 49 17775017816498847523
13167823 11 18412825772091037460
13402501 40 18260551151476283667
13533116 47 18341331184015211441
13544653 18 18335987562199964533
13941219 33 18335718152213475225
13955234 65 18198620132608069912
14341114 176 18412548716709267645
14576447 43 18409730630438445628
15196674 1 18411698776956984797
15352361 1 18411417302090913971
15537594 2 18201156662708492598
17492 89 18269837510841428590
17844677 252 18410859867087004197
17857418 61 18413387644371443363
193927 3 18341339919841314181
20028762 73 18343861113069016190
20281475 54 18411418384475829392
20645477 70 18259981578957214896
21033650 10 16081923733466304869
21267235 1 18343025476084050468
221490 88 18408325475752401552
22393880 68 17822561712305488405
22950370 63 18341615949216452161
235170 7 17385991880175205919
23522609 53 18053698920683382545
23559900 14 18337663200598856017
2838139 119 9871485183771981683
2871803 45 18113332028936437481
3004659 81 18260260850066810200
312423 11 18341905069066449948
314194 84 18340207500590873561
33382 64 18409171047438704329
34797466 226 16950564445527979613
351380 3 18202281415885492695
46194498 28 17458623479370541140
465052 167 18202004377884299037
5104073 3 18059855039068397824
7970288 3 18342172289131166375
88748 71 18337674109509533866

> <PUBCHEM_SHAPE_MULTIPOLES>
419.96
13.86
2.83
0.95
6.48
0.92
0.13
8.55
-0.13
-1.31
0.42
1.09
0.02
-0.47

> <PUBCHEM_SHAPE_SELFOVERLAP>
902.624

> <PUBCHEM_SHAPE_VOLUME>
233.2

> <PUBCHEM_COORDINATE_TYPE>
2
5
10

$$$$
