5328112
  -OEChem-10062122033D

 45 47  0     0  0  0  0  0  0999 V2000
   -0.1230    2.2083   -2.7404 Cl  0  0  0  0  0  0  0  0  0  0  0  0
   -0.1239    2.2075    2.7407 Cl  0  0  0  0  0  0  0  0  0  0  0  0
   -1.3168   -2.7296    0.0003 O   0  0  0  0  0  0  0  0  0  0  0  0
   -3.2097   -1.4039   -0.0006 N   0  0  0  0  0  0  0  0  0  0  0  0
   -1.1597   -0.3873   -0.0008 N   0  0  0  0  0  0  0  0  0  0  0  0
    1.0244   -1.2582   -0.0004 N   0  0  0  0  0  0  0  0  0  0  0  0
    3.1535   -2.1686   -0.0002 N   0  0  0  0  0  0  0  0  0  0  0  0
    5.1178   -0.7753    0.0002 N   0  0  0  0  0  0  0  0  0  0  0  0
    5.3040   -3.1093    0.0003 N   0  0  0  0  0  0  0  0  0  0  0  0
   -4.1711   -2.4914   -0.0004 C   0  0  0  0  0  0  0  0  0  0  0  0
   -5.5907   -1.9127   -0.0007 C   0  0  0  0  0  0  0  0  0  0  0  0
   -3.9596   -3.3473   -1.2536 C   0  0  0  0  0  0  0  0  0  0  0  0
   -3.9663   -3.3486    1.2541 C   0  0  0  0  0  0  0  0  0  0  0  0
   -1.8306   -1.6134   -0.0004 C   0  0  0  0  0  0  0  0  0  0  0  0
    0.6916    1.1343    0.0001 C   0  0  0  0  0  0  0  0  0  0  0  0
    0.2366   -0.1618   -0.0004 C   0  0  0  0  0  0  0  0  0  0  0  0
   -0.1836    2.2875    0.0001 C   0  0  0  0  0  0  0  0  0  0  0  0
    2.0640    1.3116    0.0004 C   0  0  0  0  0  0  0  0  0  0  0  0
    2.9072    0.1907    0.0003 C   0  0  0  0  0  0  0  0  0  0  0  0
    2.3546   -1.0955    0.0000 C   0  0  0  0  0  0  0  0  0  0  0  0
   -0.6096    2.8493   -1.2078 C   0  0  0  0  0  0  0  0  0  0  0  0
   -0.6102    2.8487    1.2081 C   0  0  0  0  0  0  0  0  0  0  0  0
    4.2965    0.2879    0.0004 C   0  0  0  0  0  0  0  0  0  0  0  0
   -1.4531    3.9602   -1.2078 C   0  0  0  0  0  0  0  0  0  0  0  0
   -1.4537    3.9596    1.2081 C   0  0  0  0  0  0  0  0  0  0  0  0
   -1.8751    4.5153    0.0002 C   0  0  0  0  0  0  0  0  0  0  0  0
    4.4866   -1.9579    0.0003 C   0  0  0  0  0  0  0  0  0  0  0  0
   -5.7618   -1.2852    0.8819 H   0  0  0  0  0  0  0  0  0  0  0  0
   -6.3466   -2.7058   -0.0014 H   0  0  0  0  0  0  0  0  0  0  0  0
   -5.7609   -1.2851   -0.8833 H   0  0  0  0  0  0  0  0  0  0  0  0
   -4.7445   -4.1082   -1.3396 H   0  0  0  0  0  0  0  0  0  0  0  0
   -3.0052   -3.8817   -1.2573 H   0  0  0  0  0  0  0  0  0  0  0  0
   -3.9949   -2.7330   -2.1612 H   0  0  0  0  0  0  0  0  0  0  0  0
   -3.0104   -3.8801    1.2630 H   0  0  0  0  0  0  0  0  0  0  0  0
   -4.7499   -4.1113    1.3345 H   0  0  0  0  0  0  0  0  0  0  0  0
   -4.0083   -2.7348    2.1617 H   0  0  0  0  0  0  0  0  0  0  0  0
   -3.5538   -0.4484   -0.0008 H   0  0  0  0  0  0  0  0  0  0  0  0
   -1.7554    0.4351   -0.0010 H   0  0  0  0  0  0  0  0  0  0  0  0
    2.4927    2.3121    0.0006 H   0  0  0  0  0  0  0  0  0  0  0  0
    4.7984    1.2509    0.0005 H   0  0  0  0  0  0  0  0  0  0  0  0
   -1.7915    4.4061   -2.1397 H   0  0  0  0  0  0  0  0  0  0  0  0
   -1.7926    4.4051    2.1401 H   0  0  0  0  0  0  0  0  0  0  0  0
   -2.5320    5.3803    0.0002 H   0  0  0  0  0  0  0  0  0  0  0  0
    4.8741   -4.0239    0.0009 H   0  0  0  0  0  0  0  0  0  0  0  0
    6.3093   -3.0052    0.0011 H   0  0  0  0  0  0  0  0  0  0  0  0
  1 21  1  0  0  0  0
  2 22  1  0  0  0  0
  3 14  2  0  0  0  0
  4 10  1  0  0  0  0
  4 14  1  0  0  0  0
  4 37  1  0  0  0  0
  5 14  1  0  0  0  0
  5 16  1  0  0  0  0
  5 38  1  0  0  0  0
  6 16  1  0  0  0  0
  6 20  2  0  0  0  0
  7 20  1  0  0  0  0
  7 27  2  0  0  0  0
  8 23  2  0  0  0  0
  8 27  1  0  0  0  0
  9 27  1  0  0  0  0
  9 44  1  0  0  0  0
  9 45  1  0  0  0  0
 10 11  1  0  0  0  0
 10 12  1  0  0  0  0
 10 13  1  0  0  0  0
 11 28  1  0  0  0  0
 11 29  1  0  0  0  0
 11 30  1  0  0  0  0
 12 31  1  0  0  0  0
 12 32  1  0  0  0  0
 12 33  1  0  0  0  0
 13 34  1  0  0  0  0
 13 35  1  0  0  0  0
 13 36  1  0  0  0  0
 15 16  2  0  0  0  0
 15 17  1  0  0  0  0
 15 18  1  0  0  0  0
 17 21  2  0  0  0  0
 17 22  1  0  0  0  0
 18 19  2  0  0  0  0
 18 39  1  0  0  0  0
 19 20  1  0  0  0  0
 19 23  1  0  0  0  0
 21 24  1  0  0  0  0
 22 25  2  0  0  0  0
 23 40  1  0  0  0  0
 24 26  2  0  0  0  0
 24 41  1  0  0  0  0
 25 26  1  0  0  0  0
 25 42  1  0  0  0  0
 26 43  1  0  0  0  0
M  END
> <PUBCHEM_COMPOUND_CID>
5328112

> <PUBCHEM_CONFORMER_RMSD>
0.8

> <PUBCHEM_CONFORMER_DIVERSEORDER>
1
2
5
3
4

> <PUBCHEM_MMFF94_PARTIAL_CHARGES>
30
1 -0.18
10 0.3
14 0.69
16 0.43
18 -0.15
2 -0.18
20 0.62
21 0.18
22 0.18
23 0.16
24 -0.15
25 -0.15
26 -0.15
27 0.72
3 -0.57
37 0.37
38 0.37
39 0.15
4 -0.73
40 0.15
41 0.15
42 0.15
43 0.15
44 0.4
45 0.4
5 -0.55
6 -0.62
7 -0.62
8 -0.62
9 -0.9

> <PUBCHEM_EFFECTIVE_ROTOR_COUNT>
5

> <PUBCHEM_PHARMACOPHORE_FEATURES>
10
1 3 acceptor
1 4 donor
1 5 donor
1 8 acceptor
1 9 donor
4 10 11 12 13 hydrophobe
4 7 8 9 27 cation
6 17 21 22 24 25 26 rings
6 6 15 16 18 19 20 rings
6 7 8 19 20 23 27 rings

> <PUBCHEM_HEAVY_ATOM_COUNT>
27

> <PUBCHEM_ATOM_DEF_STEREO_COUNT>
0

> <PUBCHEM_ATOM_UDEF_STEREO_COUNT>
0

> <PUBCHEM_BOND_DEF_STEREO_COUNT>
0

> <PUBCHEM_BOND_UDEF_STEREO_COUNT>
0

> <PUBCHEM_ISOTOPIC_ATOM_COUNT>
0

> <PUBCHEM_COMPONENT_COUNT>
1

> <PUBCHEM_CACTVS_TAUTO_COUNT>
24

> <PUBCHEM_CONFORMER_ID>
00514CF000000001

> <PUBCHEM_MMFF94_ENERGY>
88.8506

> <PUBCHEM_FEATURE_SELFOVERLAP>
50.836

> <PUBCHEM_SHAPE_FINGERPRINT>
10050765 1 18338517418782111138
10411042 1 18410856594063546022
10688039 33 18335422382662702983
11045515 52 18409728499691646187
12166972 35 18128538365776946787
12549972 3 17700666516588141202
12788726 201 18334852818881990306
13004483 165 18411975879826007626
13052359 8 18122905317818492512
13134695 92 18196932395175191383
13140716 1 18411987953110692307
13540713 4 18129935669167613762
13540713 5 18115596938003335246
13631057 29 18411419510468988650
13690498 29 18270698471812622582
138480 1 15600327427009754657
13911987 19 17538589977196948428
13955234 65 17618511316929986427
14790565 3 17256529046018477316
14866123 147 18122064204350909251
15042514 8 18410859815647032195
15420108 30 17262980959170575896
15927050 60 17690000033385182798
16988056 13 18049142652525377333
17138139 8 17550622731677160805
17868525 174 18268152153226939145
17980427 26 17266930383236201797
18335252 114 18339066191164780431
20642791 178 17252866564496808964
21033648 144 18122612865918418364
21049683 271 17900831748798195660
21120745 212 18266484103376948780
21133410 127 17176289948559065197
21478907 32 18410292488795135402
21641784 216 18188506751862420964
22033318 11 17909031795877960443
2255824 54 17690843784215555975
23419403 2 17702925028845288433
23558518 356 18261962825917070362
23559900 14 17975406129996766699
283562 15 18335419054495844874
3380486 145 17839989117840127244
3383291 50 16753250112960630930
3886686 26 17614808874843212426
4409770 3 18266455396031325957
5104073 3 18196359331381358274
59755656 520 17765714616318962668
6443956 14 18193276523001815669
7164475 11 18408326575453764668
81228 2 18187087239195443144
9925002 15 18116174215008048036

> <PUBCHEM_SHAPE_MULTIPOLES>
523.63
8.82
6.32
1.59
0.07
4.6
0
-14.7
0
-3.71
0
-0.62
1.76
0

> <PUBCHEM_SHAPE_SELFOVERLAP>
1121.163

> <PUBCHEM_SHAPE_VOLUME>
292.3

> <PUBCHEM_COORDINATE_TYPE>
2
5
10

$$$$
