18516349
  -OEChem-10052120443D

 28 30  0     0  0  0  0  0  0999 V2000
   -3.0054    0.9825    0.0021 S   0  0  0  0  0  0  0  0  0  0  0  0
   -4.5927   -1.5226   -0.0125 O   0  0  0  0  0  0  0  0  0  0  0  0
    0.2435    3.3539   -0.0022 N   0  0  0  0  0  0  0  0  0  0  0  0
   -2.8519   -3.0154    0.0049 N   0  0  0  0  0  0  0  0  0  0  0  0
   -0.4431    0.6406    0.0020 C   0  0  0  0  0  0  0  0  0  0  0  0
    0.9107    1.0279    0.0012 C   0  0  0  0  0  0  0  0  0  0  0  0
   -1.4152    1.6452    0.0007 C   0  0  0  0  0  0  0  0  0  0  0  0
    1.9592    0.0386    0.0001 C   0  0  0  0  0  0  0  0  0  0  0  0
   -1.0441   -0.6627    0.0040 C   0  0  0  0  0  0  0  0  0  0  0  0
   -2.4181   -0.6179    0.0038 C   0  0  0  0  0  0  0  0  0  0  0  0
    1.1811    2.3866   -0.0008 C   0  0  0  0  0  0  0  0  0  0  0  0
   -1.0591    2.9953   -0.0013 C   0  0  0  0  0  0  0  0  0  0  0  0
    2.4690   -0.4387    1.2075 C   0  0  0  0  0  0  0  0  0  0  0  0
    2.4636   -0.4414   -1.2084 C   0  0  0  0  0  0  0  0  0  0  0  0
    3.4835   -1.3961    1.2064 C   0  0  0  0  0  0  0  0  0  0  0  0
    3.4781   -1.3989   -1.2096 C   0  0  0  0  0  0  0  0  0  0  0  0
   -3.3472   -1.7007    0.0042 C   0  0  0  0  0  0  0  0  0  0  0  0
    3.9880   -1.8761   -0.0022 C   0  0  0  0  0  0  0  0  0  0  0  0
   -0.4733   -1.5831    0.0051 H   0  0  0  0  0  0  0  0  0  0  0  0
    2.2031    2.7559   -0.0021 H   0  0  0  0  0  0  0  0  0  0  0  0
   -1.7853    3.7989   -0.0024 H   0  0  0  0  0  0  0  0  0  0  0  0
    2.0868   -0.0755    2.1587 H   0  0  0  0  0  0  0  0  0  0  0  0
    2.0773   -0.0803   -2.1587 H   0  0  0  0  0  0  0  0  0  0  0  0
    3.8805   -1.7680    2.1464 H   0  0  0  0  0  0  0  0  0  0  0  0
    3.8709   -1.7729   -2.1505 H   0  0  0  0  0  0  0  0  0  0  0  0
    4.7778   -2.6217   -0.0031 H   0  0  0  0  0  0  0  0  0  0  0  0
   -1.8621   -3.2358    0.0115 H   0  0  0  0  0  0  0  0  0  0  0  0
   -3.4903   -3.8042   -0.0009 H   0  0  0  0  0  0  0  0  0  0  0  0
  1  7  1  0  0  0  0
  1 10  1  0  0  0  0
  2 17  2  0  0  0  0
  3 11  1  0  0  0  0
  3 12  2  0  0  0  0
  4 17  1  0  0  0  0
  4 27  1  0  0  0  0
  4 28  1  0  0  0  0
  5  6  1  0  0  0  0
  5  7  2  0  0  0  0
  5  9  1  0  0  0  0
  6  8  1  0  0  0  0
  6 11  2  0  0  0  0
  7 12  1  0  0  0  0
  8 13  2  0  0  0  0
  8 14  1  0  0  0  0
  9 10  2  0  0  0  0
  9 19  1  0  0  0  0
 10 17  1  0  0  0  0
 11 20  1  0  0  0  0
 12 21  1  0  0  0  0
 13 15  1  0  0  0  0
 13 22  1  0  0  0  0
 14 16  2  0  0  0  0
 14 23  1  0  0  0  0
 15 18  2  0  0  0  0
 15 24  1  0  0  0  0
 16 18  1  0  0  0  0
 16 25  1  0  0  0  0
 18 26  1  0  0  0  0
M  END
> <PUBCHEM_COMPOUND_CID>
18516349

> <PUBCHEM_CONFORMER_RMSD>
0.6

> <PUBCHEM_CONFORMER_DIVERSEORDER>
1
6
3
2
5
4

> <PUBCHEM_MMFF94_PARTIAL_CHARGES>
25
1 -0.08
10 -0.05
11 0.16
12 0.16
13 -0.15
14 -0.15
15 -0.15
16 -0.15
17 0.71
18 -0.15
19 0.15
2 -0.57
20 0.15
21 0.15
22 0.15
23 0.15
24 0.15
25 0.15
26 0.15
27 0.37
28 0.37
3 -0.62
4 -0.8
7 0.04
9 -0.15

> <PUBCHEM_EFFECTIVE_ROTOR_COUNT>
2

> <PUBCHEM_PHARMACOPHORE_FEATURES>
6
1 2 acceptor
1 3 acceptor
1 4 donor
5 1 5 7 9 10 rings
6 3 5 6 7 11 12 rings
6 8 13 14 15 16 18 rings

> <PUBCHEM_HEAVY_ATOM_COUNT>
18

> <PUBCHEM_ATOM_DEF_STEREO_COUNT>
0

> <PUBCHEM_ATOM_UDEF_STEREO_COUNT>
0

> <PUBCHEM_BOND_DEF_STEREO_COUNT>
0

> <PUBCHEM_BOND_UDEF_STEREO_COUNT>
0

> <PUBCHEM_ISOTOPIC_ATOM_COUNT>
0

> <PUBCHEM_COMPONENT_COUNT>
1

> <PUBCHEM_CACTVS_TAUTO_COUNT>
2

> <PUBCHEM_CONFORMER_ID>
011A897D00000001

> <PUBCHEM_MMFF94_ENERGY>
50.4746

> <PUBCHEM_FEATURE_SELFOVERLAP>
30.512

> <PUBCHEM_SHAPE_FINGERPRINT>
10319926 262 17980172238341624882
10616163 171 18194403295098866278
10618630 7 18409729560311184894
11578080 2 17459444716352646500
11582403 64 15967578785254572216
116883 192 18413108359854583541
12363563 72 18411138043307051487
12403259 327 15410615934238760463
12553582 1 18409738356483614259
12714826 92 18040715831842388357
13083527 12 18121194718470909520
13140716 1 18412824668553662857
13538477 17 18044095649018807228
14787075 74 18114739456145627408
14790565 3 17979086989477889633
14863182 85 17037265550035771327
15042514 8 18193843639295183617
15422964 175 18342454820495511814
15442244 35 18340209682640163705
15885798 251 18411139143235157323
16752209 62 18045490920442089593
16945 1 18194402195191378689
17492 89 18124597745914905159
17804303 29 18342458093117854505
18186145 218 11819278806641760918
19049666 15 17269191658058211484
19591789 44 17331973720359384769
20028762 73 18129943382970926245
20291156 8 18408887347289236355
20510252 161 17911514294831921192
20600515 1 18195227945983795504
20645477 70 18122620824028762855
20871998 22 18412261774155072385
21296965 67 18411416224091078465
21452121 199 18338228366517732808
21634736 98 18260839202189686478
21650355 55 18266729204127624520
21731516 1 18335147496081246616
221490 88 18119254101901654683
2255824 54 17833552679671474181
23184049 29 18410007732484522600
2334 1 18338516464360400617
23366157 5 18115873077676323949
23402539 116 18126833911920539021
23557571 272 18128533774324479672
23559900 14 17982165627015522670
257057 1 18410004463982852753
2748010 2 18339912792498540805
3084891 72 18122899829277796525
3091708 16 9209269155425379689
314173 41 18336834203001301627
335352 9 18410856526203432061
3421961 26 18267586990811693163
54173680 148 18338797788796958608
568465 68 17346310450016071374
5902787 121 18409727365630226504
633830 44 11170181060659512275
7364860 26 18125443265438705120
77492 1 17388552514461132112
7970288 3 18410009944383098483
81228 2 18198342853476394137
8863177 126 17752220632761888779
9709674 26 17911519801164461622

> <PUBCHEM_SHAPE_MULTIPOLES>
358.45
7.04
3.37
0.94
0.7
1.39
0
-6.32
-0.01
-2.27
0
1.01
-0.23
0

> <PUBCHEM_SHAPE_SELFOVERLAP>
786.749

> <PUBCHEM_SHAPE_VOLUME>
195.2

> <PUBCHEM_COORDINATE_TYPE>
2
5
10

$$$$
