24771867
  -OEChem-10062122023D

 57 61  0     0  0  0  0  0  0999 V2000
    3.0786    3.4058    3.3951 Cl  0  0  0  0  0  0  0  0  0  0  0  0
    6.2141   -0.9266    0.2721 F   0  0  0  0  0  0  0  0  0  0  0  0
    2.4139    1.1185   -1.7694 O   0  0  0  0  0  0  0  0  0  0  0  0
   -7.1886   -0.3521   -0.1426 O   0  0  0  0  0  0  0  0  0  0  0  0
   -5.6220    3.4185    0.1036 O   0  0  0  0  0  0  0  0  0  0  0  0
   -7.4011    2.3198   -0.7874 O   0  0  0  0  0  0  0  0  0  0  0  0
    3.4701   -1.9569    0.1785 N   0  0  0  0  0  0  0  0  0  0  0  0
   -0.7813   -1.2142    0.3984 N   0  0  0  0  0  0  0  0  0  0  0  0
   -0.8642   -3.5232   -0.2759 N   0  0  0  0  0  0  0  0  0  0  0  0
   -2.7423   -2.1383   -0.4985 N   0  0  0  0  0  0  0  0  0  0  0  0
    1.1718   -0.1914    1.3560 C   0  0  0  0  0  0  0  0  0  0  0  0
    2.5319    0.1282    1.1404 C   0  0  0  0  0  0  0  0  0  0  0  0
    0.5122   -1.3747    0.7724 C   0  0  0  0  0  0  0  0  0  0  0  0
    3.4154   -0.6672    0.2253 C   0  0  0  0  0  0  0  0  0  0  0  0
    1.1656   -2.5973    0.6446 C   0  0  0  0  0  0  0  0  0  0  0  0
    2.6017   -2.7552    1.0341 C   0  0  0  0  0  0  0  0  0  0  0  0
    4.3014    0.0726   -0.7215 C   0  0  0  0  0  0  0  0  0  0  0  0
    0.4304    0.6613    2.2014 C   0  0  0  0  0  0  0  0  0  0  0  0
    3.1145    1.2352    1.7851 C   0  0  0  0  0  0  0  0  0  0  0  0
    0.4219   -3.6375    0.1089 C   0  0  0  0  0  0  0  0  0  0  0  0
    1.0114    1.7693    2.8216 C   0  0  0  0  0  0  0  0  0  0  0  0
    2.3551    2.0517    2.6186 C   0  0  0  0  0  0  0  0  0  0  0  0
   -1.3955   -2.3013   -0.1068 C   0  0  0  0  0  0  0  0  0  0  0  0
    3.7611    0.9328   -1.6775 C   0  0  0  0  0  0  0  0  0  0  0  0
    5.6829   -0.1024   -0.6423 C   0  0  0  0  0  0  0  0  0  0  0  0
    4.6024    1.6180   -2.5540 C   0  0  0  0  0  0  0  0  0  0  0  0
   -3.6145   -1.0343   -0.4729 C   0  0  0  0  0  0  0  0  0  0  0  0
    6.5242    0.5828   -1.5188 C   0  0  0  0  0  0  0  0  0  0  0  0
    5.9840    1.4431   -2.4748 C   0  0  0  0  0  0  0  0  0  0  0  0
   -4.9866   -1.2327   -0.3187 C   0  0  0  0  0  0  0  0  0  0  0  0
   -3.1070    0.2585   -0.6029 C   0  0  0  0  0  0  0  0  0  0  0  0
   -5.8511   -0.1384   -0.2943 C   0  0  0  0  0  0  0  0  0  0  0  0
   -5.3435    1.1544   -0.4242 C   0  0  0  0  0  0  0  0  0  0  0  0
   -3.9715    1.3529   -0.5785 C   0  0  0  0  0  0  0  0  0  0  0  0
    1.9513    2.0159   -2.7762 C   0  0  0  0  0  0  0  0  0  0  0  0
   -6.2289    2.3105   -0.4017 C   0  0  0  0  0  0  0  0  0  0  0  0
   -7.6178   -1.7061   -0.0171 C   0  0  0  0  0  0  0  0  0  0  0  0
    2.7483   -2.5164    2.0953 H   0  0  0  0  0  0  0  0  0  0  0  0
    2.9017   -3.8049    0.9303 H   0  0  0  0  0  0  0  0  0  0  0  0
   -0.6202    0.4596    2.4053 H   0  0  0  0  0  0  0  0  0  0  0  0
    4.1681    1.4639    1.6391 H   0  0  0  0  0  0  0  0  0  0  0  0
    0.8525   -4.6235   -0.0348 H   0  0  0  0  0  0  0  0  0  0  0  0
    0.4010    2.3938    3.4690 H   0  0  0  0  0  0  0  0  0  0  0  0
   -3.1842   -3.0196   -0.7425 H   0  0  0  0  0  0  0  0  0  0  0  0
    4.2563    2.3021   -3.3210 H   0  0  0  0  0  0  0  0  0  0  0  0
    7.5998    0.4464   -1.4568 H   0  0  0  0  0  0  0  0  0  0  0  0
    6.6403    1.9761   -3.1566 H   0  0  0  0  0  0  0  0  0  0  0  0
   -5.3208   -2.2604   -0.2213 H   0  0  0  0  0  0  0  0  0  0  0  0
   -2.0538    0.4570   -0.7718 H   0  0  0  0  0  0  0  0  0  0  0  0
   -3.5488    2.3463   -0.7043 H   0  0  0  0  0  0  0  0  0  0  0  0
    0.8587    2.0414   -2.7058 H   0  0  0  0  0  0  0  0  0  0  0  0
    2.1956    1.6565   -3.7816 H   0  0  0  0  0  0  0  0  0  0  0  0
    2.3037    3.0379   -2.5996 H   0  0  0  0  0  0  0  0  0  0  0  0
   -7.4025   -2.2844   -0.9222 H   0  0  0  0  0  0  0  0  0  0  0  0
   -7.2151   -2.1762    0.8866 H   0  0  0  0  0  0  0  0  0  0  0  0
   -8.7071   -1.6886    0.0946 H   0  0  0  0  0  0  0  0  0  0  0  0
   -6.2254    4.1919    0.1153 H   0  0  0  0  0  0  0  0  0  0  0  0
  1 22  1  0  0  0  0
  2 25  1  0  0  0  0
  3 24  1  0  0  0  0
  3 35  1  0  0  0  0
  4 32  1  0  0  0  0
  4 37  1  0  0  0  0
  5 36  1  0  0  0  0
  5 57  1  0  0  0  0
  6 36  2  0  0  0  0
  7 14  2  0  0  0  0
  7 16  1  0  0  0  0
  8 13  2  0  0  0  0
  8 23  1  0  0  0  0
  9 20  1  0  0  0  0
  9 23  2  0  0  0  0
 10 23  1  0  0  0  0
 10 27  1  0  0  0  0
 10 44  1  0  0  0  0
 11 12  2  0  0  0  0
 11 13  1  0  0  0  0
 11 18  1  0  0  0  0
 12 14  1  0  0  0  0
 12 19  1  0  0  0  0
 13 15  1  0  0  0  0
 14 17  1  0  0  0  0
 15 16  1  0  0  0  0
 15 20  2  0  0  0  0
 16 38  1  0  0  0  0
 16 39  1  0  0  0  0
 17 24  2  0  0  0  0
 17 25  1  0  0  0  0
 18 21  2  0  0  0  0
 18 40  1  0  0  0  0
 19 22  2  0  0  0  0
 19 41  1  0  0  0  0
 20 42  1  0  0  0  0
 21 22  1  0  0  0  0
 21 43  1  0  0  0  0
 24 26  1  0  0  0  0
 25 28  2  0  0  0  0
 26 29  2  0  0  0  0
 26 45  1  0  0  0  0
 27 30  2  0  0  0  0
 27 31  1  0  0  0  0
 28 29  1  0  0  0  0
 28 46  1  0  0  0  0
 29 47  1  0  0  0  0
 30 32  1  0  0  0  0
 30 48  1  0  0  0  0
 31 34  2  0  0  0  0
 31 49  1  0  0  0  0
 32 33  2  0  0  0  0
 33 34  1  0  0  0  0
 33 36  1  0  0  0  0
 34 50  1  0  0  0  0
 35 51  1  0  0  0  0
 35 52  1  0  0  0  0
 35 53  1  0  0  0  0
 37 54  1  0  0  0  0
 37 55  1  0  0  0  0
 37 56  1  0  0  0  0
M  END
> <PUBCHEM_COMPOUND_CID>
24771867

> <PUBCHEM_CONFORMER_RMSD>
1

> <PUBCHEM_CONFORMER_DIVERSEORDER>
5
15
70
38
33
47
82
44
75
63
39
27
78
71
77
22
74
64
80
6
55
26
28
67
79
43
2
12
30
40
61
8
48
49
35
50
53
20
57
56
37
45
1
81
69
59
51
52
41
9
73
60
19
62
4
29
68
36
58
76
3
72
14
23
54
7
24
65
16
13
34
10
66
42
17
46
21
25
11
18
31
32

> <PUBCHEM_MMFF94_PARTIAL_CHARGES>
48
1 -0.18
10 -0.6
12 0.09
13 0.31
14 0.28
15 -0.14
16 0.39
17 0.09
18 -0.15
19 -0.15
2 -0.19
20 0.16
21 -0.15
22 0.18
23 0.72
24 0.08
25 0.19
26 -0.15
27 0.1
28 -0.15
29 -0.15
3 -0.36
30 -0.15
31 -0.15
32 0.08
33 0.09
34 -0.15
35 0.28
36 0.63
37 0.28
4 -0.36
40 0.15
41 0.15
42 0.15
43 0.15
44 0.4
45 0.15
46 0.15
47 0.15
48 0.15
49 0.15
5 -0.65
50 0.15
57 0.5
6 -0.57
7 -0.7
8 -0.62
9 -0.62

> <PUBCHEM_EFFECTIVE_ROTOR_COUNT>
6.2

> <PUBCHEM_PHARMACOPHORE_FEATURES>
14
1 10 donor
1 3 acceptor
1 4 acceptor
1 5 acceptor
1 6 acceptor
1 7 acceptor
1 8 acceptor
3 5 6 36 anion
4 8 9 10 23 cation
6 11 12 18 19 21 22 rings
6 17 24 25 26 28 29 rings
6 27 30 31 32 33 34 rings
6 8 9 13 15 20 23 rings
7 7 11 12 13 14 15 16 rings

> <PUBCHEM_HEAVY_ATOM_COUNT>
37

> <PUBCHEM_ATOM_DEF_STEREO_COUNT>
0

> <PUBCHEM_ATOM_UDEF_STEREO_COUNT>
0

> <PUBCHEM_BOND_DEF_STEREO_COUNT>
0

> <PUBCHEM_BOND_UDEF_STEREO_COUNT>
0

> <PUBCHEM_ISOTOPIC_ATOM_COUNT>
0

> <PUBCHEM_COMPONENT_COUNT>
1

> <PUBCHEM_CACTVS_TAUTO_COUNT>
4

> <PUBCHEM_CONFORMER_ID>
0179FD1B00000005

> <PUBCHEM_MMFF94_ENERGY>
156.953

> <PUBCHEM_FEATURE_SELFOVERLAP>
71.136

> <PUBCHEM_SHAPE_FINGERPRINT>
10190206 1 18130521759724493712
10670039 82 18407758136474500229
10673678 19 18408610240310453934
11115154 58 15913055291812015995
11479125 193 17390534108654930412
11578080 2 18124029294424446924
11720765 8 17489587849186993952
11828532 37 18058452187186372415
1200032 147 17240773925666987804
13383665 225 17834674181684279919
13540713 4 17698723932771312626
13617811 41 18262509412366964605
13944108 23 18053943948799123697
14347329 18 18260548952220321931
14394314 77 18260838072867528877
14537116 161 17846217726974080597
14840074 17 17385725815905072525
14931854 50 18202291268820122326
15001296 14 17823418377887490669
15082195 135 18188755220173691135
15183329 4 17489597761465272859
15297060 5 18409460184452590901
15336146 87 18339626903144717637
15721738 15 18131084718663508278
16992727 255 18341054021465351360
18608769 82 18338799035108088715
19304671 126 17418083318035531401
19309040 13 16011595856530145462
19438510 23 17096655499101875228
19611394 137 17387432318545406355
20715895 44 18334862706123428766
21223535 225 16988011492298207721
22393880 68 18059281141628161411
23536364 44 17775292633764799993
25223398 141 18262807383611608219
3633792 109 18336275570539383446
376196 1 16982625225256755064
38570 142 17313393361145356758
4058900 60 18262523594006468003
46194498 28 17202482371497111796
508180 173 18341904008446554480
5252454 2 18337094718611389623
57035037 87 18338516469726766292
5776283 40 18191877935959746292
6523845 18 18199766863559381075
9658208 31 18268142235388557523

> <PUBCHEM_SHAPE_MULTIPOLES>
712.64
17.68
3.82
2.66
25.69
0.72
0.55
-7.06
-9.21
1.69
1.51
-5.38
-3.07
0.49

> <PUBCHEM_SHAPE_SELFOVERLAP>
1577.264

> <PUBCHEM_SHAPE_VOLUME>
381.2

> <PUBCHEM_COORDINATE_TYPE>
2
5
10

$$$$
