49830831
  -OEChem-10052120433D

 27 29  0     0  0  0  0  0  0999 V2000
    4.5614    1.0584   -0.1357 O   0  0  0  0  0  0  0  0  0  0  0  0
    2.5466   -0.1380    0.0113 N   0  0  0  0  0  0  0  0  0  0  0  0
    1.1407    1.5820   -0.2258 N   0  0  0  0  0  0  0  0  0  0  0  0
    2.4304    2.0379   -0.2774 N   0  0  0  0  0  0  0  0  0  0  0  0
   -5.3133    0.7078   -0.0459 N   0  0  0  0  0  0  0  0  0  0  0  0
    0.1735   -0.7196    0.0735 C   0  0  0  0  0  0  0  0  0  0  0  0
    1.2571    0.3006   -0.0523 C   0  0  0  0  0  0  0  0  0  0  0  0
   -1.2495   -0.3494    0.0426 C   0  0  0  0  0  0  0  0  0  0  0  0
    0.5691   -1.9990    0.2381 C   0  0  0  0  0  0  0  0  0  0  0  0
    2.9187   -1.4404    0.1774 C   0  0  0  0  0  0  0  0  0  0  0  0
    3.3422    0.9783   -0.1314 C   0  0  0  0  0  0  0  0  0  0  0  0
    1.9684   -2.3780    0.2890 C   0  0  0  0  0  0  0  0  0  0  0  0
   -2.0900   -0.8904   -0.9305 C   0  0  0  0  0  0  0  0  0  0  0  0
   -1.7588    0.5426    0.9863 C   0  0  0  0  0  0  0  0  0  0  0  0
   -3.4395   -0.5394   -0.9599 C   0  0  0  0  0  0  0  0  0  0  0  0
   -3.1084    0.8937    0.9569 C   0  0  0  0  0  0  0  0  0  0  0  0
   -3.9487    0.3528   -0.0162 C   0  0  0  0  0  0  0  0  0  0  0  0
   -0.1497   -2.8057    0.3503 H   0  0  0  0  0  0  0  0  0  0  0  0
    3.9774   -1.6643    0.2099 H   0  0  0  0  0  0  0  0  0  0  0  0
    2.2185   -3.4240    0.4213 H   0  0  0  0  0  0  0  0  0  0  0  0
   -1.7109   -1.5833   -1.6779 H   0  0  0  0  0  0  0  0  0  0  0  0
   -1.1200    0.9701    1.7554 H   0  0  0  0  0  0  0  0  0  0  0  0
    2.6235    3.0228   -0.4077 H   0  0  0  0  0  0  0  0  0  0  0  0
   -4.0841   -0.9668   -1.7238 H   0  0  0  0  0  0  0  0  0  0  0  0
   -3.4936    1.5890    1.6984 H   0  0  0  0  0  0  0  0  0  0  0  0
   -5.9230    0.3160   -0.7511 H   0  0  0  0  0  0  0  0  0  0  0  0
   -5.6831    1.3546    0.6380 H   0  0  0  0  0  0  0  0  0  0  0  0
  1 11  2  0  0  0  0
  2  7  1  0  0  0  0
  2 10  1  0  0  0  0
  2 11  1  0  0  0  0
  3  4  1  0  0  0  0
  3  7  2  0  0  0  0
  4 11  1  0  0  0  0
  4 23  1  0  0  0  0
  5 17  1  0  0  0  0
  5 26  1  0  0  0  0
  5 27  1  0  0  0  0
  6  7  1  0  0  0  0
  6  8  1  0  0  0  0
  6  9  2  0  0  0  0
  8 13  2  0  0  0  0
  8 14  1  0  0  0  0
  9 12  1  0  0  0  0
  9 18  1  0  0  0  0
 10 12  2  0  0  0  0
 10 19  1  0  0  0  0
 12 20  1  0  0  0  0
 13 15  1  0  0  0  0
 13 21  1  0  0  0  0
 14 16  2  0  0  0  0
 14 22  1  0  0  0  0
 15 17  2  0  0  0  0
 15 24  1  0  0  0  0
 16 17  1  0  0  0  0
 16 25  1  0  0  0  0
M  END
> <PUBCHEM_COMPOUND_CID>
49830831

> <PUBCHEM_CONFORMER_RMSD>
0.6

> <PUBCHEM_CONFORMER_DIVERSEORDER>
1
2

> <PUBCHEM_MMFF94_PARTIAL_CHARGES>
27
1 -0.57
10 -0.04
11 0.69
12 -0.15
13 -0.15
14 -0.15
15 -0.15
16 -0.15
17 0.1
18 0.15
19 0.15
2 -0.23
20 0.15
21 0.15
22 0.15
23 0.37
24 0.15
25 0.15
26 0.4
27 0.4
3 -0.51
4 -0.37
5 -0.9
6 -0.01
7 0.5
8 0.03
9 -0.15

> <PUBCHEM_EFFECTIVE_ROTOR_COUNT>
1

> <PUBCHEM_PHARMACOPHORE_FEATURES>
7
1 1 acceptor
1 4 donor
1 5 cation
1 5 donor
5 2 3 4 7 11 rings
6 2 6 7 9 10 12 rings
6 8 13 14 15 16 17 rings

> <PUBCHEM_HEAVY_ATOM_COUNT>
17

> <PUBCHEM_ATOM_DEF_STEREO_COUNT>
0

> <PUBCHEM_ATOM_UDEF_STEREO_COUNT>
0

> <PUBCHEM_BOND_DEF_STEREO_COUNT>
0

> <PUBCHEM_BOND_UDEF_STEREO_COUNT>
0

> <PUBCHEM_ISOTOPIC_ATOM_COUNT>
0

> <PUBCHEM_COMPONENT_COUNT>
1

> <PUBCHEM_CACTVS_TAUTO_COUNT>
11

> <PUBCHEM_CONFORMER_ID>
02F85BAF00000001

> <PUBCHEM_MMFF94_ENERGY>
64.57

> <PUBCHEM_FEATURE_SELFOVERLAP>
35.638

> <PUBCHEM_SHAPE_FINGERPRINT>
10980938 120 18409449159218612570
11471102 20 18408040689107842838
11578080 2 17627189478339598713
11796584 16 15267074622538968876
12236239 1 18131349696227241855
12346645 6 18410012117914988326
12644460 14 18187363199455212626
13009979 54 17701262408392544514
13380535 76 18335984263501778426
13538477 17 17917419943678011967
13760787 19 18272647965783508135
14144814 61 18412545388220519371
14251717 144 18409727335507647490
14897335 6 18412262856486765986
15342168 16 18042132105618812373
15442244 35 18124597483303760266
15536298 74 18272652320706149262
15669948 3 17632568375416962439
15775835 57 18342460356634236717
16945 1 18335139765435792082
1813 80 17910119010450429438
18186145 218 18410011026624166623
19862831 5 17846221076473525981
200 152 18272083920597316007
20279233 1 16950284000984548115
20559304 39 18272087145595639466
20612939 158 18409170974403245646
20645476 183 18201996664344854407
20645477 70 18338796715297942319
21267235 1 18341902831214311439
21524375 3 18338799030353568142
21639500 275 18336253617716445167
2255824 54 18337673014404019946
22854114 111 18409168800859526355
23048698 100 18340769252190436051
231179 274 17894623764661706132
23402539 116 17988638640102775860
23402655 69 18342455924417988797
23557571 272 15983674827556548619
23598291 2 18057896735807629483
25 1 18334856147228046774
2748010 2 17976269255029128898
3071541 37 18261116266382852606
3545911 37 18410295830601165715
474 4 18335703874740155033
5104073 3 18410012126621111243
57096353 35 18201710795373740415
633830 44 18340771549982174060
7364860 26 18343023242348011774
77492 1 18131628954942980915
8272917 22 18410858715945747271
84936 182 18201433748345255944
9981440 41 17622991809517325304

> <PUBCHEM_SHAPE_MULTIPOLES>
324.06
8.09
1.98
0.84
4.38
0.45
0.02
-2.61
-0.49
-1.97
0.05
0.55
0.02
-0.79

> <PUBCHEM_SHAPE_SELFOVERLAP>
722.719

> <PUBCHEM_SHAPE_VOLUME>
172.1

> <PUBCHEM_COORDINATE_TYPE>
2
5
10

$$$$
