10047545
  -OEChem-10062122013D

 74 76  0     1  0  0  0  0  0999 V2000
   -2.4329   -0.9763    2.7827 O   0  0  0  0  0  0  0  0  0  0  0  0
    1.1248   -0.1298   -2.5500 O   0  0  0  0  0  0  0  0  0  0  0  0
    6.5678    2.9704   -1.3759 O   0  0  0  0  0  0  0  0  0  0  0  0
   -1.3857   -1.5619   -0.2903 C   0  0  1  0  0  0  0  0  0  0  0  0
   -0.2053   -0.6345    0.0810 C   0  0  2  0  0  0  0  0  0  0  0  0
   -2.5521   -0.7428    0.3254 C   0  0  2  0  0  0  0  0  0  0  0  0
    1.1530   -1.1930   -0.3601 C   0  0  1  0  0  0  0  0  0  0  0  0
   -0.4397   -0.3337    1.5579 C   0  0  0  0  0  0  0  0  0  0  0  0
   -1.9746   -0.2217    1.6714 C   0  0  2  0  0  0  0  0  0  0  0  0
   -1.4257   -1.6870   -1.8237 C   0  0  0  0  0  0  0  0  0  0  0  0
   -3.8936   -1.4563    0.4301 C   0  0  1  0  0  0  0  0  0  0  0  0
    1.1316   -1.4013   -1.8966 C   0  0  1  0  0  0  0  0  0  0  0  0
   -0.0877   -2.2043   -2.3846 C   0  0  0  0  0  0  0  0  0  0  0  0
   -1.3008   -2.9755    0.3386 C   0  0  0  0  0  0  0  0  0  0  0  0
    2.3004   -0.2724    0.0644 C   0  0  0  0  0  0  0  0  0  0  0  0
   -5.0103   -0.5489    0.9872 C   0  0  0  0  0  0  0  0  0  0  0  0
   -4.3140   -1.9881   -0.9457 C   0  0  0  0  0  0  0  0  0  0  0  0
    3.6432   -0.8123   -0.4176 C   0  0  0  0  0  0  0  0  0  0  0  0
   -5.2759    0.7467    0.2089 C   0  0  0  0  0  0  0  0  0  0  0  0
    4.7762    0.0975   -0.0170 C   0  0  0  0  0  0  0  0  0  0  0  0
   -6.3425    1.6385    0.8526 C   0  0  0  0  0  0  0  0  0  0  0  0
   -6.6592    2.9045    0.0330 C   0  0  0  0  0  0  0  0  0  0  0  0
    5.4296   -0.0842    1.1937 C   0  0  0  0  0  0  0  0  0  0  0  0
    5.1484    1.1153   -0.8846 C   0  0  0  0  0  0  0  0  0  0  0  0
   -5.4266    3.8116   -0.0153 C   0  0  0  0  0  0  0  0  0  0  0  0
   -7.1161    2.5834   -1.3909 C   0  0  0  0  0  0  0  0  0  0  0  0
    6.4761    0.7687    1.5443 C   0  0  0  0  0  0  0  0  0  0  0  0
    6.1949    1.9682   -0.5340 C   0  0  0  0  0  0  0  0  0  0  0  0
    5.0375   -1.1755    2.1347 C   0  0  0  0  0  0  0  0  0  0  0  0
    6.8589    1.7948    0.6805 C   0  0  0  0  0  0  0  0  0  0  0  0
   -0.3391    0.3252   -0.4455 H   0  0  0  0  0  0  0  0  0  0  0  0
   -2.6691    0.1352   -0.3254 H   0  0  0  0  0  0  0  0  0  0  0  0
    1.3188   -2.1655    0.1184 H   0  0  0  0  0  0  0  0  0  0  0  0
    0.0390    0.6062    1.8529 H   0  0  0  0  0  0  0  0  0  0  0  0
   -0.0389   -1.1232    2.2035 H   0  0  0  0  0  0  0  0  0  0  0  0
   -2.2797    0.8194    1.8263 H   0  0  0  0  0  0  0  0  0  0  0  0
   -2.1843   -2.3825   -2.1811 H   0  0  0  0  0  0  0  0  0  0  0  0
   -1.6467   -0.7132   -2.2788 H   0  0  0  0  0  0  0  0  0  0  0  0
   -3.8230   -2.3169    1.1067 H   0  0  0  0  0  0  0  0  0  0  0  0
    2.0191   -1.9445   -2.2372 H   0  0  0  0  0  0  0  0  0  0  0  0
   -0.1375   -2.1612   -3.4798 H   0  0  0  0  0  0  0  0  0  0  0  0
    0.0421   -3.2587   -2.1158 H   0  0  0  0  0  0  0  0  0  0  0  0
   -2.1219   -3.6181    0.0089 H   0  0  0  0  0  0  0  0  0  0  0  0
   -0.3800   -3.4995    0.0689 H   0  0  0  0  0  0  0  0  0  0  0  0
   -1.3327   -2.9506    1.4316 H   0  0  0  0  0  0  0  0  0  0  0  0
    2.1406    0.7460   -0.3124 H   0  0  0  0  0  0  0  0  0  0  0  0
    2.3082   -0.1848    1.1571 H   0  0  0  0  0  0  0  0  0  0  0  0
   -5.9439   -1.1248    1.0383 H   0  0  0  0  0  0  0  0  0  0  0  0
   -4.7773   -0.2845    2.0253 H   0  0  0  0  0  0  0  0  0  0  0  0
   -3.8341   -2.9395   -1.1807 H   0  0  0  0  0  0  0  0  0  0  0  0
   -5.3877   -2.2146   -0.9518 H   0  0  0  0  0  0  0  0  0  0  0  0
   -4.1437   -1.2643   -1.7485 H   0  0  0  0  0  0  0  0  0  0  0  0
   -2.0051   -0.6143    3.5774 H   0  0  0  0  0  0  0  0  0  0  0  0
    3.6776   -0.8973   -1.5089 H   0  0  0  0  0  0  0  0  0  0  0  0
    3.8045   -1.8333   -0.0539 H   0  0  0  0  0  0  0  0  0  0  0  0
    2.0193    0.2446   -2.4936 H   0  0  0  0  0  0  0  0  0  0  0  0
   -5.5753    0.4792   -0.8087 H   0  0  0  0  0  0  0  0  0  0  0  0
   -4.3481    1.3191    0.1370 H   0  0  0  0  0  0  0  0  0  0  0  0
   -7.2661    1.0580    0.9714 H   0  0  0  0  0  0  0  0  0  0  0  0
   -6.0219    1.9239    1.8622 H   0  0  0  0  0  0  0  0  0  0  0  0
   -7.4664    3.4422    0.5458 H   0  0  0  0  0  0  0  0  0  0  0  0
    4.6330    1.2576   -1.8310 H   0  0  0  0  0  0  0  0  0  0  0  0
   -5.6889    4.7786   -0.4591 H   0  0  0  0  0  0  0  0  0  0  0  0
   -4.6184    3.3883   -0.6198 H   0  0  0  0  0  0  0  0  0  0  0  0
   -5.0404    4.0057    0.9909 H   0  0  0  0  0  0  0  0  0  0  0  0
   -7.9348    1.8565   -1.3830 H   0  0  0  0  0  0  0  0  0  0  0  0
   -7.4833    3.4913   -1.8823 H   0  0  0  0  0  0  0  0  0  0  0  0
   -6.3064    2.1867   -2.0112 H   0  0  0  0  0  0  0  0  0  0  0  0
    7.0045    0.6474    2.4862 H   0  0  0  0  0  0  0  0  0  0  0  0
    5.2434   -2.1568    1.6950 H   0  0  0  0  0  0  0  0  0  0  0  0
    5.6056   -1.1201    3.0705 H   0  0  0  0  0  0  0  0  0  0  0  0
    3.9809   -1.1085    2.4078 H   0  0  0  0  0  0  0  0  0  0  0  0
    7.6756    2.4526    0.9653 H   0  0  0  0  0  0  0  0  0  0  0  0
    7.3056    3.4610   -0.9745 H   0  0  0  0  0  0  0  0  0  0  0  0
  1  9  1  0  0  0  0
  1 53  1  0  0  0  0
  2 12  1  0  0  0  0
  2 56  1  0  0  0  0
  3 28  1  0  0  0  0
  3 74  1  0  0  0  0
  4  5  1  0  0  0  0
  4  6  1  0  0  0  0
  4 10  1  0  0  0  0
  4 14  1  0  0  0  0
  5  7  1  0  0  0  0
  5  8  1  0  0  0  0
  5 31  1  0  0  0  0
  6  9  1  0  0  0  0
  6 11  1  0  0  0  0
  6 32  1  0  0  0  0
  7 12  1  0  0  0  0
  7 15  1  0  0  0  0
  7 33  1  0  0  0  0
  8  9  1  0  0  0  0
  8 34  1  0  0  0  0
  8 35  1  0  0  0  0
  9 36  1  0  0  0  0
 10 13  1  0  0  0  0
 10 37  1  0  0  0  0
 10 38  1  0  0  0  0
 11 16  1  0  0  0  0
 11 17  1  0  0  0  0
 11 39  1  0  0  0  0
 12 13  1  0  0  0  0
 12 40  1  0  0  0  0
 13 41  1  0  0  0  0
 13 42  1  0  0  0  0
 14 43  1  0  0  0  0
 14 44  1  0  0  0  0
 14 45  1  0  0  0  0
 15 18  1  0  0  0  0
 15 46  1  0  0  0  0
 15 47  1  0  0  0  0
 16 19  1  0  0  0  0
 16 48  1  0  0  0  0
 16 49  1  0  0  0  0
 17 50  1  0  0  0  0
 17 51  1  0  0  0  0
 17 52  1  0  0  0  0
 18 20  1  0  0  0  0
 18 54  1  0  0  0  0
 18 55  1  0  0  0  0
 19 21  1  0  0  0  0
 19 57  1  0  0  0  0
 19 58  1  0  0  0  0
 20 23  2  0  0  0  0
 20 24  1  0  0  0  0
 21 22  1  0  0  0  0
 21 59  1  0  0  0  0
 21 60  1  0  0  0  0
 22 25  1  0  0  0  0
 22 26  1  0  0  0  0
 22 61  1  0  0  0  0
 23 27  1  0  0  0  0
 23 29  1  0  0  0  0
 24 28  2  0  0  0  0
 24 62  1  0  0  0  0
 25 63  1  0  0  0  0
 25 64  1  0  0  0  0
 25 65  1  0  0  0  0
 26 66  1  0  0  0  0
 26 67  1  0  0  0  0
 26 68  1  0  0  0  0
 27 30  2  0  0  0  0
 27 69  1  0  0  0  0
 28 30  1  0  0  0  0
 29 70  1  0  0  0  0
 29 71  1  0  0  0  0
 29 72  1  0  0  0  0
 30 73  1  0  0  0  0
M  END
> <PUBCHEM_COMPOUND_CID>
10047545

> <PUBCHEM_CONFORMER_RMSD>
1

> <PUBCHEM_CONFORMER_DIVERSEORDER>
3
19
28
26
15
30
13
9
17
12
20
23
14
24
27
29
10
22
7
2
21
5
4
25
11
18
16
6
1
8

> <PUBCHEM_MMFF94_PARTIAL_CHARGES>
19
1 -0.68
12 0.28
18 0.14
2 -0.68
20 -0.14
23 -0.14
24 -0.15
27 -0.15
28 0.08
29 0.14
3 -0.53
30 -0.15
53 0.4
56 0.4
62 0.15
69 0.15
73 0.15
74 0.45
9 0.28

> <PUBCHEM_EFFECTIVE_ROTOR_COUNT>
9.4

> <PUBCHEM_PHARMACOPHORE_FEATURES>
11
1 1 acceptor
1 1 donor
1 17 hydrophobe
1 2 acceptor
1 2 donor
1 3 donor
3 22 25 26 hydrophobe
5 11 16 19 21 22 hydrophobe
5 4 5 6 8 9 rings
6 20 23 24 27 28 30 rings
6 4 5 7 10 12 13 rings

> <PUBCHEM_HEAVY_ATOM_COUNT>
30

> <PUBCHEM_ATOM_DEF_STEREO_COUNT>
7

> <PUBCHEM_ATOM_UDEF_STEREO_COUNT>
0

> <PUBCHEM_BOND_DEF_STEREO_COUNT>
0

> <PUBCHEM_BOND_UDEF_STEREO_COUNT>
0

> <PUBCHEM_ISOTOPIC_ATOM_COUNT>
0

> <PUBCHEM_COMPONENT_COUNT>
1

> <PUBCHEM_CACTVS_TAUTO_COUNT>
9

> <PUBCHEM_CONFORMER_ID>
0099503900000003

> <PUBCHEM_MMFF94_ENERGY>
96.9505

> <PUBCHEM_FEATURE_SELFOVERLAP>
55.885

> <PUBCHEM_SHAPE_FINGERPRINT>
10554248 39 17560521681599837150
10670039 82 17202505397824575608
10692045 39 17168148871401016515
10883706 17 11167936961981191188
10906281 52 17916886663173984027
11578080 2 18271528585700214031
11646440 116 14634587172989730448
117089 54 12245384741821238997
11720765 8 17044578943597574095
12236239 1 18270679878851445266
12596602 18 18263365948930921570
12895837 130 18411140251600710781
13257819 101 18271242725545959557
13782708 43 7853567994177996281
13911987 19 17132114624384869663
14251764 30 9007051353516283805
14767858 380 16056594331583968321
15131766 46 18193554704604397348
15575132 122 18202008750018841008
15840311 113 17896598393425241483
17492 54 16200144366472862015
17980427 23 18186804703250768437
19958102 18 13110964240741380188
20511986 3 18202275914270159442
21033648 29 18334304145067421255
21130935 74 17385724703203049194
21424621 283 18260269625128108043
21521239 73 13614520757862692276
21792938 703 9295020111428628368
22122407 14 18188501292743027432
221357 26 14261085289780745554
2260408 40 16733267833296558867
23559900 14 15913046590429865378
249057 25 17168718534921233719
2748736 6 18342172216153580569
2838139 119 18412818080295402541
3103668 31 16485262162708760591
312425 54 17095243626827874658
3862424 121 11023240170956231485
5104073 3 16009566055144115220
5470011 282 12823002141195091009
6058803 2 14998857669143586923
8863177 126 10737587032589668957
9896288 288 12540957570501027455
999808 66 11458426830047664385

> <PUBCHEM_SHAPE_MULTIPOLES>
599.78
19.7
3.38
2.13
5.81
2.21
-0.07
22.31
1.69
-4.21
-1.28
0.73
-0.71
-0.2

> <PUBCHEM_SHAPE_SELFOVERLAP>
1238.039

> <PUBCHEM_SHAPE_VOLUME>
344.6

> <PUBCHEM_COORDINATE_TYPE>
2
5
10

$$$$
