136027089
  -OEChem-10052115193D

 40 42  0     0  0  0  0  0  0999 V2000
   -3.5308   -3.5490    2.0094 Br  0  0  0  0  0  0  0  0  0  0  0  0
   -2.6172    0.6693    0.3769 F   0  0  0  0  0  0  0  0  0  0  0  0
   -2.3163    1.9467    2.1177 F   0  0  0  0  0  0  0  0  0  0  0  0
   -2.9439    2.8192    0.2212 F   0  0  0  0  0  0  0  0  0  0  0  0
    3.4298   -1.8061   -0.0886 O   0  0  0  0  0  0  0  0  0  0  0  0
    2.0112    4.3727    0.5535 O   0  0  0  0  0  0  0  0  0  0  0  0
    5.3391   -1.8118    1.2120 O   0  0  0  0  0  0  0  0  0  0  0  0
    1.6015    0.0356   -1.3049 N   0  0  0  0  0  0  0  0  0  0  0  0
    0.6018   -0.8702   -1.3908 N   0  0  0  0  0  0  0  0  0  0  0  0
    1.9957    2.2728   -0.4070 N   0  0  0  0  0  0  0  0  0  0  0  0
   -0.0823    1.0060   -0.3035 C   0  0  0  0  0  0  0  0  0  0  0  0
    1.2265    1.1692   -0.6603 C   0  0  0  0  0  0  0  0  0  0  0  0
   -0.4265   -0.2670   -0.7745 C   0  0  0  0  0  0  0  0  0  0  0  0
   -0.7273    2.0601    0.3933 C   0  0  0  0  0  0  0  0  0  0  0  0
    2.8932   -0.2731   -1.8700 C   0  0  0  0  0  0  0  0  0  0  0  0
   -1.6869   -0.9580   -0.6757 C   0  0  0  0  0  0  0  0  0  0  0  0
   -0.0380    3.1824    0.6815 C   0  0  0  0  0  0  0  0  0  0  0  0
    3.9096   -0.6767   -0.8074 C   0  0  0  0  0  0  0  0  0  0  0  0
    1.4108    3.3359    0.2746 C   0  0  0  0  0  0  0  0  0  0  0  0
   -2.1599    1.8733    0.7794 C   0  0  0  0  0  0  0  0  0  0  0  0
   -1.9507   -1.7749    0.4238 C   0  0  0  0  0  0  0  0  0  0  0  0
   -2.6439   -0.8092   -1.6796 C   0  0  0  0  0  0  0  0  0  0  0  0
   -3.1715   -2.4429    0.5196 C   0  0  0  0  0  0  0  0  0  0  0  0
   -3.8646   -1.4774   -1.5840 C   0  0  0  0  0  0  0  0  0  0  0  0
   -4.1285   -2.2940   -0.4843 C   0  0  0  0  0  0  0  0  0  0  0  0
    4.2499   -2.2740    0.9003 C   0  0  0  0  0  0  0  0  0  0  0  0
    3.6192   -3.4588    1.5672 C   0  0  0  0  0  0  0  0  0  0  0  0
    3.2374    0.6036   -2.4286 H   0  0  0  0  0  0  0  0  0  0  0  0
    2.7497   -1.0924   -2.5844 H   0  0  0  0  0  0  0  0  0  0  0  0
    2.9628    2.3073   -0.7108 H   0  0  0  0  0  0  0  0  0  0  0  0
   -0.4909    4.0129    1.2123 H   0  0  0  0  0  0  0  0  0  0  0  0
    4.0805    0.1505   -0.1083 H   0  0  0  0  0  0  0  0  0  0  0  0
    4.8586   -0.9292   -1.2943 H   0  0  0  0  0  0  0  0  0  0  0  0
   -1.2040   -1.8901    1.2073 H   0  0  0  0  0  0  0  0  0  0  0  0
   -2.4543   -0.1754   -2.5427 H   0  0  0  0  0  0  0  0  0  0  0  0
   -4.6099   -1.3611   -2.3654 H   0  0  0  0  0  0  0  0  0  0  0  0
   -5.0849   -2.8071   -0.4250 H   0  0  0  0  0  0  0  0  0  0  0  0
    2.6625   -3.1690    2.0091 H   0  0  0  0  0  0  0  0  0  0  0  0
    4.2760   -3.8191    2.3642 H   0  0  0  0  0  0  0  0  0  0  0  0
    3.4798   -4.2623    0.8398 H   0  0  0  0  0  0  0  0  0  0  0  0
  1 23  1  0  0  0  0
  2 20  1  0  0  0  0
  3 20  1  0  0  0  0
  4 20  1  0  0  0  0
  5 18  1  0  0  0  0
  5 26  1  0  0  0  0
  6 19  2  0  0  0  0
  7 26  2  0  0  0  0
  8  9  1  0  0  0  0
  8 12  1  0  0  0  0
  8 15  1  0  0  0  0
  9 13  2  0  0  0  0
 10 12  1  0  0  0  0
 10 19  1  0  0  0  0
 10 30  1  0  0  0  0
 11 12  2  0  0  0  0
 11 13  1  0  0  0  0
 11 14  1  0  0  0  0
 13 16  1  0  0  0  0
 14 17  2  0  0  0  0
 14 20  1  0  0  0  0
 15 18  1  0  0  0  0
 15 28  1  0  0  0  0
 15 29  1  0  0  0  0
 16 21  2  0  0  0  0
 16 22  1  0  0  0  0
 17 19  1  0  0  0  0
 17 31  1  0  0  0  0
 18 32  1  0  0  0  0
 18 33  1  0  0  0  0
 21 23  1  0  0  0  0
 21 34  1  0  0  0  0
 22 24  2  0  0  0  0
 22 35  1  0  0  0  0
 23 25  2  0  0  0  0
 24 25  1  0  0  0  0
 24 36  1  0  0  0  0
 25 37  1  0  0  0  0
 26 27  1  0  0  0  0
 27 38  1  0  0  0  0
 27 39  1  0  0  0  0
 27 40  1  0  0  0  0
M  END
> <PUBCHEM_COMPOUND_CID>
136027089

> <PUBCHEM_CONFORMER_RMSD>
0.8

> <PUBCHEM_CONFORMER_DIVERSEORDER>
1
9
28
26
27
25
17
11
29
24
20
23
15
3
8
13
10
18
14
19
4
5
22
12
16
6
21
2
7

> <PUBCHEM_MMFF94_PARTIAL_CHARGES>
33
1 -0.11
10 -0.49
11 -0.05
12 -0.09
13 0.23
14 -0.09
15 0.26
16 0.05
17 -0.14
18 0.28
19 0.62
2 -0.34
20 1.16
21 -0.15
22 -0.15
23 0.11
24 -0.15
25 -0.15
26 0.66
27 0.06
3 -0.34
30 0.37
31 0.15
34 0.15
35 0.15
36 0.15
37 0.15
4 -0.34
5 -0.43
6 -0.57
7 -0.57
8 0.31
9 -0.71

> <PUBCHEM_EFFECTIVE_ROTOR_COUNT>
6

> <PUBCHEM_PHARMACOPHORE_FEATURES>
8
1 1 hydrophobe
1 10 donor
1 6 acceptor
1 7 acceptor
1 9 acceptor
5 8 9 11 12 13 rings
6 10 11 12 14 17 19 rings
6 16 21 22 23 24 25 rings

> <PUBCHEM_HEAVY_ATOM_COUNT>
27

> <PUBCHEM_ATOM_DEF_STEREO_COUNT>
0

> <PUBCHEM_ATOM_UDEF_STEREO_COUNT>
0

> <PUBCHEM_BOND_DEF_STEREO_COUNT>
0

> <PUBCHEM_BOND_UDEF_STEREO_COUNT>
0

> <PUBCHEM_ISOTOPIC_ATOM_COUNT>
0

> <PUBCHEM_COMPONENT_COUNT>
1

> <PUBCHEM_CACTVS_TAUTO_COUNT>
-1

> <PUBCHEM_CONFORMER_ID>
081B9BD100000001

> <PUBCHEM_MMFF94_ENERGY>
70.1336

> <PUBCHEM_FEATURE_SELFOVERLAP>
40.697

> <PUBCHEM_SHAPE_FINGERPRINT>
10382601 240 17554067797505667989
10928967 22 16884412040876187882
1100329 8 18339642226976112873
11578080 2 18040983055954744068
12160290 23 17983874288605154221
12553582 1 18200046143080212670
12788726 201 18340217331475998422
12824470 246 18186809088338991750
13083527 12 18058999713479126036
13140716 1 18201169783849944736
14844126 61 18198890448890408423
15042514 8 18125447414418908622
15475509 35 17898589810757696571
20600515 1 18057604265947275736
21033648 29 16773516564617374114
21421861 104 18268999858694563600
23366157 5 18264212580920628284
23419403 2 18120622907963007972
23559900 14 17823128102475148839
4058900 60 17760658361474592757
57527295 17 18266169716313677943
58807428 26 17331972620668565152
7471813 234 18129642214572203151
81228 2 17986123915191553493
90316 7 18124876764069543492

> <PUBCHEM_SHAPE_MULTIPOLES>
507.22
8.17
5.16
1.75
1.38
1.49
0.01
-8.95
0.95
2.85
3.6
-0.61
-0.76
-0.58

> <PUBCHEM_SHAPE_SELFOVERLAP>
1100.223

> <PUBCHEM_SHAPE_VOLUME>
284.2

> <PUBCHEM_COORDINATE_TYPE>
2
5
10

$$$$
