18451176
  -OEChem-10062121523D

 58 61  0     0  0  0  0  0  0999 V2000
   -4.2234    1.2466    1.0023 S   0  0  0  0  0  0  0  0  0  0  0  0
    4.4109    0.8089   -0.9850 O   0  0  0  0  0  0  0  0  0  0  0  0
   -3.6491   -2.7087   -1.0192 N   0  0  0  0  0  0  0  0  0  0  0  0
    3.6888   -0.2114    0.9966 N   0  0  0  0  0  0  0  0  0  0  0  0
   -1.3194   -2.4933   -0.6823 N   0  0  0  0  0  0  0  0  0  0  0  0
    5.9493   -0.0660    0.5436 N   0  0  0  0  0  0  0  0  0  0  0  0
   -9.2882    1.5210   -0.7033 N   0  0  0  0  0  0  0  0  0  0  0  0
   -1.9143    0.1925    0.6715 C   0  0  0  0  0  0  0  0  0  0  0  0
   -2.8399   -0.7391    0.0932 C   0  0  0  0  0  0  0  0  0  0  0  0
   -0.4782    0.0882    0.7555 C   0  0  0  0  0  0  0  0  0  0  0  0
   -4.1555   -0.2809    0.2068 C   0  0  0  0  0  0  0  0  0  0  0  0
   -2.5305    1.3039    1.1955 C   0  0  0  0  0  0  0  0  0  0  0  0
   -2.6218   -1.9755   -0.5349 C   0  0  0  0  0  0  0  0  0  0  0  0
   -5.2309   -1.0276   -0.2891 C   0  0  0  0  0  0  0  0  0  0  0  0
    0.1144   -0.5215    1.8614 C   0  0  0  0  0  0  0  0  0  0  0  0
    0.3181    0.5983   -0.2697 C   0  0  0  0  0  0  0  0  0  0  0  0
    2.2997   -0.1107    0.9165 C   0  0  0  0  0  0  0  0  0  0  0  0
    1.5033   -0.6210    1.9419 C   0  0  0  0  0  0  0  0  0  0  0  0
    1.7070    0.4989   -0.1892 C   0  0  0  0  0  0  0  0  0  0  0  0
   -4.9018   -2.2304   -0.8889 C   0  0  0  0  0  0  0  0  0  0  0  0
   -6.5749   -0.5719   -0.1761 C   0  0  0  0  0  0  0  0  0  0  0  0
    4.6624    0.2383    0.0715 C   0  0  0  0  0  0  0  0  0  0  0  0
    7.1917    0.2098   -0.0747 C   0  0  0  0  0  0  0  0  0  0  0  0
    9.6051    0.1031   -0.0622 C   0  0  0  0  0  0  0  0  0  0  0  0
    8.3808   -0.1702    0.5476 C   0  0  0  0  0  0  0  0  0  0  0  0
   -9.0929    0.2808    0.0368 C   0  0  0  0  0  0  0  0  0  0  0  0
    7.2270    0.8628   -1.3068 C   0  0  0  0  0  0  0  0  0  0  0  0
   -7.7087   -0.1862   -0.0816 C   0  0  0  0  0  0  0  0  0  0  0  0
    9.6406    0.7562   -1.2942 C   0  0  0  0  0  0  0  0  0  0  0  0
    8.4514    1.1360   -1.9164 C   0  0  0  0  0  0  0  0  0  0  0  0
   10.8769   -0.3012    0.6039 C   0  0  0  0  0  0  0  0  0  0  0  0
  -10.7017    1.7055   -1.0379 C   0  0  0  0  0  0  0  0  0  0  0  0
   -8.7960    2.6647    0.0670 C   0  0  0  0  0  0  0  0  0  0  0  0
   -2.0755    2.1544    1.6858 H   0  0  0  0  0  0  0  0  0  0  0  0
   -0.4921   -0.9253    2.6686 H   0  0  0  0  0  0  0  0  0  0  0  0
   -0.1293    1.0752   -1.1388 H   0  0  0  0  0  0  0  0  0  0  0  0
    1.9517   -1.0992    2.8091 H   0  0  0  0  0  0  0  0  0  0  0  0
    2.2526    0.9172   -1.0229 H   0  0  0  0  0  0  0  0  0  0  0  0
   -5.6709   -2.8778   -1.3023 H   0  0  0  0  0  0  0  0  0  0  0  0
    4.0463   -0.6689    1.8317 H   0  0  0  0  0  0  0  0  0  0  0  0
   -1.2173   -3.3883   -1.1434 H   0  0  0  0  0  0  0  0  0  0  0  0
   -0.4953   -2.0192   -0.3553 H   0  0  0  0  0  0  0  0  0  0  0  0
    6.0055   -0.5437    1.4395 H   0  0  0  0  0  0  0  0  0  0  0  0
    8.3546   -0.6774    1.5094 H   0  0  0  0  0  0  0  0  0  0  0  0
   -9.7269   -0.5115   -0.3834 H   0  0  0  0  0  0  0  0  0  0  0  0
   -9.3861    0.3797    1.0895 H   0  0  0  0  0  0  0  0  0  0  0  0
    6.3529    1.1889   -1.8517 H   0  0  0  0  0  0  0  0  0  0  0  0
   10.5881    0.9768   -1.7784 H   0  0  0  0  0  0  0  0  0  0  0  0
    8.4803    1.6452   -2.8756 H   0  0  0  0  0  0  0  0  0  0  0  0
   11.6646   -0.4974   -0.1315 H   0  0  0  0  0  0  0  0  0  0  0  0
   10.7433   -1.2214    1.1828 H   0  0  0  0  0  0  0  0  0  0  0  0
   11.2167    0.4918    1.2774 H   0  0  0  0  0  0  0  0  0  0  0  0
  -11.0591    0.8867   -1.6724 H   0  0  0  0  0  0  0  0  0  0  0  0
  -10.8442    2.6281   -1.6117 H   0  0  0  0  0  0  0  0  0  0  0  0
  -11.3346    1.7534   -0.1441 H   0  0  0  0  0  0  0  0  0  0  0  0
   -7.7259    2.5695    0.2813 H   0  0  0  0  0  0  0  0  0  0  0  0
   -9.3289    2.7861    1.0174 H   0  0  0  0  0  0  0  0  0  0  0  0
   -8.9123    3.5899   -0.5090 H   0  0  0  0  0  0  0  0  0  0  0  0
  1 11  1  0  0  0  0
  1 12  1  0  0  0  0
  2 22  2  0  0  0  0
  3 13  2  0  0  0  0
  3 20  1  0  0  0  0
  4 17  1  0  0  0  0
  4 22  1  0  0  0  0
  4 40  1  0  0  0  0
  5 13  1  0  0  0  0
  5 41  1  0  0  0  0
  5 42  1  0  0  0  0
  6 22  1  0  0  0  0
  6 23  1  0  0  0  0
  6 43  1  0  0  0  0
  7 26  1  0  0  0  0
  7 32  1  0  0  0  0
  7 33  1  0  0  0  0
  8  9  1  0  0  0  0
  8 10  1  0  0  0  0
  8 12  2  0  0  0  0
  9 11  2  0  0  0  0
  9 13  1  0  0  0  0
 10 15  2  0  0  0  0
 10 16  1  0  0  0  0
 11 14  1  0  0  0  0
 12 34  1  0  0  0  0
 14 20  2  0  0  0  0
 14 21  1  0  0  0  0
 15 18  1  0  0  0  0
 15 35  1  0  0  0  0
 16 19  2  0  0  0  0
 16 36  1  0  0  0  0
 17 18  2  0  0  0  0
 17 19  1  0  0  0  0
 18 37  1  0  0  0  0
 19 38  1  0  0  0  0
 20 39  1  0  0  0  0
 21 28  3  0  0  0  0
 23 25  1  0  0  0  0
 23 27  2  0  0  0  0
 24 25  2  0  0  0  0
 24 29  1  0  0  0  0
 24 31  1  0  0  0  0
 25 44  1  0  0  0  0
 26 28  1  0  0  0  0
 26 45  1  0  0  0  0
 26 46  1  0  0  0  0
 27 30  1  0  0  0  0
 27 47  1  0  0  0  0
 29 30  2  0  0  0  0
 29 48  1  0  0  0  0
 30 49  1  0  0  0  0
 31 50  1  0  0  0  0
 31 51  1  0  0  0  0
 31 52  1  0  0  0  0
 32 53  1  0  0  0  0
 32 54  1  0  0  0  0
 32 55  1  0  0  0  0
 33 56  1  0  0  0  0
 33 57  1  0  0  0  0
 33 58  1  0  0  0  0
M  END
> <PUBCHEM_COMPOUND_CID>
18451176

> <PUBCHEM_CONFORMER_RMSD>
0.8

> <PUBCHEM_CONFORMER_DIVERSEORDER>
1
26
7
11
15
4
27
8
24
31
10
2
29
13
9
18
12
22
3
30
20
25
5
17
32
6
14
19
28
16
23
21

> <PUBCHEM_MMFF94_PARTIAL_CHARGES>
46
1 -0.08
10 0.05
11 0.04
12 -0.11
13 0.41
14 0.07
15 -0.15
16 -0.15
17 0.12
18 -0.15
19 -0.15
2 -0.57
20 0.16
21 -0.07
22 0.69
23 0.12
24 -0.14
25 -0.15
26 0.47
27 -0.15
28 -0.2
29 -0.15
3 -0.62
30 -0.15
31 0.14
32 0.27
33 0.27
34 0.15
35 0.15
36 0.15
37 0.15
38 0.15
39 0.15
4 -0.55
40 0.37
41 0.4
42 0.4
43 0.37
44 0.15
47 0.15
48 0.15
49 0.15
5 -0.9
6 -0.55
7 -0.81
8 -0.05

> <PUBCHEM_EFFECTIVE_ROTOR_COUNT>
6

> <PUBCHEM_PHARMACOPHORE_FEATURES>
10
1 2 acceptor
1 4 donor
1 5 donor
1 6 donor
1 7 cation
3 3 5 13 cation
5 1 8 9 11 12 rings
6 10 15 16 17 18 19 rings
6 23 24 25 27 29 30 rings
6 3 9 11 13 14 20 rings

> <PUBCHEM_HEAVY_ATOM_COUNT>
33

> <PUBCHEM_ATOM_DEF_STEREO_COUNT>
0

> <PUBCHEM_ATOM_UDEF_STEREO_COUNT>
0

> <PUBCHEM_BOND_DEF_STEREO_COUNT>
0

> <PUBCHEM_BOND_UDEF_STEREO_COUNT>
0

> <PUBCHEM_ISOTOPIC_ATOM_COUNT>
0

> <PUBCHEM_COMPONENT_COUNT>
1

> <PUBCHEM_CACTVS_TAUTO_COUNT>
6

> <PUBCHEM_CONFORMER_ID>
01198AE800000001

> <PUBCHEM_MMFF94_ENERGY>
100.9357

> <PUBCHEM_FEATURE_SELFOVERLAP>
50.86

> <PUBCHEM_SHAPE_FINGERPRINT>
10162869 55 12967127220717473832
10190206 1 17846503578939535777
10299344 5 18408886257306526982
106641 1 9367347037440806962
10674148 151 18341890818116685202
11410812 94 13182750209122638491
11828042 53 17913774920883359529
12089408 11 18186518825853665194
12144603 126 18186518795651536307
12522641 33 18334016073543534274
12643181 29 17632577192594885719
12664476 115 14779265328151125284
12758862 11 17632291315265816395
12838862 33 16917064460812722598
13947947 74 17846781802145779563
14040221 8 18130795550925999832
14117953 113 18131912667819432973
14251764 46 18410575088958046218
14294032 229 18339360739663659489
14428016 248 17675927594846491133
15065858 18 17203608203375619718
15183329 4 17894628189306404034
15198563 99 17489597718468712969
15247644 1 13901907816922779988
15419008 91 17418081110917999416
15510794 2 16702028565685505606
16087824 20 18411980222982475217
20501277 279 14345792739210192573
20609170 92 18201160932739597029
20721686 146 17969493816104595149
21360443 120 18408323272260878555
21360443 89 7781504912100792097
21781055 127 18260542295511565880
21792961 116 16630250233608543585
23559900 14 17702373138885808785
249057 3 18273216430279687048
3092352 35 17894348900135991267
335352 9 18201432585268337615
4017518 198 17203326720020361887
4625314 4 17845931939370345352
4760202 170 18342454902575430128
4874694 18 17775567529363465598
57828716 8 12175617365936455629
58083652 198 15626223567760944778
58902169 19 18187929547360664134
59521270 166 18411979135843449077
6691757 9 17989216949761340947
6698420 124 17385729139809137920
9663363 56 16630522939179855570
9962374 69 12895063016593041320

> <PUBCHEM_SHAPE_MULTIPOLES>
652.2
38.52
1.9
1.39
30.47
0.49
-0.12
-17.11
12.4
-5.11
0.65
1.36
-0.06
-1.79

> <PUBCHEM_SHAPE_SELFOVERLAP>
1404.977

> <PUBCHEM_SHAPE_VOLUME>
361.1

> <PUBCHEM_COORDINATE_TYPE>
2
5
10

$$$$
