6539560
  -OEChem-10062122013D

 44 46  0     0  0  0  0  0  0999 V2000
   -3.8172   -0.3104   -1.9352 F   0  0  0  0  0  0  0  0  0  0  0  0
   -5.6122   -2.3528   -1.8397 F   0  0  0  0  0  0  0  0  0  0  0  0
    3.9663    2.2040   -0.4950 O   0  0  0  0  0  0  0  0  0  0  0  0
    5.6402   -2.5269    0.1957 N   0  0  0  0  0  0  0  0  0  0  0  0
    2.0493    0.8550   -0.3286 N   0  0  0  0  0  0  0  0  0  0  0  0
    0.0727    3.6104    0.2683 N   0  0  0  0  0  0  0  0  0  0  0  0
    1.2891    3.0895    0.0215 N   0  0  0  0  0  0  0  0  0  0  0  0
   -2.2210    2.8828    0.5583 N   0  0  0  0  0  0  0  0  0  0  0  0
   -2.9937    1.8063    0.5707 N   0  0  0  0  0  0  0  0  0  0  0  0
    5.6075   -0.1224   -0.2759 C   0  0  0  0  0  0  0  0  0  0  0  0
    6.3254   -1.4501   -0.5093 C   0  0  0  0  0  0  0  0  0  0  0  0
    4.1628   -0.1810   -0.7698 C   0  0  0  0  0  0  0  0  0  0  0  0
    3.4035    1.1145   -0.5173 C   0  0  0  0  0  0  0  0  0  0  0  0
   -0.3080    1.4536    0.1075 C   0  0  0  0  0  0  0  0  0  0  0  0
    1.0379    1.7888   -0.0720 C   0  0  0  0  0  0  0  0  0  0  0  0
   -0.9150    2.6749    0.3293 C   0  0  0  0  0  0  0  0  0  0  0  0
    5.6316   -2.2750    1.6378 C   0  0  0  0  0  0  0  0  0  0  0  0
    6.2735   -3.8154   -0.0905 C   0  0  0  0  0  0  0  0  0  0  0  0
   -1.1161    0.3204    0.1198 C   0  0  0  0  0  0  0  0  0  0  0  0
   -2.4593    0.5747    0.3595 C   0  0  0  0  0  0  0  0  0  0  0  0
   -3.4144   -0.5076    0.4004 C   0  0  0  0  0  0  0  0  0  0  0  0
   -4.0670   -0.9157   -0.7648 C   0  0  0  0  0  0  0  0  0  0  0  0
   -3.6859   -1.1513    1.6094 C   0  0  0  0  0  0  0  0  0  0  0  0
   -4.9873   -1.9631   -0.7210 C   0  0  0  0  0  0  0  0  0  0  0  0
   -4.6061   -2.1986    1.6531 C   0  0  0  0  0  0  0  0  0  0  0  0
   -5.2569   -2.6044    0.4880 C   0  0  0  0  0  0  0  0  0  0  0  0
    6.1410    0.6533   -0.8414 H   0  0  0  0  0  0  0  0  0  0  0  0
    5.6551    0.2066    0.7679 H   0  0  0  0  0  0  0  0  0  0  0  0
    7.3716   -1.3604   -0.1893 H   0  0  0  0  0  0  0  0  0  0  0  0
    6.3359   -1.6562   -1.5872 H   0  0  0  0  0  0  0  0  0  0  0  0
    4.1384   -0.3678   -1.8502 H   0  0  0  0  0  0  0  0  0  0  0  0
    3.6274   -1.0031   -0.2824 H   0  0  0  0  0  0  0  0  0  0  0  0
    1.7273   -0.1082   -0.3845 H   0  0  0  0  0  0  0  0  0  0  0  0
   -0.7249   -0.6766   -0.0447 H   0  0  0  0  0  0  0  0  0  0  0  0
    5.2314   -3.1453    2.1724 H   0  0  0  0  0  0  0  0  0  0  0  0
    4.9680   -1.4487    1.9097 H   0  0  0  0  0  0  0  0  0  0  0  0
    6.6343   -2.0755    2.0333 H   0  0  0  0  0  0  0  0  0  0  0  0
    5.7260   -4.6307    0.3954 H   0  0  0  0  0  0  0  0  0  0  0  0
    7.3155   -3.8483    0.2480 H   0  0  0  0  0  0  0  0  0  0  0  0
    6.2530   -4.0238   -1.1661 H   0  0  0  0  0  0  0  0  0  0  0  0
   -0.0078    4.6129    0.3840 H   0  0  0  0  0  0  0  0  0  0  0  0
   -3.1877   -0.8476    2.5272 H   0  0  0  0  0  0  0  0  0  0  0  0
   -4.8161   -2.6982    2.5943 H   0  0  0  0  0  0  0  0  0  0  0  0
   -5.9734   -3.4198    0.5218 H   0  0  0  0  0  0  0  0  0  0  0  0
  1 22  1  0  0  0  0
  2 24  1  0  0  0  0
  3 13  2  0  0  0  0
  4 11  1  0  0  0  0
  4 17  1  0  0  0  0
  4 18  1  0  0  0  0
  5 13  1  0  0  0  0
  5 15  1  0  0  0  0
  5 33  1  0  0  0  0
  6  7  1  0  0  0  0
  6 16  1  0  0  0  0
  6 41  1  0  0  0  0
  7 15  2  0  0  0  0
  8  9  1  0  0  0  0
  8 16  2  0  0  0  0
  9 20  2  0  0  0  0
 10 11  1  0  0  0  0
 10 12  1  0  0  0  0
 10 27  1  0  0  0  0
 10 28  1  0  0  0  0
 11 29  1  0  0  0  0
 11 30  1  0  0  0  0
 12 13  1  0  0  0  0
 12 31  1  0  0  0  0
 12 32  1  0  0  0  0
 14 15  1  0  0  0  0
 14 16  1  0  0  0  0
 14 19  2  0  0  0  0
 17 35  1  0  0  0  0
 17 36  1  0  0  0  0
 17 37  1  0  0  0  0
 18 38  1  0  0  0  0
 18 39  1  0  0  0  0
 18 40  1  0  0  0  0
 19 20  1  0  0  0  0
 19 34  1  0  0  0  0
 20 21  1  0  0  0  0
 21 22  2  0  0  0  0
 21 23  1  0  0  0  0
 22 24  1  0  0  0  0
 23 25  2  0  0  0  0
 23 42  1  0  0  0  0
 24 26  2  0  0  0  0
 25 26  1  0  0  0  0
 25 43  1  0  0  0  0
 26 44  1  0  0  0  0
M  END
> <PUBCHEM_COMPOUND_CID>
6539560

> <PUBCHEM_CONFORMER_RMSD>
0.8

> <PUBCHEM_CONFORMER_DIVERSEORDER>
9
190
132
156
139
194
64
160
163
69
184
128
140
119
66
183
173
72
89
169
158
152
167
55
146
192
57
8
70
135
99
157
203
40
53
129
2
45
185
176
100
65
196
59
151
154
189
134
145
35
200
56
141
107
179
137
42
153
201
113
122
94
43
171
36
144
186
174
88
37
117
142
103
123
78
149
133
198
168
175
108
98
136
162
181
76
150
109
60
155
164
130
104
1
195
67
31
170
131
182
102
178
95
125
47
3
138
205
81
126
73
26
96
7
97
159
80
143
114
161
29
62
33
51
22
110
63
197
49
116
68
202
112
50
61
127
83
79
82
111
177
91
58
77
90
115
101
187
30
21
71
172
204
54
75
25
105
39
52
85
24
206
193
121
84
14
165
19
16
74
124
199
32
147
10
191
188
118
180
4
20
15
28
166
92
93
120
46
148
38
48
87
11
106
6
27
5
12
18
23
41
17
34
44
86
13

> <PUBCHEM_MMFF94_PARTIAL_CHARGES>
29
1 -0.19
11 0.27
12 0.06
13 0.57
15 0.35
16 0.11
17 0.27
18 0.27
19 -0.15
2 -0.19
20 0.31
22 0.19
23 -0.15
24 0.19
25 -0.15
26 -0.15
3 -0.57
33 0.37
34 0.15
4 -0.81
41 0.27
42 0.15
43 0.15
44 0.15
5 -0.49
6 0.3
7 -0.71
8 -0.26
9 -0.31

> <PUBCHEM_EFFECTIVE_ROTOR_COUNT>
7

> <PUBCHEM_PHARMACOPHORE_FEATURES>
9
1 3 acceptor
1 4 cation
1 5 donor
1 6 donor
1 9 acceptor
3 6 8 16 cation
5 6 7 14 15 16 rings
6 21 22 23 24 25 26 rings
6 8 9 14 16 19 20 rings

> <PUBCHEM_HEAVY_ATOM_COUNT>
26

> <PUBCHEM_ATOM_DEF_STEREO_COUNT>
0

> <PUBCHEM_ATOM_UDEF_STEREO_COUNT>
0

> <PUBCHEM_BOND_DEF_STEREO_COUNT>
0

> <PUBCHEM_BOND_UDEF_STEREO_COUNT>
0

> <PUBCHEM_ISOTOPIC_ATOM_COUNT>
0

> <PUBCHEM_COMPONENT_COUNT>
1

> <PUBCHEM_CACTVS_TAUTO_COUNT>
15

> <PUBCHEM_CONFORMER_ID>
0063C92800000009

> <PUBCHEM_MMFF94_ENERGY>
60.3427

> <PUBCHEM_FEATURE_SELFOVERLAP>
45.785

> <PUBCHEM_SHAPE_FINGERPRINT>
10074138 170 16985766211839131608
10622 236 18261955146631583054
10693767 8 18198329857528115215
11796584 16 17531516710877334281
11809386 21 18335701602691886512
12107183 9 18198926793726340977
12422481 6 17346324756509950150
12760667 363 18411141346242163283
13540713 5 18267328536707669480
13885169 86 9151175367523540950
13911852 28 18411983576407005682
13955234 65 17838902877308829793
14211702 104 18409733928884008906
14251764 75 9007061274848767118
14347332 77 18409449176187420204
14848178 5 18334572434873925322
14848178 96 8285932228464986348
14866123 147 18339088077753514441
15519825 34 15051439574915950447
15728490 83 18262813868864616747
17492 89 18338239267919839240
1813 80 17913794935667627133
19301676 85 17760082917630093127
19319366 153 17978799231406663212
20691028 202 8358266938104202711
20843269 155 18411417285449394302
21033650 10 16081358627428666933
21315764 119 17385717006969651407
21585483 132 17771046487653120511
21703447 108 18410003373826323880
23559900 14 17897722309099689921
23569914 152 18122875709057675479
2838139 119 12829481597365952854
314194 84 18268718375281002800
345986 75 17774453770722546424
34797466 226 16299235781440460709
44062 13 18262801761393915836
50009960 94 18115850929537612642
5104073 3 18202290195105218408
6034566 193 9079113367133516579
6058803 2 18192736496060175380
6201320 77 17388288807880599723
6431902 208 18409169896356229394
7970288 3 18339644567475079627

> <PUBCHEM_SHAPE_MULTIPOLES>
484.76
16.56
4.5
1.27
16.58
0.46
-0.05
-20.87
-1.22
1.91
0.65
-1.38
-0.88
-1.22

> <PUBCHEM_SHAPE_SELFOVERLAP>
1045.978

> <PUBCHEM_SHAPE_VOLUME>
268.2

> <PUBCHEM_COORDINATE_TYPE>
2
5
10

$$$$
