50899556
  -OEChem-10052115163D

 54 58  0     0  0  0  0  0  0999 V2000
   -9.9852    2.1067    0.0524 O   0  0  0  0  0  0  0  0  0  0  0  0
   -4.6268   -1.4906   -0.2757 O   0  0  0  0  0  0  0  0  0  0  0  0
    8.9977    3.2324    0.2224 O   0  0  0  0  0  0  0  0  0  0  0  0
   -7.5233    0.7053    0.3301 N   0  0  0  0  0  0  0  0  0  0  0  0
    3.2002   -1.8445   -0.0385 N   0  0  0  0  0  0  0  0  0  0  0  0
    2.9579    0.5454   -0.0796 N   0  0  0  0  0  0  0  0  0  0  0  0
    4.1685   -2.7970    0.0131 N   0  0  0  0  0  0  0  0  0  0  0  0
    8.2570    1.1105    0.7557 N   0  0  0  0  0  0  0  0  0  0  0  0
   -8.5527    0.6654    1.3781 C   0  0  0  0  0  0  0  0  0  0  0  0
   -8.1502    0.9049   -0.9839 C   0  0  0  0  0  0  0  0  0  0  0  0
   -6.7223   -0.5171    0.3426 C   0  0  0  0  0  0  0  0  0  0  0  0
   -9.3834    1.9448    1.3374 C   0  0  0  0  0  0  0  0  0  0  0  0
   -8.9895    2.1792   -0.9687 C   0  0  0  0  0  0  0  0  0  0  0  0
   -5.3769   -0.2840   -0.3258 C   0  0  0  0  0  0  0  0  0  0  0  0
   -3.2622   -1.3685   -0.2407 C   0  0  0  0  0  0  0  0  0  0  0  0
   -0.4843   -1.1216   -0.1707 C   0  0  0  0  0  0  0  0  0  0  0  0
    0.9798   -0.9925   -0.1351 C   0  0  0  0  0  0  0  0  0  0  0  0
    3.7471   -0.5631   -0.0334 C   0  0  0  0  0  0  0  0  0  0  0  0
    5.1127   -0.7235    0.0226 C   0  0  0  0  0  0  0  0  0  0  0  0
    1.8219   -2.0380   -0.0878 C   0  0  0  0  0  0  0  0  0  0  0  0
   -2.4924   -2.3337    0.4086 C   0  0  0  0  0  0  0  0  0  0  0  0
   -2.6430   -0.2799   -0.8549 C   0  0  0  0  0  0  0  0  0  0  0  0
   -1.1035   -2.2102    0.4437 C   0  0  0  0  0  0  0  0  0  0  0  0
   -1.2542   -0.1565   -0.8197 C   0  0  0  0  0  0  0  0  0  0  0  0
    6.1242    0.3510    0.0483 C   0  0  0  0  0  0  0  0  0  0  0  0
    1.6774    0.3323   -0.1262 C   0  0  0  0  0  0  0  0  0  0  0  0
    5.3099   -2.1105    0.0488 C   0  0  0  0  0  0  0  0  0  0  0  0
    7.2849    0.1418    0.6951 C   0  0  0  0  0  0  0  0  0  0  0  0
    5.9231    1.6440   -0.5874 C   0  0  0  0  0  0  0  0  0  0  0  0
    6.8532    2.6070   -0.5444 C   0  0  0  0  0  0  0  0  0  0  0  0
    8.1345    2.3602    0.1735 C   0  0  0  0  0  0  0  0  0  0  0  0
   -9.2088   -0.2026    1.2321 H   0  0  0  0  0  0  0  0  0  0  0  0
   -8.0885    0.5791    2.3673 H   0  0  0  0  0  0  0  0  0  0  0  0
   -7.3991    1.0031   -1.7739 H   0  0  0  0  0  0  0  0  0  0  0  0
   -8.7945    0.0513   -1.2326 H   0  0  0  0  0  0  0  0  0  0  0  0
   -7.2469   -1.3662   -0.1152 H   0  0  0  0  0  0  0  0  0  0  0  0
   -6.5155   -0.8278    1.3761 H   0  0  0  0  0  0  0  0  0  0  0  0
   -8.7774    2.8285    1.5717 H   0  0  0  0  0  0  0  0  0  0  0  0
  -10.1885    1.8900    2.0771 H   0  0  0  0  0  0  0  0  0  0  0  0
   -9.5049    2.2977   -1.9272 H   0  0  0  0  0  0  0  0  0  0  0  0
   -8.3695    3.0707   -0.8132 H   0  0  0  0  0  0  0  0  0  0  0  0
   -5.4981   -0.0035   -1.3772 H   0  0  0  0  0  0  0  0  0  0  0  0
   -4.8686    0.5293    0.2100 H   0  0  0  0  0  0  0  0  0  0  0  0
    1.4983   -3.0726   -0.0945 H   0  0  0  0  0  0  0  0  0  0  0  0
   -2.9701   -3.1816    0.8920 H   0  0  0  0  0  0  0  0  0  0  0  0
   -3.2025    0.4760   -1.3979 H   0  0  0  0  0  0  0  0  0  0  0  0
   -0.5378   -2.9718    0.9738 H   0  0  0  0  0  0  0  0  0  0  0  0
   -0.8015    0.6889   -1.3306 H   0  0  0  0  0  0  0  0  0  0  0  0
    1.0258    1.2205   -0.1396 H   0  0  0  0  0  0  0  0  0  0  0  0
    6.2372   -2.6648    0.0890 H   0  0  0  0  0  0  0  0  0  0  0  0
    7.5353   -0.7784    1.2100 H   0  0  0  0  0  0  0  0  0  0  0  0
    5.0056    1.8280   -1.1352 H   0  0  0  0  0  0  0  0  0  0  0  0
    9.1099    0.8876    1.2604 H   0  0  0  0  0  0  0  0  0  0  0  0
    6.7085    3.5662   -1.0268 H   0  0  0  0  0  0  0  0  0  0  0  0
  1 12  1  0  0  0  0
  1 13  1  0  0  0  0
  2 14  1  0  0  0  0
  2 15  1  0  0  0  0
  3 31  2  0  0  0  0
  4  9  1  0  0  0  0
  4 10  1  0  0  0  0
  4 11  1  0  0  0  0
  5  7  1  0  0  0  0
  5 18  1  0  0  0  0
  5 20  1  0  0  0  0
  6 18  1  0  0  0  0
  6 26  2  0  0  0  0
  7 27  2  0  0  0  0
  8 28  1  0  0  0  0
  8 31  1  0  0  0  0
  8 53  1  0  0  0  0
  9 12  1  0  0  0  0
  9 32  1  0  0  0  0
  9 33  1  0  0  0  0
 10 13  1  0  0  0  0
 10 34  1  0  0  0  0
 10 35  1  0  0  0  0
 11 14  1  0  0  0  0
 11 36  1  0  0  0  0
 11 37  1  0  0  0  0
 12 38  1  0  0  0  0
 12 39  1  0  0  0  0
 13 40  1  0  0  0  0
 13 41  1  0  0  0  0
 14 42  1  0  0  0  0
 14 43  1  0  0  0  0
 15 21  2  0  0  0  0
 15 22  1  0  0  0  0
 16 17  1  0  0  0  0
 16 23  2  0  0  0  0
 16 24  1  0  0  0  0
 17 20  2  0  0  0  0
 17 26  1  0  0  0  0
 18 19  2  0  0  0  0
 19 25  1  0  0  0  0
 19 27  1  0  0  0  0
 20 44  1  0  0  0  0
 21 23  1  0  0  0  0
 21 45  1  0  0  0  0
 22 24  2  0  0  0  0
 22 46  1  0  0  0  0
 23 47  1  0  0  0  0
 24 48  1  0  0  0  0
 25 28  2  0  0  0  0
 25 29  1  0  0  0  0
 26 49  1  0  0  0  0
 27 50  1  0  0  0  0
 28 51  1  0  0  0  0
 29 30  2  0  0  0  0
 29 52  1  0  0  0  0
 30 31  1  0  0  0  0
 30 54  1  0  0  0  0
M  END
> <PUBCHEM_COMPOUND_CID>
50899556

> <PUBCHEM_CONFORMER_RMSD>
1

> <PUBCHEM_CONFORMER_DIVERSEORDER>
1
38
40
24
12
13
2
25
9
31
34
21
39
27
20
35
23
19
26
3
36
14
41
33
45
44
11
29
8
28
18
6
10
15
17
37
4
30
22
42
7
32
16
5
43

> <PUBCHEM_MMFF94_PARTIAL_CHARGES>
42
1 -0.56
10 0.27
11 0.27
12 0.28
13 0.28
14 0.28
15 0.08
16 0.03
17 -0.01
18 -0.03
19 -0.05
2 -0.36
20 -0.18
21 -0.15
22 -0.15
23 -0.15
24 -0.15
25 0.05
26 0.38
27 0.14
28 -0.04
29 -0.15
3 -0.57
30 -0.14
31 0.62
4 -0.81
44 0.15
45 0.15
46 0.15
47 0.15
48 0.15
49 0.06
5 0.6
50 0.15
51 0.15
52 0.15
53 0.37
54 0.15
6 -0.58
7 -0.71
8 -0.54
9 0.27

> <PUBCHEM_EFFECTIVE_ROTOR_COUNT>
7.2

> <PUBCHEM_PHARMACOPHORE_FEATURES>
12
1 1 acceptor
1 2 acceptor
1 3 acceptor
1 4 cation
1 6 acceptor
1 7 acceptor
1 8 donor
5 5 7 18 19 27 rings
6 1 4 9 10 12 13 rings
6 15 16 21 22 23 24 rings
6 5 6 17 18 20 26 rings
6 8 25 28 29 30 31 rings

> <PUBCHEM_HEAVY_ATOM_COUNT>
31

> <PUBCHEM_ATOM_DEF_STEREO_COUNT>
0

> <PUBCHEM_ATOM_UDEF_STEREO_COUNT>
0

> <PUBCHEM_BOND_DEF_STEREO_COUNT>
0

> <PUBCHEM_BOND_UDEF_STEREO_COUNT>
0

> <PUBCHEM_ISOTOPIC_ATOM_COUNT>
0

> <PUBCHEM_COMPONENT_COUNT>
1

> <PUBCHEM_CACTVS_TAUTO_COUNT>
2

> <PUBCHEM_CONFORMER_ID>
0308AA6400000001

> <PUBCHEM_MMFF94_ENERGY>
88.267

> <PUBCHEM_FEATURE_SELFOVERLAP>
61.027

> <PUBCHEM_SHAPE_FINGERPRINT>
10 15 17967250905453816026
10066227 49 9583520915035300613
10533779 47 16877929518244875648
10625338 86 18040428859830265821
11181472 205 17774732952318186395
11211813 74 18342739611461112396
11386260 185 14333118706778007786
11578821 258 18342176666109458169
11607047 141 17896311429776337082
12539745 222 12107778602604566879
12539765 74 18202006499614818951
13553643 46 18335416829771922293
13974486 7 10302169390838306204
14617042 71 18409732893649444572
14849402 71 18412828006228710833
15198563 99 13829860076230789419
15461852 350 16916779704981722591
15690457 1 8142089749648767668
1577012 14 18342452651938044847
15840311 113 18410015416740028966
16991971 28 11095880471722769351
1754908 1 15864074282393827057
1818759 1 10953736686014342297
19302320 297 17967252035816965700
19315958 150 18410295795846386215
195137 175 18131913763246635135
2026 5 8862675598101536720
20771845 140 14706924038944440930
21792934 111 17821727204364984295
21895431 317 9799426498813276628
23569943 247 10735064722539512004
23576562 1 15840687717563487897
24771293 8 18260829332471047815
3633792 109 18272375252345188034
3711267 37 18342750602472892441
4073 2 18260832643427427594
4340502 62 16950555615523878250
4403749 210 18410016576614236339
44280117 145 18200590411365981527
4760202 170 17489583502896732472
54039377 194 8646774391407127289
59682541 35 17821736027182566059
6081469 158 12103846748110555243
636775 72 18410011010541932833
6698420 124 18334864870913897683
9953998 17 17530966904373196915
9962374 69 9079112242136921668

> <PUBCHEM_SHAPE_MULTIPOLES>
595.45
34.82
3.07
0.92
40.56
0.67
-0.08
35.38
-5.54
-3.47
-0.08
1.49
0.29
-0.2

> <PUBCHEM_SHAPE_SELFOVERLAP>
1302.266

> <PUBCHEM_SHAPE_VOLUME>
321.3

> <PUBCHEM_COORDINATE_TYPE>
2
5
10

$$$$
