44592504
  -OEChem-10062122033D

 47 50  0     1  0  0  0  0  0999 V2000
    3.0781   -1.0990    3.3377 Br  0  0  0  0  0  0  0  0  0  0  0  0
    0.6428   -1.0920   -0.3461 S   0  0  0  0  0  0  0  0  0  0  0  0
   -1.4712    3.5166   -0.1594 F   0  0  0  0  0  0  0  0  0  0  0  0
   -2.4896   -1.6856    1.8782 O   0  0  0  0  0  0  0  0  0  0  0  0
   -2.2655   -1.4684   -0.4195 N   0  0  0  0  0  0  0  0  0  0  0  0
   -5.2605   -3.0836   -1.9397 N   0  0  0  0  0  0  0  0  0  0  0  0
    5.2118    2.0574   -1.0701 N   0  0  0  0  0  0  0  0  0  0  0  0
    5.7822   -0.2562   -1.4238 N   0  0  0  0  0  0  0  0  0  0  0  0
   -3.6687   -1.6032   -0.7384 C   0  0  1  0  0  0  0  0  0  0  0  0
   -4.1948   -0.3334   -1.4349 C   0  0  0  0  0  0  0  0  0  0  0  0
   -3.8602   -2.8617   -1.5977 C   0  0  0  0  0  0  0  0  0  0  0  0
   -3.9776    0.9196   -0.6188 C   0  0  0  0  0  0  0  0  0  0  0  0
   -1.7329   -1.5160    0.8878 C   0  0  0  0  0  0  0  0  0  0  0  0
    3.3138   -0.7658   -0.0803 C   0  0  0  0  0  0  0  0  0  0  0  0
   -0.3251   -1.3434    1.0438 C   0  0  0  0  0  0  0  0  0  0  0  0
    2.0676   -0.9894    0.5981 C   0  0  0  0  0  0  0  0  0  0  0  0
    3.7569    0.5486   -0.2996 C   0  0  0  0  0  0  0  0  0  0  0  0
   -2.8017    1.6548   -0.7691 C   0  0  0  0  0  0  0  0  0  0  0  0
   -4.9527    1.3410    0.2854 C   0  0  0  0  0  0  0  0  0  0  0  0
    4.9702    0.7133   -0.9615 C   0  0  0  0  0  0  0  0  0  0  0  0
    0.4229   -1.3488    2.2006 C   0  0  0  0  0  0  0  0  0  0  0  0
    1.8090   -1.1437    1.9424 C   0  0  0  0  0  0  0  0  0  0  0  0
    3.2673    1.8493   -0.0088 C   0  0  0  0  0  0  0  0  0  0  0  0
    4.1169   -1.8084   -0.5390 C   0  0  0  0  0  0  0  0  0  0  0  0
   -2.6008    2.8112   -0.0154 C   0  0  0  0  0  0  0  0  0  0  0  0
   -4.7518    2.4972    1.0394 C   0  0  0  0  0  0  0  0  0  0  0  0
    4.1833    2.7574   -0.4945 C   0  0  0  0  0  0  0  0  0  0  0  0
   -3.5760    3.2325    0.8888 C   0  0  0  0  0  0  0  0  0  0  0  0
    5.3064   -1.5004   -1.1855 C   0  0  0  0  0  0  0  0  0  0  0  0
   -4.2248   -1.7369    0.1982 H   0  0  0  0  0  0  0  0  0  0  0  0
   -5.2658   -0.4276   -1.6539 H   0  0  0  0  0  0  0  0  0  0  0  0
   -3.7032   -0.2092   -2.4095 H   0  0  0  0  0  0  0  0  0  0  0  0
   -3.4790   -3.7390   -1.0613 H   0  0  0  0  0  0  0  0  0  0  0  0
   -3.2787   -2.7786   -2.5237 H   0  0  0  0  0  0  0  0  0  0  0  0
   -1.6222   -1.3259   -1.1933 H   0  0  0  0  0  0  0  0  0  0  0  0
   -2.0346    1.3406   -1.4717 H   0  0  0  0  0  0  0  0  0  0  0  0
   -5.8717    0.7751    0.4131 H   0  0  0  0  0  0  0  0  0  0  0  0
   -5.8079   -3.1933   -1.0871 H   0  0  0  0  0  0  0  0  0  0  0  0
   -5.3489   -3.9601   -2.4520 H   0  0  0  0  0  0  0  0  0  0  0  0
   -0.0062   -1.4932    3.1850 H   0  0  0  0  0  0  0  0  0  0  0  0
    2.3476    2.1044    0.4998 H   0  0  0  0  0  0  0  0  0  0  0  0
    3.8292   -2.8461   -0.3989 H   0  0  0  0  0  0  0  0  0  0  0  0
   -5.5106    2.8248    1.7440 H   0  0  0  0  0  0  0  0  0  0  0  0
    6.0242    2.4691   -1.5079 H   0  0  0  0  0  0  0  0  0  0  0  0
    4.1941    3.8382   -0.4814 H   0  0  0  0  0  0  0  0  0  0  0  0
   -3.4191    4.1325    1.4758 H   0  0  0  0  0  0  0  0  0  0  0  0
    5.9449   -2.3010   -1.5495 H   0  0  0  0  0  0  0  0  0  0  0  0
  1 22  1  0  0  0  0
  2 15  1  0  0  0  0
  2 16  1  0  0  0  0
  3 25  1  0  0  0  0
  4 13  2  0  0  0  0
  5  9  1  0  0  0  0
  5 13  1  0  0  0  0
  5 35  1  0  0  0  0
  6 11  1  0  0  0  0
  6 38  1  0  0  0  0
  6 39  1  0  0  0  0
  7 20  1  0  0  0  0
  7 27  1  0  0  0  0
  7 44  1  0  0  0  0
  8 20  2  0  0  0  0
  8 29  1  0  0  0  0
  9 10  1  0  0  0  0
  9 11  1  0  0  0  0
  9 30  1  0  0  0  0
 10 12  1  0  0  0  0
 10 31  1  0  0  0  0
 10 32  1  0  0  0  0
 11 33  1  0  0  0  0
 11 34  1  0  0  0  0
 12 18  2  0  0  0  0
 12 19  1  0  0  0  0
 13 15  1  0  0  0  0
 14 16  1  0  0  0  0
 14 17  2  0  0  0  0
 14 24  1  0  0  0  0
 15 21  2  0  0  0  0
 16 22  2  0  0  0  0
 17 20  1  0  0  0  0
 17 23  1  0  0  0  0
 18 25  1  0  0  0  0
 18 36  1  0  0  0  0
 19 26  2  0  0  0  0
 19 37  1  0  0  0  0
 21 22  1  0  0  0  0
 21 40  1  0  0  0  0
 23 27  2  0  0  0  0
 23 41  1  0  0  0  0
 24 29  2  0  0  0  0
 24 42  1  0  0  0  0
 25 28  2  0  0  0  0
 26 28  1  0  0  0  0
 26 43  1  0  0  0  0
 27 45  1  0  0  0  0
 28 46  1  0  0  0  0
 29 47  1  0  0  0  0
M  END
> <PUBCHEM_COMPOUND_CID>
44592504

> <PUBCHEM_CONFORMER_RMSD>
1.2

> <PUBCHEM_CONFORMER_DIVERSEORDER>
1
75
85
55
29
91
62
28
20
72
49
89
54
44
47
80
5
82
51
96
99
83
76
98
4
32
71
50
18
101
86
38
61
102
69
41
11
8
22
31
25
70
93
45
68
37
36
81
78
73
103
21
63
42
9
97
14
88
2
27
43
66
34
57
24
46
77
84
104
40
30
10
15
100
67
12
23
58
74
64
35
94
13
90
7
3
56
60
95
65
59
6
33
87
52
79
53
26
17
19
92
48
16
39

> <PUBCHEM_MMFF94_PARTIAL_CHARGES>
41
1 -0.06
10 0.14
11 0.27
12 -0.14
13 0.71
14 0.05
15 -0.05
16 -0.01
18 -0.15
19 -0.15
2 -0.08
20 0.11
21 -0.15
22 0.06
23 -0.15
24 -0.15
25 0.19
26 -0.15
27 -0.3
28 -0.15
29 0.16
3 -0.19
35 0.37
36 0.15
37 0.15
38 0.36
39 0.36
4 -0.57
40 0.15
41 0.15
42 0.15
43 0.15
44 0.27
45 0.15
46 0.15
47 0.15
5 -0.73
6 -0.99
7 0.03
8 -0.57
9 0.3

> <PUBCHEM_EFFECTIVE_ROTOR_COUNT>
7

> <PUBCHEM_PHARMACOPHORE_FEATURES>
11
1 1 hydrophobe
1 4 acceptor
1 5 donor
1 6 cation
1 6 donor
1 7 donor
3 7 8 20 cation
5 2 15 16 21 22 rings
5 7 17 20 23 27 rings
6 12 18 19 25 26 28 rings
6 8 14 17 20 24 29 rings

> <PUBCHEM_HEAVY_ATOM_COUNT>
29

> <PUBCHEM_ATOM_DEF_STEREO_COUNT>
1

> <PUBCHEM_ATOM_UDEF_STEREO_COUNT>
0

> <PUBCHEM_BOND_DEF_STEREO_COUNT>
0

> <PUBCHEM_BOND_UDEF_STEREO_COUNT>
0

> <PUBCHEM_ISOTOPIC_ATOM_COUNT>
0

> <PUBCHEM_COMPONENT_COUNT>
1

> <PUBCHEM_CACTVS_TAUTO_COUNT>
9

> <PUBCHEM_CONFORMER_ID>
02A86D7800000001

> <PUBCHEM_MMFF94_ENERGY>
52.9311

> <PUBCHEM_FEATURE_SELFOVERLAP>
55.934

> <PUBCHEM_SHAPE_FINGERPRINT>
10165383 225 17631177386408467995
10670039 82 18411696547889842989
11049842 53 18126553540307935275
11513181 2 18342468053484683414
11578080 2 17489291015517931296
12633046 712 16773806878372970994
12788726 201 18265882722341187555
13617811 41 18056178401451150863
13782708 43 16415183621013084463
14187579 7 18341051907898602849
14251757 5 18131633348916070977
14251764 38 18410019857494016036
14739800 52 18189878968222868840
14848178 96 17821729464024216324
14910302 57 17489009561657652823
15001296 14 18408599283944035077
15021287 119 17608073287548313594
15082195 135 18339626867972752167
15183329 4 18339364063645917598
15419009 47 17983016648672543142
15575132 122 18117558432155928205
20693207 138 16988272204875975099
21033650 10 18341892969869225859
21864079 5 18260545597882414881
23559900 14 18058723594485447318
312425 83 18343028769981530046
3610482 184 18189920684854703284
38570 142 18042985189282017002
437795 70 18266199257319961268
57527295 17 18336274483538403254
5895379 119 18267573620810427728
5912855 24 18260266356922656131

> <PUBCHEM_SHAPE_MULTIPOLES>
573.53
13.51
3.9
2.19
3.06
2.12
1.64
2.62
-6.02
-3.93
-0.55
1.01
-1.52
-3.25

> <PUBCHEM_SHAPE_SELFOVERLAP>
1230.624

> <PUBCHEM_SHAPE_VOLUME>
321.9

> <PUBCHEM_COORDINATE_TYPE>
2
5
10

$$$$
