24905197
  -OEChem-10052115163D

 46 49  0     0  0  0  0  0  0999 V2000
    5.0032    1.1801   -0.1961 O   0  0  0  0  0  0  0  0  0  0  0  0
    3.6887    0.9239    2.2393 O   0  0  0  0  0  0  0  0  0  0  0  0
   -2.5160    0.1608   -0.0408 N   0  0  0  0  0  0  0  0  0  0  0  0
   -1.3502    0.8325   -0.0782 N   0  0  0  0  0  0  0  0  0  0  0  0
   -3.3396   -2.1147    0.0389 N   0  0  0  0  0  0  0  0  0  0  0  0
   -1.5152   -3.7339    0.0594 N   0  0  0  0  0  0  0  0  0  0  0  0
    0.7824   -3.0892    0.0071 N   0  0  0  0  0  0  0  0  0  0  0  0
   -3.8192    0.9282   -0.0438 C   0  0  0  0  0  0  0  0  0  0  0  0
   -4.0336    1.8206   -1.2842 C   0  0  0  0  0  0  0  0  0  0  0  0
   -3.9555    1.8641    1.1704 C   0  0  0  0  0  0  0  0  0  0  0  0
   -4.1269    3.2480   -0.7570 C   0  0  0  0  0  0  0  0  0  0  0  0
   -4.6994    3.0800    0.6393 C   0  0  0  0  0  0  0  0  0  0  0  0
   -2.3640   -1.1934   -0.0031 C   0  0  0  0  0  0  0  0  0  0  0  0
   -0.9997   -1.4250   -0.0167 C   0  0  0  0  0  0  0  0  0  0  0  0
   -0.4306   -0.1387   -0.0632 C   0  0  0  0  0  0  0  0  0  0  0  0
    0.9698    0.2003   -0.0945 C   0  0  0  0  0  0  0  0  0  0  0  0
   -0.5832   -2.7517    0.0164 C   0  0  0  0  0  0  0  0  0  0  0  0
   -2.8169   -3.3597    0.0678 C   0  0  0  0  0  0  0  0  0  0  0  0
    1.6651    0.4009    1.0979 C   0  0  0  0  0  0  0  0  0  0  0  0
    1.6295    0.3289   -1.3167 C   0  0  0  0  0  0  0  0  0  0  0  0
    3.0204    0.7298    1.0682 C   0  0  0  0  0  0  0  0  0  0  0  0
    2.9847    0.6580   -1.3463 C   0  0  0  0  0  0  0  0  0  0  0  0
    3.6802    0.8584   -0.1539 C   0  0  0  0  0  0  0  0  0  0  0  0
    5.8781    0.2446   -0.8233 C   0  0  0  0  0  0  0  0  0  0  0  0
    7.2479    0.3472   -0.1869 C   0  0  0  0  0  0  0  0  0  0  0  0
   -4.6039    0.1626   -0.0138 H   0  0  0  0  0  0  0  0  0  0  0  0
   -4.9830    1.5478   -1.7612 H   0  0  0  0  0  0  0  0  0  0  0  0
   -3.2473    1.7188   -2.0388 H   0  0  0  0  0  0  0  0  0  0  0  0
   -2.9781    2.1707    1.5611 H   0  0  0  0  0  0  0  0  0  0  0  0
   -4.4978    1.3838    1.9913 H   0  0  0  0  0  0  0  0  0  0  0  0
   -4.7509    3.8842   -1.3910 H   0  0  0  0  0  0  0  0  0  0  0  0
   -3.1265    3.6938   -0.7041 H   0  0  0  0  0  0  0  0  0  0  0  0
   -4.5461    3.9655    1.2625 H   0  0  0  0  0  0  0  0  0  0  0  0
   -5.7754    2.8755    0.5888 H   0  0  0  0  0  0  0  0  0  0  0  0
   -3.5365   -4.1707    0.1026 H   0  0  0  0  0  0  0  0  0  0  0  0
    1.1525    0.3009    2.0525 H   0  0  0  0  0  0  0  0  0  0  0  0
    1.1013    0.1774   -2.2551 H   0  0  0  0  0  0  0  0  0  0  0  0
    1.4993   -2.3794   -0.0250 H   0  0  0  0  0  0  0  0  0  0  0  0
    1.0418   -4.0662    0.0319 H   0  0  0  0  0  0  0  0  0  0  0  0
    3.4831    0.7629   -2.3061 H   0  0  0  0  0  0  0  0  0  0  0  0
    3.0735    0.7931    2.9812 H   0  0  0  0  0  0  0  0  0  0  0  0
    5.5041   -0.7806   -0.7103 H   0  0  0  0  0  0  0  0  0  0  0  0
    5.9453    0.4808   -1.8908 H   0  0  0  0  0  0  0  0  0  0  0  0
    7.6434    1.3636   -0.2843 H   0  0  0  0  0  0  0  0  0  0  0  0
    7.1919    0.1289    0.8848 H   0  0  0  0  0  0  0  0  0  0  0  0
    7.9491   -0.3506   -0.6531 H   0  0  0  0  0  0  0  0  0  0  0  0
  1 23  1  0  0  0  0
  1 24  1  0  0  0  0
  2 21  1  0  0  0  0
  2 41  1  0  0  0  0
  3  4  1  0  0  0  0
  3  8  1  0  0  0  0
  3 13  1  0  0  0  0
  4 15  2  0  0  0  0
  5 13  2  0  0  0  0
  5 18  1  0  0  0  0
  6 17  1  0  0  0  0
  6 18  2  0  0  0  0
  7 17  1  0  0  0  0
  7 38  1  0  0  0  0
  7 39  1  0  0  0  0
  8  9  1  0  0  0  0
  8 10  1  0  0  0  0
  8 26  1  0  0  0  0
  9 11  1  0  0  0  0
  9 27  1  0  0  0  0
  9 28  1  0  0  0  0
 10 12  1  0  0  0  0
 10 29  1  0  0  0  0
 10 30  1  0  0  0  0
 11 12  1  0  0  0  0
 11 31  1  0  0  0  0
 11 32  1  0  0  0  0
 12 33  1  0  0  0  0
 12 34  1  0  0  0  0
 13 14  1  0  0  0  0
 14 15  1  0  0  0  0
 14 17  2  0  0  0  0
 15 16  1  0  0  0  0
 16 19  2  0  0  0  0
 16 20  1  0  0  0  0
 18 35  1  0  0  0  0
 19 21  1  0  0  0  0
 19 36  1  0  0  0  0
 20 22  2  0  0  0  0
 20 37  1  0  0  0  0
 21 23  2  0  0  0  0
 22 23  1  0  0  0  0
 22 40  1  0  0  0  0
 24 25  1  0  0  0  0
 24 42  1  0  0  0  0
 24 43  1  0  0  0  0
 25 44  1  0  0  0  0
 25 45  1  0  0  0  0
 25 46  1  0  0  0  0
M  END
> <PUBCHEM_COMPOUND_CID>
24905197

> <PUBCHEM_CONFORMER_RMSD>
0.8

> <PUBCHEM_CONFORMER_DIVERSEORDER>
1
17
18
19
22
6
23
15
24
9
13
20
16
4
21
2
5
8
7
10
12
14
11
3

> <PUBCHEM_MMFF94_PARTIAL_CHARGES>
26
1 -0.36
13 0.11
15 0.23
16 0.05
17 0.41
18 0.47
19 -0.15
2 -0.53
20 -0.15
21 0.08
22 -0.15
23 0.08
24 0.28
3 0.31
35 0.15
36 0.15
37 0.15
38 0.4
39 0.4
4 -0.71
40 0.15
41 0.45
5 -0.57
6 -0.62
7 -0.9
8 0.26

> <PUBCHEM_EFFECTIVE_ROTOR_COUNT>
5

> <PUBCHEM_PHARMACOPHORE_FEATURES>
11
1 1 acceptor
1 2 donor
1 4 acceptor
1 7 cation
1 7 donor
3 3 5 13 cation
3 5 6 18 cation
5 3 4 13 14 15 rings
5 8 9 10 11 12 rings
6 16 19 20 21 22 23 rings
6 5 6 13 14 17 18 rings

> <PUBCHEM_HEAVY_ATOM_COUNT>
25

> <PUBCHEM_ATOM_DEF_STEREO_COUNT>
0

> <PUBCHEM_ATOM_UDEF_STEREO_COUNT>
0

> <PUBCHEM_BOND_DEF_STEREO_COUNT>
0

> <PUBCHEM_BOND_UDEF_STEREO_COUNT>
0

> <PUBCHEM_ISOTOPIC_ATOM_COUNT>
0

> <PUBCHEM_COMPONENT_COUNT>
1

> <PUBCHEM_CACTVS_TAUTO_COUNT>
15

> <PUBCHEM_CONFORMER_ID>
017C05ED00000001

> <PUBCHEM_MMFF94_ENERGY>
67.3575

> <PUBCHEM_FEATURE_SELFOVERLAP>
56.101

> <PUBCHEM_SHAPE_FINGERPRINT>
10165383 225 18340495469801320241
10319926 262 18270387400257907912
10411042 1 17905892835782817631
105312 117 18409451349636311141
10835480 77 18272930553732040512
11545043 162 18272653497753827536
11582403 64 17199909406993100417
11725454 13 17272536573871538657
11796584 16 18341618101617637758
12107183 9 18190172400493766370
12236239 1 17604426430990845790
12293681 160 17845372150560593625
12390115 104 18341621386718869601
12403259 415 18059574741207800032
12422481 6 17679287595043267240
12500047 106 18412544327490113358
12788726 201 17973452280205608819
12954195 1 18341611555407009631
13009979 54 17752774811684910455
13140716 1 18192714441317986827
13583140 156 17846498175258435446
13878862 14 17399227557261520581
14178342 30 18336258028679837907
14294032 229 18408319957363336029
14508225 48 17981034534329754255
14713325 29 18335427910755358459
14790565 3 17907586826116814232
15021287 119 17168148957580099900
15042514 8 18120099639571655931
15230672 131 18335987451074907046
15439362 3 18049722919243298421
15927050 60 18340207393069868703
16087824 20 18410856599856640559
16752209 62 18265044902548231459
17844677 252 18266748055224513012
19784866 34 18269277855375933929
20681677 155 18334295379640167040
21033648 29 17703781566152556296
21065201 7 18341044237614006978
21279426 13 18200605696458060854
21756936 100 18272090470491351925
22122407 14 15791728611824207197
23557571 272 18272657890925401924
23559900 14 18272657835939880380
283562 15 18338231695661037531
3091708 16 9341022521907292627
350125 39 18410579461905225331
4015057 19 16773789338043000448
5265222 85 18196667405084861910
5283173 99 18340770455135038208
5385378 56 18194693566178733185
559249 180 18408603669748845750
57124632 79 18048591526337210041
57527295 17 17274536529851262391
59755656 520 18411700959190579581
6009941 240 18343586231747046164
6327066 14 18188203196475035845
7226269 152 18130791122930411344
77188 2 17545886383587659255
7808743 9 18408326600686160676
84936 182 17983852281762532617
9862522 239 17822843191957131053

> <PUBCHEM_SHAPE_MULTIPOLES>
477.84
12.23
3.84
1.2
16.73
3.23
-0.25
-9.54
0.67
-6.63
-0.02
0.62
-0.66
0.22

> <PUBCHEM_SHAPE_SELFOVERLAP>
1044.04

> <PUBCHEM_SHAPE_VOLUME>
260.3

> <PUBCHEM_COORDINATE_TYPE>
2
5
10

$$$$
