25165086
  -OEChem-10052120443D

 43 47  0     0  0  0  0  0  0999 V2000
   -1.8713   -1.4633   -0.2231 N   0  0  0  0  0  0  0  0  0  0  0  0
   -1.5702   -2.1340   -1.3469 N   0  0  0  0  0  0  0  0  0  0  0  0
   -0.2618   -2.0104   -1.5411 N   0  0  0  0  0  0  0  0  0  0  0  0
    5.5105    0.3685   -0.0250 N   0  0  0  0  0  0  0  0  0  0  0  0
    5.4425    1.7095   -0.0618 N   0  0  0  0  0  0  0  0  0  0  0  0
    3.5653    3.1785   -0.2834 N   0  0  0  0  0  0  0  0  0  0  0  0
   -0.6922   -0.0548    1.6030 C   0  0  0  0  0  0  0  0  0  0  0  0
   -1.2255   -0.6336    2.8805 C   0  0  0  0  0  0  0  0  0  0  0  0
    0.2544   -0.4754    2.6887 C   0  0  0  0  0  0  0  0  0  0  0  0
   -0.7675   -0.8929    0.3321 C   0  0  0  0  0  0  0  0  0  0  0  0
    0.2448   -1.2533   -0.5215 C   0  0  0  0  0  0  0  0  0  0  0  0
   -3.2302   -1.4129    0.2542 C   0  0  0  0  0  0  0  0  0  0  0  0
    1.6323   -0.9037   -0.3890 C   0  0  0  0  0  0  0  0  0  0  0  0
   -3.9227   -0.1077   -0.0508 C   0  0  0  0  0  0  0  0  0  0  0  0
    2.0043    0.4466   -0.3810 C   0  0  0  0  0  0  0  0  0  0  0  0
    2.5896   -1.9129   -0.2701 C   0  0  0  0  0  0  0  0  0  0  0  0
    3.3659    0.7667   -0.2506 C   0  0  0  0  0  0  0  0  0  0  0  0
    4.2983   -0.2581   -0.1339 C   0  0  0  0  0  0  0  0  0  0  0  0
    3.9489   -1.6102   -0.1393 C   0  0  0  0  0  0  0  0  0  0  0  0
   -4.4628    0.6539    0.9858 C   0  0  0  0  0  0  0  0  0  0  0  0
   -4.0222    0.3381   -1.3687 C   0  0  0  0  0  0  0  0  0  0  0  0
    4.1363    1.9482   -0.1987 C   0  0  0  0  0  0  0  0  0  0  0  0
   -5.1025    1.8610    0.7042 C   0  0  0  0  0  0  0  0  0  0  0  0
   -4.6620    1.5453   -1.6501 C   0  0  0  0  0  0  0  0  0  0  0  0
   -5.2021    2.3067   -0.6136 C   0  0  0  0  0  0  0  0  0  0  0  0
   -0.8293    1.0110    1.4551 H   0  0  0  0  0  0  0  0  0  0  0  0
   -1.6003   -1.6492    2.9071 H   0  0  0  0  0  0  0  0  0  0  0  0
   -1.7198    0.0400    3.5702 H   0  0  0  0  0  0  0  0  0  0  0  0
    0.7551    0.3046    3.2497 H   0  0  0  0  0  0  0  0  0  0  0  0
    0.8369   -1.3814    2.5735 H   0  0  0  0  0  0  0  0  0  0  0  0
   -3.2262   -1.6289    1.3257 H   0  0  0  0  0  0  0  0  0  0  0  0
   -3.7889   -2.2308   -0.2185 H   0  0  0  0  0  0  0  0  0  0  0  0
    1.2640    1.2360   -0.4800 H   0  0  0  0  0  0  0  0  0  0  0  0
    2.2912   -2.9598   -0.2754 H   0  0  0  0  0  0  0  0  0  0  0  0
    4.6937   -2.3926   -0.0463 H   0  0  0  0  0  0  0  0  0  0  0  0
   -4.3921    0.3194    2.0172 H   0  0  0  0  0  0  0  0  0  0  0  0
   -3.6158   -0.2452   -2.1901 H   0  0  0  0  0  0  0  0  0  0  0  0
    6.4215   -0.0613    0.0766 H   0  0  0  0  0  0  0  0  0  0  0  0
   -5.5228    2.4540    1.5112 H   0  0  0  0  0  0  0  0  0  0  0  0
   -4.7413    1.8917   -2.6765 H   0  0  0  0  0  0  0  0  0  0  0  0
   -5.7004    3.2464   -0.8329 H   0  0  0  0  0  0  0  0  0  0  0  0
    2.5650    3.3197   -0.3865 H   0  0  0  0  0  0  0  0  0  0  0  0
    4.1189    4.0287   -0.2459 H   0  0  0  0  0  0  0  0  0  0  0  0
  1  2  1  0  0  0  0
  1 10  1  0  0  0  0
  1 12  1  0  0  0  0
  2  3  2  0  0  0  0
  3 11  1  0  0  0  0
  4  5  1  0  0  0  0
  4 18  1  0  0  0  0
  4 38  1  0  0  0  0
  5 22  2  0  0  0  0
  6 22  1  0  0  0  0
  6 42  1  0  0  0  0
  6 43  1  0  0  0  0
  7  8  1  0  0  0  0
  7  9  1  0  0  0  0
  7 10  1  0  0  0  0
  7 26  1  0  0  0  0
  8  9  1  0  0  0  0
  8 27  1  0  0  0  0
  8 28  1  0  0  0  0
  9 29  1  0  0  0  0
  9 30  1  0  0  0  0
 10 11  2  0  0  0  0
 11 13  1  0  0  0  0
 12 14  1  0  0  0  0
 12 31  1  0  0  0  0
 12 32  1  0  0  0  0
 13 15  2  0  0  0  0
 13 16  1  0  0  0  0
 14 20  2  0  0  0  0
 14 21  1  0  0  0  0
 15 17  1  0  0  0  0
 15 33  1  0  0  0  0
 16 19  2  0  0  0  0
 16 34  1  0  0  0  0
 17 18  2  0  0  0  0
 17 22  1  0  0  0  0
 18 19  1  0  0  0  0
 19 35  1  0  0  0  0
 20 23  1  0  0  0  0
 20 36  1  0  0  0  0
 21 24  2  0  0  0  0
 21 37  1  0  0  0  0
 23 25  2  0  0  0  0
 23 39  1  0  0  0  0
 24 25  1  0  0  0  0
 24 40  1  0  0  0  0
 25 41  1  0  0  0  0
M  END
> <PUBCHEM_COMPOUND_CID>
25165086

> <PUBCHEM_CONFORMER_RMSD>
0.8

> <PUBCHEM_CONFORMER_DIVERSEORDER>
1
25
22
7
15
11
17
4
10
12
9
19
18
26
2
24
20
13
23
21
14
5
3
16
8
6

> <PUBCHEM_MMFF94_PARTIAL_CHARGES>
40
1 0.31
10 -0.24
11 0.17
12 0.4
13 0.05
14 -0.14
15 -0.15
16 -0.15
18 -0.15
19 -0.15
2 -0.42
20 -0.15
21 -0.15
22 0.37
23 -0.15
24 -0.15
25 -0.15
26 0.1
27 0.1
28 0.1
29 0.1
3 -0.23
30 0.1
33 0.15
34 0.15
35 0.15
36 0.15
37 0.15
38 0.27
39 0.15
4 0.3
40 0.15
41 0.15
42 0.4
43 0.4
5 -0.71
6 -0.88
7 -0.01
8 -0.2
9 -0.2

> <PUBCHEM_EFFECTIVE_ROTOR_COUNT>
4.6

> <PUBCHEM_PHARMACOPHORE_FEATURES>
7
1 4 donor
1 6 donor
3 5 6 22 cation
5 1 2 3 10 11 rings
5 4 5 17 18 22 rings
6 13 15 16 17 18 19 rings
6 14 20 21 23 24 25 rings

> <PUBCHEM_HEAVY_ATOM_COUNT>
25

> <PUBCHEM_ATOM_DEF_STEREO_COUNT>
0

> <PUBCHEM_ATOM_UDEF_STEREO_COUNT>
0

> <PUBCHEM_BOND_DEF_STEREO_COUNT>
0

> <PUBCHEM_BOND_UDEF_STEREO_COUNT>
0

> <PUBCHEM_ISOTOPIC_ATOM_COUNT>
0

> <PUBCHEM_COMPONENT_COUNT>
1

> <PUBCHEM_CACTVS_TAUTO_COUNT>
5

> <PUBCHEM_CONFORMER_ID>
017FFD1E00000001

> <PUBCHEM_MMFF94_ENERGY>
53.1192

> <PUBCHEM_FEATURE_SELFOVERLAP>
35.614

> <PUBCHEM_SHAPE_FINGERPRINT>
12293681 160 17132117930908814627
12788726 201 16988294057827346537
13103583 49 12396588382296569101
131258 38 13270347410890205385
13149001 5 16342837984624294671
13583140 156 18262532475444662402
13690498 29 17129569404826707719
14251764 38 17969511574428319397
14713325 29 18339646767051995731
14739800 52 17532076216810770497
15209294 21 16950279594553902003
15238133 3 17530974579147400404
16752209 62 16773804662343971826
17349148 13 16988851561835965030
17357779 13 14908185265273024122
17959699 21 18342458166337942376
18222031 100 13901898999248769146
20511986 3 18130211727842261842
20715895 44 18198906916074141457
20832881 197 17605832508958228722
21304303 64 18201449077463395689
21475661 188 17894911832165764197
23402539 116 16128662941965285266
23559900 14 17775289318414466390
244849 19 17824286858834586578
2838139 119 18409161087183087885
314194 84 7997676593774085141
392239 28 16950866781440616601
394222 165 18341331076673398947
5104073 3 18259702298170787938
57724786 102 18198630943140090167
6913067 236 13470405531321956822
999808 66 12613292245880901200

> <PUBCHEM_SHAPE_MULTIPOLES>
484.6
12.27
2.57
1.81
0.04
1.26
-1.34
9.09
2
-0.82
0.62
1.56
-0.62
0.47

> <PUBCHEM_SHAPE_SELFOVERLAP>
1081.664

> <PUBCHEM_SHAPE_VOLUME>
260

> <PUBCHEM_COORDINATE_TYPE>
2
5
10

$$$$
