49830825
  -OEChem-10062121533D

 49 51  0     1  0  0  0  0  0999 V2000
   -4.5524   -1.1285   -2.0725 F   0  0  0  0  0  0  0  0  0  0  0  0
   -1.3011    3.1195    0.5414 O   0  0  0  0  0  0  0  0  0  0  0  0
    5.4383   -3.0673    0.1920 O   0  0  0  0  0  0  0  0  0  0  0  0
    0.9496    2.8859   -0.8476 O   0  0  0  0  0  0  0  0  0  0  0  0
    1.9342    0.8012   -0.6001 N   0  0  0  0  0  0  0  0  0  0  0  0
   -6.7682   -1.8608    0.6994 N   0  0  0  0  0  0  0  0  0  0  0  0
    3.2992    1.2367   -0.7899 C   0  0  1  0  0  0  0  0  0  0  0  0
    4.2669    0.3939    0.0125 C   0  0  0  0  0  0  0  0  0  0  0  0
    3.6401    1.2635   -2.2785 C   0  0  0  0  0  0  0  0  0  0  0  0
   -0.4758    1.0769   -0.4067 C   0  0  0  0  0  0  0  0  0  0  0  0
    0.8352    1.6655   -0.6419 C   0  0  0  0  0  0  0  0  0  0  0  0
    4.4078   -0.9647   -0.2702 C   0  0  0  0  0  0  0  0  0  0  0  0
    5.0175    0.9751    1.0346 C   0  0  0  0  0  0  0  0  0  0  0  0
   -1.5009    1.8219    0.1763 C   0  0  0  0  0  0  0  0  0  0  0  0
   -2.9731   -0.0881    0.0284 C   0  0  0  0  0  0  0  0  0  0  0  0
   -0.6995   -0.2506   -0.7721 C   0  0  0  0  0  0  0  0  0  0  0  0
   -2.7495    1.2394    0.3937 C   0  0  0  0  0  0  0  0  0  0  0  0
    5.2993   -1.7422    0.4693 C   0  0  0  0  0  0  0  0  0  0  0  0
   -1.9480   -0.8331   -0.5544 C   0  0  0  0  0  0  0  0  0  0  0  0
    5.9087    0.1977    1.7742 C   0  0  0  0  0  0  0  0  0  0  0  0
   -4.2678   -0.6930    0.2542 C   0  0  0  0  0  0  0  0  0  0  0  0
    6.0496   -1.1610    1.4915 C   0  0  0  0  0  0  0  0  0  0  0  0
   -5.0060   -1.1905   -0.8140 C   0  0  0  0  0  0  0  0  0  0  0  0
   -4.7782   -0.7789    1.5447 C   0  0  0  0  0  0  0  0  0  0  0  0
   -6.2394   -1.7596   -0.5407 C   0  0  0  0  0  0  0  0  0  0  0  0
   -6.0218   -1.3664    1.7125 C   0  0  0  0  0  0  0  0  0  0  0  0
   -2.4053    3.8038    1.1301 C   0  0  0  0  0  0  0  0  0  0  0  0
    4.6403   -3.5963   -0.8662 C   0  0  0  0  0  0  0  0  0  0  0  0
    3.3602    2.2727   -0.4320 H   0  0  0  0  0  0  0  0  0  0  0  0
    1.7878   -0.1811   -0.3920 H   0  0  0  0  0  0  0  0  0  0  0  0
    4.6752    1.5840   -2.4398 H   0  0  0  0  0  0  0  0  0  0  0  0
    2.9853    1.9598   -2.8145 H   0  0  0  0  0  0  0  0  0  0  0  0
    3.5147    0.2813   -2.7479 H   0  0  0  0  0  0  0  0  0  0  0  0
    3.7995   -1.3724   -1.0701 H   0  0  0  0  0  0  0  0  0  0  0  0
    4.9190    2.0320    1.2674 H   0  0  0  0  0  0  0  0  0  0  0  0
    0.0600   -0.8569   -1.2575 H   0  0  0  0  0  0  0  0  0  0  0  0
   -3.5827    1.7765    0.8357 H   0  0  0  0  0  0  0  0  0  0  0  0
   -2.1015   -1.8692   -0.8474 H   0  0  0  0  0  0  0  0  0  0  0  0
    6.4931    0.6501    2.5701 H   0  0  0  0  0  0  0  0  0  0  0  0
    6.7458   -1.7614    2.0707 H   0  0  0  0  0  0  0  0  0  0  0  0
   -4.2337   -0.4089    2.4077 H   0  0  0  0  0  0  0  0  0  0  0  0
   -6.8540   -2.1622   -1.3391 H   0  0  0  0  0  0  0  0  0  0  0  0
   -6.4638   -1.4590    2.6991 H   0  0  0  0  0  0  0  0  0  0  0  0
   -3.2422    3.8993    0.4298 H   0  0  0  0  0  0  0  0  0  0  0  0
   -2.7032    3.3490    2.0811 H   0  0  0  0  0  0  0  0  0  0  0  0
   -2.0678    4.8202    1.3586 H   0  0  0  0  0  0  0  0  0  0  0  0
    3.5712   -3.5261   -0.6383 H   0  0  0  0  0  0  0  0  0  0  0  0
    4.8920   -3.1378   -1.8286 H   0  0  0  0  0  0  0  0  0  0  0  0
    4.8792   -4.6617   -0.9486 H   0  0  0  0  0  0  0  0  0  0  0  0
  1 23  1  0  0  0  0
  2 14  1  0  0  0  0
  2 27  1  0  0  0  0
  3 18  1  0  0  0  0
  3 28  1  0  0  0  0
  4 11  2  0  0  0  0
  5  7  1  0  0  0  0
  5 11  1  0  0  0  0
  5 30  1  0  0  0  0
  6 25  2  0  0  0  0
  6 26  1  0  0  0  0
  7  8  1  0  0  0  0
  7  9  1  0  0  0  0
  7 29  1  0  0  0  0
  8 12  2  0  0  0  0
  8 13  1  0  0  0  0
  9 31  1  0  0  0  0
  9 32  1  0  0  0  0
  9 33  1  0  0  0  0
 10 11  1  0  0  0  0
 10 14  2  0  0  0  0
 10 16  1  0  0  0  0
 12 18  1  0  0  0  0
 12 34  1  0  0  0  0
 13 20  2  0  0  0  0
 13 35  1  0  0  0  0
 14 17  1  0  0  0  0
 15 17  2  0  0  0  0
 15 19  1  0  0  0  0
 15 21  1  0  0  0  0
 16 19  2  0  0  0  0
 16 36  1  0  0  0  0
 17 37  1  0  0  0  0
 18 22  2  0  0  0  0
 19 38  1  0  0  0  0
 20 22  1  0  0  0  0
 20 39  1  0  0  0  0
 21 23  2  0  0  0  0
 21 24  1  0  0  0  0
 22 40  1  0  0  0  0
 23 25  1  0  0  0  0
 24 26  2  0  0  0  0
 24 41  1  0  0  0  0
 25 42  1  0  0  0  0
 26 43  1  0  0  0  0
 27 44  1  0  0  0  0
 27 45  1  0  0  0  0
 27 46  1  0  0  0  0
 28 47  1  0  0  0  0
 28 48  1  0  0  0  0
 28 49  1  0  0  0  0
M  END
> <PUBCHEM_COMPOUND_CID>
49830825

> <PUBCHEM_CONFORMER_RMSD>
1.2

> <PUBCHEM_CONFORMER_DIVERSEORDER>
8
26
14
52
57
20
27
54
46
24
22
5
29
48
45
41
11
2
28
15
18
34
49
56
19
12
55
50
7
47
16
33
4
40
32
38
37
9
53
10
35
43
44
3
31
39
51
36
17
1
42
21
6
30
23
13
25

> <PUBCHEM_MMFF94_PARTIAL_CHARGES>
36
1 -0.19
10 0.09
11 0.54
12 -0.15
13 -0.15
14 0.08
16 -0.15
17 -0.15
18 0.08
19 -0.15
2 -0.36
20 -0.15
22 -0.15
23 0.19
24 -0.15
25 0.16
26 0.16
27 0.28
28 0.28
3 -0.36
30 0.37
34 0.15
35 0.15
36 0.15
37 0.15
38 0.15
39 0.15
4 -0.57
40 0.15
41 0.15
42 0.15
43 0.15
5 -0.73
6 -0.62
7 0.44
8 -0.14

> <PUBCHEM_EFFECTIVE_ROTOR_COUNT>
7

> <PUBCHEM_PHARMACOPHORE_FEATURES>
8
1 2 acceptor
1 3 acceptor
1 4 acceptor
1 5 donor
1 6 acceptor
6 10 14 15 16 17 19 rings
6 6 21 23 24 25 26 rings
6 8 12 13 18 20 22 rings

> <PUBCHEM_HEAVY_ATOM_COUNT>
28

> <PUBCHEM_ATOM_DEF_STEREO_COUNT>
0

> <PUBCHEM_ATOM_UDEF_STEREO_COUNT>
1

> <PUBCHEM_BOND_DEF_STEREO_COUNT>
0

> <PUBCHEM_BOND_UDEF_STEREO_COUNT>
0

> <PUBCHEM_ISOTOPIC_ATOM_COUNT>
0

> <PUBCHEM_COMPONENT_COUNT>
1

> <PUBCHEM_CACTVS_TAUTO_COUNT>
2

> <PUBCHEM_CONFORMER_ID>
02F85BA900000008

> <PUBCHEM_MMFF94_ENERGY>
101.0955

> <PUBCHEM_FEATURE_SELFOVERLAP>
40.606

> <PUBCHEM_SHAPE_FINGERPRINT>
10319926 262 17987243227109278188
10838868 229 17909278983640518563
11399510 152 17987785333765631258
117089 54 18192721042667649938
11796584 16 17385718144982640099
12166972 35 17749111118555047525
12422481 6 17775010029127255591
12623949 98 18200880561628055998
12633257 1 16702013210396966800
12760667 363 18407759248781014483
12892183 10 18201711813719111820
12925494 130 17840022949081571592
13533116 47 18336267928906275368
13540713 5 18190482522491787692
13551218 46 18413108355232841399
13692114 37 17625833669345298449
13782708 43 17531812488823459059
14211702 104 18335141959947809050
14251740 57 18410860915575859206
14347332 77 18408888416957684837
14420673 8 17836934395766770046
14528608 73 9439404618493625602
14848178 5 18259701198917271560
15183329 4 15792002381413407145
15188451 53 18334002883508440504
15510800 12 18113344098296336274
17492 89 18339364050887323534
1768 124 18341328980718646286
1813 80 17531531980293212612
19301679 30 18341061743985231107
19377110 9 18201440306960575192
1979834 28 17988655094296839798
2026 5 17458334261058776763
21033648 29 12103552100965214330
21315764 119 14924211703751869715
21792934 111 18341899542012609243
22061861 79 17385438856070670239
2303208 19 16515971466637513323
23559900 14 17241607415594754389
23845131 108 17267811779688293921
25122255 55 17821734952760656587
3004659 81 17821730559246054126
3383291 50 18187364350127400387
34797466 226 15936976378639318837
3504750 166 18201718414941401759
3886686 26 17622172260821252682
397830 11 14117522099169660439
4017518 198 14215966520918099552
4461854 278 18343586270297367902
46194498 28 16878222065019449894
474113 269 18342170069149844399
5104073 3 18130508514124142976
5718773 13 17677318417532780274
59682541 52 14129329694104797482
7970288 3 18339080496862196139
86090 222 18113905944438134698

> <PUBCHEM_SHAPE_MULTIPOLES>
541.38
17.81
3.55
1.61
1.54
0.86
0.07
-15.12
-5.6
-1.05
-0.09
-0.41
0
-0.68

> <PUBCHEM_SHAPE_SELFOVERLAP>
1173.781

> <PUBCHEM_SHAPE_VOLUME>
297.8

> <PUBCHEM_COORDINATE_TYPE>
2
5
10

$$$$
