24905159
  -OEChem-10052115163D

 42 44  0     0  0  0  0  0  0999 V2000
    4.3772   -0.4362    1.2754 S   0  0  0  0  0  0  0  0  0  0  0  0
    5.2793   -0.1868    2.3843 O   0  0  0  0  0  0  0  0  0  0  0  0
    3.2710   -1.3618    1.4193 O   0  0  0  0  0  0  0  0  0  0  0  0
   -2.8656    0.7546    0.4097 N   0  0  0  0  0  0  0  0  0  0  0  0
   -1.7335    1.4120    0.0968 N   0  0  0  0  0  0  0  0  0  0  0  0
   -3.7606   -1.4951    0.4074 N   0  0  0  0  0  0  0  0  0  0  0  0
    3.8360    1.0795    0.6626 N   0  0  0  0  0  0  0  0  0  0  0  0
   -2.1303   -3.1136   -0.4132 N   0  0  0  0  0  0  0  0  0  0  0  0
    0.0652   -2.4913   -1.1131 N   0  0  0  0  0  0  0  0  0  0  0  0
   -3.9969    1.4899    0.9234 C   0  0  0  0  0  0  0  0  0  0  0  0
   -1.5233   -0.8285   -0.3023 C   0  0  0  0  0  0  0  0  0  0  0  0
   -2.7942   -0.5889    0.1901 C   0  0  0  0  0  0  0  0  0  0  0  0
   -0.9200    0.4426   -0.3362 C   0  0  0  0  0  0  0  0  0  0  0  0
    0.4150    0.7685   -0.7703 C   0  0  0  0  0  0  0  0  0  0  0  0
   -4.5159    2.5082   -0.0949 C   0  0  0  0  0  0  0  0  0  0  0  0
   -3.6691    2.1693    2.2553 C   0  0  0  0  0  0  0  0  0  0  0  0
   -1.2017   -2.1467   -0.6082 C   0  0  0  0  0  0  0  0  0  0  0  0
    1.4670    0.7653    0.1457 C   0  0  0  0  0  0  0  0  0  0  0  0
    2.7587    1.0824   -0.2745 C   0  0  0  0  0  0  0  0  0  0  0  0
    0.6549    1.0888   -2.1065 C   0  0  0  0  0  0  0  0  0  0  0  0
    2.9985    1.4029   -1.6108 C   0  0  0  0  0  0  0  0  0  0  0  0
    1.9466    1.4062   -2.5268 C   0  0  0  0  0  0  0  0  0  0  0  0
   -3.3349   -2.7331    0.0755 C   0  0  0  0  0  0  0  0  0  0  0  0
    5.3766   -0.9880   -0.0888 C   0  0  0  0  0  0  0  0  0  0  0  0
   -4.8001    0.7664    1.1085 H   0  0  0  0  0  0  0  0  0  0  0  0
   -3.7751    3.2886   -0.3013 H   0  0  0  0  0  0  0  0  0  0  0  0
   -5.4239    2.9961    0.2750 H   0  0  0  0  0  0  0  0  0  0  0  0
   -4.7582    2.0200   -1.0453 H   0  0  0  0  0  0  0  0  0  0  0  0
   -2.8958    2.9368    2.1393 H   0  0  0  0  0  0  0  0  0  0  0  0
   -3.3054    1.4386    2.9863 H   0  0  0  0  0  0  0  0  0  0  0  0
   -4.5598    2.6501    2.6733 H   0  0  0  0  0  0  0  0  0  0  0  0
    1.2782    0.5281    1.1909 H   0  0  0  0  0  0  0  0  0  0  0  0
   -0.1541    1.0954   -2.8332 H   0  0  0  0  0  0  0  0  0  0  0  0
    4.0011    1.6503   -1.9499 H   0  0  0  0  0  0  0  0  0  0  0  0
    2.1333    1.6550   -3.5673 H   0  0  0  0  0  0  0  0  0  0  0  0
    4.5823    1.7525    0.4420 H   0  0  0  0  0  0  0  0  0  0  0  0
   -4.0546   -3.5318    0.2194 H   0  0  0  0  0  0  0  0  0  0  0  0
    0.7778   -1.7932   -1.2669 H   0  0  0  0  0  0  0  0  0  0  0  0
    0.2577   -3.4618   -1.3217 H   0  0  0  0  0  0  0  0  0  0  0  0
    5.8465   -1.9310    0.1998 H   0  0  0  0  0  0  0  0  0  0  0  0
    4.7410   -1.1479   -0.9612 H   0  0  0  0  0  0  0  0  0  0  0  0
    6.1456   -0.2405   -0.2923 H   0  0  0  0  0  0  0  0  0  0  0  0
  1  2  2  0  0  0  0
  1  3  2  0  0  0  0
  1  7  1  0  0  0  0
  1 24  1  0  0  0  0
  4  5  1  0  0  0  0
  4 10  1  0  0  0  0
  4 12  1  0  0  0  0
  5 13  2  0  0  0  0
  6 12  2  0  0  0  0
  6 23  1  0  0  0  0
  7 19  1  0  0  0  0
  7 36  1  0  0  0  0
  8 17  1  0  0  0  0
  8 23  2  0  0  0  0
  9 17  1  0  0  0  0
  9 38  1  0  0  0  0
  9 39  1  0  0  0  0
 10 15  1  0  0  0  0
 10 16  1  0  0  0  0
 10 25  1  0  0  0  0
 11 12  1  0  0  0  0
 11 13  1  0  0  0  0
 11 17  2  0  0  0  0
 13 14  1  0  0  0  0
 14 18  2  0  0  0  0
 14 20  1  0  0  0  0
 15 26  1  0  0  0  0
 15 27  1  0  0  0  0
 15 28  1  0  0  0  0
 16 29  1  0  0  0  0
 16 30  1  0  0  0  0
 16 31  1  0  0  0  0
 18 19  1  0  0  0  0
 18 32  1  0  0  0  0
 19 21  2  0  0  0  0
 20 22  2  0  0  0  0
 20 33  1  0  0  0  0
 21 22  1  0  0  0  0
 21 34  1  0  0  0  0
 22 35  1  0  0  0  0
 23 37  1  0  0  0  0
 24 40  1  0  0  0  0
 24 41  1  0  0  0  0
 24 42  1  0  0  0  0
M  END
> <PUBCHEM_COMPOUND_CID>
24905159

> <PUBCHEM_CONFORMER_RMSD>
0.8

> <PUBCHEM_CONFORMER_DIVERSEORDER>
1
9
40
19
3
5
4
37
8
41
33
16
18
35
21
15
26
31
17
23
13
39
22
11
36
38
10
14
34
24
27
20
12
25
42
29
28
30
2
7
6
32

> <PUBCHEM_MMFF94_PARTIAL_CHARGES>
29
1 1.33
10 0.26
12 0.11
13 0.23
14 0.05
17 0.41
18 -0.15
19 0.2
2 -0.65
20 -0.15
21 -0.15
22 -0.15
23 0.47
24 0.11
3 -0.65
32 0.15
33 0.15
34 0.15
35 0.15
36 0.42
37 0.15
38 0.4
39 0.4
4 0.31
5 -0.71
6 -0.57
7 -0.76
8 -0.62
9 -0.9

> <PUBCHEM_EFFECTIVE_ROTOR_COUNT>
4

> <PUBCHEM_PHARMACOPHORE_FEATURES>
12
1 2 acceptor
1 3 acceptor
1 5 acceptor
1 7 donor
1 9 cation
1 9 donor
3 10 15 16 hydrophobe
3 4 6 12 cation
3 6 8 23 cation
5 4 5 11 12 13 rings
6 14 18 19 20 21 22 rings
6 6 8 11 12 17 23 rings

> <PUBCHEM_HEAVY_ATOM_COUNT>
24

> <PUBCHEM_ATOM_DEF_STEREO_COUNT>
0

> <PUBCHEM_ATOM_UDEF_STEREO_COUNT>
0

> <PUBCHEM_BOND_DEF_STEREO_COUNT>
0

> <PUBCHEM_BOND_UDEF_STEREO_COUNT>
0

> <PUBCHEM_ISOTOPIC_ATOM_COUNT>
0

> <PUBCHEM_COMPONENT_COUNT>
1

> <PUBCHEM_CACTVS_TAUTO_COUNT>
5

> <PUBCHEM_CONFORMER_ID>
017C05C700000001

> <PUBCHEM_MMFF94_ENERGY>
58.6662

> <PUBCHEM_FEATURE_SELFOVERLAP>
61.192

> <PUBCHEM_SHAPE_FINGERPRINT>
10928967 22 17458893861127370650
11049842 53 18052854435654233860
11725454 13 16844996914781558064
12107183 9 18264487291550213976
12236239 1 17969510483506184669
12403259 327 18130779045487467736
12422481 6 18116433635363934160
12549972 3 17129895783522648486
12623949 98 14131350665143996497
12633257 1 18412539890968679920
12788726 201 18122923180888494683
12892183 10 18199741613182656576
13140716 1 18124057649719121779
13583140 156 17489292136240404298
13726171 33 17699039423641516464
14178342 30 18342470235301526229
14420673 8 18268434525747183286
14739800 52 18127409184278161448
15537594 2 17822292332600352834
15842332 3 18042417995663647668
16110190 28 18264757780539113002
16752209 62 18269005339547645519
17349148 13 18412257363740403767
173720 79 18334864918226459421
17780758 139 18340186537140261082
17818456 19 18336549317688695740
1813 80 17458625601722168622
19141452 34 18261383408831903474
20510252 161 17914637152926033169
20554085 129 17987790797011841761
20600515 1 18131075913437634968
20645477 70 16226884613529413668
20693207 138 13912612683637011712
21033648 29 16702032980010318896
21065201 7 18057627497129331668
212916 134 18130230358930532233
21304303 282 18129360645907993861
21756936 100 17127025174598275216
23557571 272 17702966818987724293
23559900 14 17987820535243989180
23598288 3 18263094347862153027
23598291 2 17968666020153338780
25147074 1 18187655755104434557
312423 11 18041572458421186830
3886686 26 18267306430505560123
495365 180 16988011478769642845
5104073 3 18408882971071172288
56633871 153 18043799893139188090
573450 72 18410012169074794200
58807428 26 18338245851598581507
7064713 232 18412538795677900242
7097593 13 18333730230188827228
7615 1 18115878575329187837
77492 1 17896611771731592501
9849439 229 17841452340406120561
9862522 239 18262231102343346629
9981440 41 17060056995770821577

> <PUBCHEM_SHAPE_MULTIPOLES>
456.13
10.05
2.98
1.93
6.28
1.77
-0.08
-1.09
-5.66
-3.62
0.41
1.74
-0.9
-2.17

> <PUBCHEM_SHAPE_SELFOVERLAP>
972.965

> <PUBCHEM_SHAPE_VOLUME>
257.2

> <PUBCHEM_COORDINATE_TYPE>
2
5
10

$$$$
