49830566
  -OEChem-10062121523D

 48 51  0     0  0  0  0  0  0999 V2000
   -6.9765   -1.6877    1.0327 S   0  0  0  0  0  0  0  0  0  0  0  0
   -2.9392    0.8775    1.2081 O   0  0  0  0  0  0  0  0  0  0  0  0
    3.6885    0.9295    0.5988 O   0  0  0  0  0  0  0  0  0  0  0  0
   -2.5004   -1.1372    0.0880 N   0  0  0  0  0  0  0  0  0  0  0  0
    3.0774   -1.0884   -0.4232 N   0  0  0  0  0  0  0  0  0  0  0  0
    5.3058   -0.4897   -0.3173 N   0  0  0  0  0  0  0  0  0  0  0  0
   -8.1799    0.2858   -0.2922 N   0  0  0  0  0  0  0  0  0  0  0  0
   -6.8475    2.1142   -1.1639 N   0  0  0  0  0  0  0  0  0  0  0  0
   -4.4933    2.2331   -0.8898 N   0  0  0  0  0  0  0  0  0  0  0  0
   -4.7576   -0.4563    0.6376 C   0  0  0  0  0  0  0  0  0  0  0  0
   -5.7624    0.3531    0.0200 C   0  0  0  0  0  0  0  0  0  0  0  0
   -1.0898   -1.1247   -0.0406 C   0  0  0  0  0  0  0  0  0  0  0  0
   -7.0192   -0.2185    0.1703 C   0  0  0  0  0  0  0  0  0  0  0  0
   -3.3437   -0.1791    0.6815 C   0  0  0  0  0  0  0  0  0  0  0  0
    1.6881   -1.1001   -0.2954 C   0  0  0  0  0  0  0  0  0  0  0  0
   -5.2792   -1.5900    1.2222 C   0  0  0  0  0  0  0  0  0  0  0  0
   -5.7141    1.5639   -0.6784 C   0  0  0  0  0  0  0  0  0  0  0  0
    6.5104    0.2066   -0.0604 C   0  0  0  0  0  0  0  0  0  0  0  0
   -0.3527   -0.0526    0.4626 C   0  0  0  0  0  0  0  0  0  0  0  0
   -0.4379   -2.1845   -0.6710 C   0  0  0  0  0  0  0  0  0  0  0  0
    7.7393   -0.3181   -0.4604 C   0  0  0  0  0  0  0  0  0  0  0  0
    1.0362   -0.0402    0.3351 C   0  0  0  0  0  0  0  0  0  0  0  0
    0.9511   -2.1721   -0.7984 C   0  0  0  0  0  0  0  0  0  0  0  0
    3.9972   -0.1047    0.0152 C   0  0  0  0  0  0  0  0  0  0  0  0
    6.4581    1.4330    0.6021 C   0  0  0  0  0  0  0  0  0  0  0  0
    8.9159    0.3835   -0.1978 C   0  0  0  0  0  0  0  0  0  0  0  0
    7.8255   -1.6295   -1.1715 C   0  0  0  0  0  0  0  0  0  0  0  0
    7.6347    2.1347    0.8648 C   0  0  0  0  0  0  0  0  0  0  0  0
    8.8636    1.6099    0.4648 C   0  0  0  0  0  0  0  0  0  0  0  0
   -7.9980    1.4485   -0.9433 C   0  0  0  0  0  0  0  0  0  0  0  0
   -2.9534   -1.9547   -0.3161 H   0  0  0  0  0  0  0  0  0  0  0  0
   -4.7514   -2.3692    1.7551 H   0  0  0  0  0  0  0  0  0  0  0  0
   -0.7868    0.8021    0.9617 H   0  0  0  0  0  0  0  0  0  0  0  0
   -1.0002   -3.0260   -1.0675 H   0  0  0  0  0  0  0  0  0  0  0  0
    1.5356    0.8240    0.7496 H   0  0  0  0  0  0  0  0  0  0  0  0
    1.4460   -3.0046   -1.2921 H   0  0  0  0  0  0  0  0  0  0  0  0
    3.4790   -1.8954   -0.8942 H   0  0  0  0  0  0  0  0  0  0  0  0
    5.3961   -1.3776   -0.8018 H   0  0  0  0  0  0  0  0  0  0  0  0
    5.5532    1.9113    0.9460 H   0  0  0  0  0  0  0  0  0  0  0  0
    9.8820   -0.0104   -0.5021 H   0  0  0  0  0  0  0  0  0  0  0  0
    8.8612   -1.8931   -1.4130 H   0  0  0  0  0  0  0  0  0  0  0  0
    7.2737   -1.5920   -2.1167 H   0  0  0  0  0  0  0  0  0  0  0  0
    7.4258   -2.4341   -0.5453 H   0  0  0  0  0  0  0  0  0  0  0  0
    7.5957    3.0898    1.3807 H   0  0  0  0  0  0  0  0  0  0  0  0
    9.7797    2.1563    0.6693 H   0  0  0  0  0  0  0  0  0  0  0  0
   -8.8937    1.9111   -1.3431 H   0  0  0  0  0  0  0  0  0  0  0  0
   -4.5065    3.1058   -1.4011 H   0  0  0  0  0  0  0  0  0  0  0  0
   -3.6149    1.8648   -0.5599 H   0  0  0  0  0  0  0  0  0  0  0  0
  1 13  1  0  0  0  0
  1 16  1  0  0  0  0
  2 14  2  0  0  0  0
  3 24  2  0  0  0  0
  4 12  1  0  0  0  0
  4 14  1  0  0  0  0
  4 31  1  0  0  0  0
  5 15  1  0  0  0  0
  5 24  1  0  0  0  0
  5 37  1  0  0  0  0
  6 18  1  0  0  0  0
  6 24  1  0  0  0  0
  6 38  1  0  0  0  0
  7 13  2  0  0  0  0
  7 30  1  0  0  0  0
  8 17  1  0  0  0  0
  8 30  2  0  0  0  0
  9 17  1  0  0  0  0
  9 47  1  0  0  0  0
  9 48  1  0  0  0  0
 10 11  1  0  0  0  0
 10 14  1  0  0  0  0
 10 16  2  0  0  0  0
 11 13  1  0  0  0  0
 11 17  2  0  0  0  0
 12 19  2  0  0  0  0
 12 20  1  0  0  0  0
 15 22  2  0  0  0  0
 15 23  1  0  0  0  0
 16 32  1  0  0  0  0
 18 21  1  0  0  0  0
 18 25  2  0  0  0  0
 19 22  1  0  0  0  0
 19 33  1  0  0  0  0
 20 23  2  0  0  0  0
 20 34  1  0  0  0  0
 21 26  2  0  0  0  0
 21 27  1  0  0  0  0
 22 35  1  0  0  0  0
 23 36  1  0  0  0  0
 25 28  1  0  0  0  0
 25 39  1  0  0  0  0
 26 29  1  0  0  0  0
 26 40  1  0  0  0  0
 27 41  1  0  0  0  0
 27 42  1  0  0  0  0
 27 43  1  0  0  0  0
 28 29  2  0  0  0  0
 28 44  1  0  0  0  0
 29 45  1  0  0  0  0
 30 46  1  0  0  0  0
M  END
> <PUBCHEM_COMPOUND_CID>
49830566

> <PUBCHEM_CONFORMER_RMSD>
0.8

> <PUBCHEM_CONFORMER_DIVERSEORDER>
1
30
25
26
47
46
45
19
33
15
28
36
62
55
6
66
39
40
50
56
35
29
51
49
7
38
54
2
43
31
21
16
37
22
13
65
32
53
48
61
63
58
27
41
4
67
18
57
5
59
3
23
44
8
24
17
52
9
34
64
12
60
11
14
20
10
42

> <PUBCHEM_MMFF94_PARTIAL_CHARGES>
44
1 -0.08
10 -0.09
12 0.12
13 0.3
14 0.72
15 0.12
16 -0.11
17 0.41
18 0.12
19 -0.15
2 -0.57
20 -0.15
21 -0.14
22 -0.15
23 -0.15
24 0.69
25 -0.15
26 -0.15
27 0.14
28 -0.15
29 -0.15
3 -0.57
30 0.47
31 0.37
32 0.15
33 0.15
34 0.15
35 0.15
36 0.15
37 0.37
38 0.37
39 0.15
4 -0.55
40 0.15
44 0.15
45 0.15
46 0.15
47 0.4
48 0.4
5 -0.55
6 -0.55
7 -0.57
8 -0.62
9 -0.9

> <PUBCHEM_EFFECTIVE_ROTOR_COUNT>
7

> <PUBCHEM_PHARMACOPHORE_FEATURES>
13
1 2 acceptor
1 3 acceptor
1 4 donor
1 5 donor
1 6 donor
1 7 acceptor
1 9 cation
1 9 donor
3 7 8 30 cation
5 1 10 11 13 16 rings
6 12 15 19 20 22 23 rings
6 18 21 25 26 28 29 rings
6 7 8 11 13 17 30 rings

> <PUBCHEM_HEAVY_ATOM_COUNT>
30

> <PUBCHEM_ATOM_DEF_STEREO_COUNT>
0

> <PUBCHEM_ATOM_UDEF_STEREO_COUNT>
0

> <PUBCHEM_BOND_DEF_STEREO_COUNT>
0

> <PUBCHEM_BOND_UDEF_STEREO_COUNT>
0

> <PUBCHEM_ISOTOPIC_ATOM_COUNT>
0

> <PUBCHEM_COMPONENT_COUNT>
1

> <PUBCHEM_CACTVS_TAUTO_COUNT>
24

> <PUBCHEM_CONFORMER_ID>
02F85AA600000001

> <PUBCHEM_MMFF94_ENERGY>
99.4776

> <PUBCHEM_FEATURE_SELFOVERLAP>
66.101

> <PUBCHEM_SHAPE_FINGERPRINT>
10 15 18408039623761021666
10299344 5 13686299071314574677
10666366 153 18411427181417944414
10669705 176 18413392016463768438
10835480 77 18337390449122157957
11135926 11 17561090189768843119
11315181 36 18273498971077960131
125118 31 18187086178723831476
12643181 29 10015864276150380073
12838862 33 18059563703479329672
13811026 1 18408887342930803108
13911987 19 17775280535580378999
14251764 18 16153426155746587762
150020 25 18411417293522442228
15131766 46 17463143679932994084
15183329 4 16200431368834806910
15289351 153 18271806775332885370
15301273 46 18260267443453649838
15328684 2 16588568826143328080
15419008 47 18411695487028718113
15461852 350 18187652427038017007
15840311 113 18334861654336443924
15849732 13 18410294731121245284
1754911 235 17989204841230337212
1818759 1 7853577933207164048
18335252 114 17917709107015395648
19611394 137 18117290344296406347
20281389 69 18411702097752447858
21150785 3 15698000734313490260
21792934 111 18272925013429268904
21792961 116 18201441337768394682
22224240 67 16515684472686194218
23576562 1 18057874926185558589
246663 6 10087641507006435012
249057 3 14836118883963746466
335352 9 18060706104887828564
395649 100 18338510959020105327
437795 83 17988644043752506817
44280117 145 18342175631380444951
5219985 9 14851603302086669478
5758199 1 16805040718173348026
636775 72 18335419016332288717
9689198 14 18335420179808710402

> <PUBCHEM_SHAPE_MULTIPOLES>
579.61
32.31
2.2
1.05
26.1
0.21
0.02
12.69
-1.4
-0.68
-0.38
-0.73
0.03
3.89

> <PUBCHEM_SHAPE_SELFOVERLAP>
1262.853

> <PUBCHEM_SHAPE_VOLUME>
315

> <PUBCHEM_COORDINATE_TYPE>
2
5
10

$$$$
