25164272
  -OEChem-10062121533D

 44 48  0     0  0  0  0  0  0999 V2000
   -4.4841   -2.0997   -0.4749 N   0  0  0  0  0  0  0  0  0  0  0  0
    2.9174   -1.0710    0.8815 N   0  0  0  0  0  0  0  0  0  0  0  0
   -4.8991   -0.8252   -0.3840 N   0  0  0  0  0  0  0  0  0  0  0  0
    1.9474   -2.5944   -0.2874 N   0  0  0  0  0  0  0  0  0  0  0  0
    3.1343   -2.1474    0.1083 N   0  0  0  0  0  0  0  0  0  0  0  0
   -2.6317   -0.9821   -0.1164 C   0  0  0  0  0  0  0  0  0  0  0  0
   -3.1334   -2.2623   -0.3228 C   0  0  0  0  0  0  0  0  0  0  0  0
   -0.4240   -1.9368    0.0547 C   0  0  0  0  0  0  0  0  0  0  0  0
   -3.7694   -0.1483   -0.1663 C   0  0  0  0  0  0  0  0  0  0  0  0
   -1.2513   -0.8070    0.0769 C   0  0  0  0  0  0  0  0  0  0  0  0
    0.9907   -1.7798    0.2516 C   0  0  0  0  0  0  0  0  0  0  0  0
   -2.3264   -3.4018   -0.3488 C   0  0  0  0  0  0  0  0  0  0  0  0
   -0.9544   -3.2112   -0.1547 C   0  0  0  0  0  0  0  0  0  0  0  0
   -3.8032    1.2841   -0.0123 C   0  0  0  0  0  0  0  0  0  0  0  0
    4.0202   -0.3545    1.4700 C   0  0  0  0  0  0  0  0  0  0  0  0
    1.5894   -0.7994    1.0024 C   0  0  0  0  0  0  0  0  0  0  0  0
    4.7275    0.5570    0.4978 C   0  0  0  0  0  0  0  0  0  0  0  0
   -3.3492    1.8695    1.1698 C   0  0  0  0  0  0  0  0  0  0  0  0
   -4.2893    2.0855   -1.0454 C   0  0  0  0  0  0  0  0  0  0  0  0
    5.6246    0.0263   -0.4293 C   0  0  0  0  0  0  0  0  0  0  0  0
    4.4839    1.9302    0.5253 C   0  0  0  0  0  0  0  0  0  0  0  0
   -3.3815    3.2560    1.3187 C   0  0  0  0  0  0  0  0  0  0  0  0
   -4.3214    3.4721   -0.8964 C   0  0  0  0  0  0  0  0  0  0  0  0
   -3.8674    4.0572    0.2857 C   0  0  0  0  0  0  0  0  0  0  0  0
    6.2783    0.8687   -1.3286 C   0  0  0  0  0  0  0  0  0  0  0  0
    5.1375    2.7725   -0.3741 C   0  0  0  0  0  0  0  0  0  0  0  0
    6.0346    2.2418   -1.3011 C   0  0  0  0  0  0  0  0  0  0  0  0
   -0.8536    0.1928    0.2250 H   0  0  0  0  0  0  0  0  0  0  0  0
   -2.7405   -4.3907   -0.5107 H   0  0  0  0  0  0  0  0  0  0  0  0
   -0.3092   -4.0878   -0.1674 H   0  0  0  0  0  0  0  0  0  0  0  0
   -5.1781   -2.8173   -0.6428 H   0  0  0  0  0  0  0  0  0  0  0  0
    4.7217   -1.0929    1.8778 H   0  0  0  0  0  0  0  0  0  0  0  0
    3.6366    0.2126    2.3268 H   0  0  0  0  0  0  0  0  0  0  0  0
    1.2145    0.0275    1.5901 H   0  0  0  0  0  0  0  0  0  0  0  0
   -2.9713    1.2621    1.9889 H   0  0  0  0  0  0  0  0  0  0  0  0
   -4.6441    1.6482   -1.9758 H   0  0  0  0  0  0  0  0  0  0  0  0
    5.8283   -1.0407   -0.4590 H   0  0  0  0  0  0  0  0  0  0  0  0
    3.7858    2.3565    1.2408 H   0  0  0  0  0  0  0  0  0  0  0  0
   -3.0292    3.7117    2.2394 H   0  0  0  0  0  0  0  0  0  0  0  0
   -4.6989    4.0963   -1.7010 H   0  0  0  0  0  0  0  0  0  0  0  0
   -3.8925    5.1368    0.4016 H   0  0  0  0  0  0  0  0  0  0  0  0
    6.9777    0.4558   -2.0496 H   0  0  0  0  0  0  0  0  0  0  0  0
    4.9476    3.8417   -0.3533 H   0  0  0  0  0  0  0  0  0  0  0  0
    6.5436    2.8978   -2.0012 H   0  0  0  0  0  0  0  0  0  0  0  0
  1  3  1  0  0  0  0
  1  7  1  0  0  0  0
  1 31  1  0  0  0  0
  2  5  1  0  0  0  0
  2 15  1  0  0  0  0
  2 16  1  0  0  0  0
  3  9  2  0  0  0  0
  4  5  2  0  0  0  0
  4 11  1  0  0  0  0
  6  7  2  0  0  0  0
  6  9  1  0  0  0  0
  6 10  1  0  0  0  0
  7 12  1  0  0  0  0
  8 10  2  0  0  0  0
  8 11  1  0  0  0  0
  8 13  1  0  0  0  0
  9 14  1  0  0  0  0
 10 28  1  0  0  0  0
 11 16  2  0  0  0  0
 12 13  2  0  0  0  0
 12 29  1  0  0  0  0
 13 30  1  0  0  0  0
 14 18  2  0  0  0  0
 14 19  1  0  0  0  0
 15 17  1  0  0  0  0
 15 32  1  0  0  0  0
 15 33  1  0  0  0  0
 16 34  1  0  0  0  0
 17 20  2  0  0  0  0
 17 21  1  0  0  0  0
 18 22  1  0  0  0  0
 18 35  1  0  0  0  0
 19 23  2  0  0  0  0
 19 36  1  0  0  0  0
 20 25  1  0  0  0  0
 20 37  1  0  0  0  0
 21 26  2  0  0  0  0
 21 38  1  0  0  0  0
 22 24  2  0  0  0  0
 22 39  1  0  0  0  0
 23 24  1  0  0  0  0
 23 40  1  0  0  0  0
 24 41  1  0  0  0  0
 25 27  2  0  0  0  0
 25 42  1  0  0  0  0
 26 27  1  0  0  0  0
 26 43  1  0  0  0  0
 27 44  1  0  0  0  0
M  END
> <PUBCHEM_COMPOUND_CID>
25164272

> <PUBCHEM_CONFORMER_RMSD>
0.8

> <PUBCHEM_CONFORMER_DIVERSEORDER>
1
13
30
25
27
26
9
5
11
33
12
15
20
19
4
23
29
18
2
6
3
22
28
31
17
24
34
8
21
32
16
7
10
14

> <PUBCHEM_MMFF94_PARTIAL_CHARGES>
41
1 0.3
10 -0.15
11 0.17
12 -0.15
13 -0.15
14 0.05
15 0.4
16 -0.3
17 -0.14
18 -0.15
19 -0.15
2 0.31
20 -0.15
21 -0.15
22 -0.15
23 -0.15
24 -0.15
25 -0.15
26 -0.15
27 -0.15
28 0.15
29 0.15
3 -0.71
30 0.15
31 0.27
34 0.15
35 0.15
36 0.15
37 0.15
38 0.15
39 0.15
4 -0.23
40 0.15
41 0.15
42 0.15
43 0.15
44 0.15
5 -0.42
7 -0.15
8 0.05
9 0.23

> <PUBCHEM_EFFECTIVE_ROTOR_COUNT>
4

> <PUBCHEM_PHARMACOPHORE_FEATURES>
7
1 1 donor
1 3 acceptor
5 1 3 6 7 9 rings
5 2 4 5 11 16 rings
6 14 18 19 22 23 24 rings
6 17 20 21 25 26 27 rings
6 6 7 8 10 12 13 rings

> <PUBCHEM_HEAVY_ATOM_COUNT>
27

> <PUBCHEM_ATOM_DEF_STEREO_COUNT>
0

> <PUBCHEM_ATOM_UDEF_STEREO_COUNT>
0

> <PUBCHEM_BOND_DEF_STEREO_COUNT>
0

> <PUBCHEM_BOND_UDEF_STEREO_COUNT>
0

> <PUBCHEM_ISOTOPIC_ATOM_COUNT>
0

> <PUBCHEM_COMPONENT_COUNT>
1

> <PUBCHEM_CACTVS_TAUTO_COUNT>
2

> <PUBCHEM_CONFORMER_ID>
017FF9F000000001

> <PUBCHEM_MMFF94_ENERGY>
63.5175

> <PUBCHEM_FEATURE_SELFOVERLAP>
35.615

> <PUBCHEM_SHAPE_FINGERPRINT>
100830 2 18261408745029671340
10670039 82 18412265068975243548
10928967 22 8789446002251844921
10937287 8 18338514119392666147
11273773 38 18194966244725506520
11315621 246 17631162181343935311
11374522 174 18048897199023634061
11796584 16 8934729924217426626
12107183 9 18118950405070454570
12390115 104 18343026553862430827
12422481 6 17240765030357474396
12596602 18 17458337568014308411
12788726 201 18263912384571858307
14251757 5 18341895241890697992
14251764 75 18268154145665198169
14347329 18 18412824685933602680
14429114 114 18266456697475748448
14739800 52 18266441283021941304
14790565 3 18408887313224728158
14840074 17 17822298972097936532
14848178 96 18125151637459617033
14932702 115 18131344198537897824
15001296 14 18192425505403107240
15163728 17 18270690765807420839
15183329 4 18342466976038598470
15575132 122 18409167727344685601
15705408 1 16259534208264706199
16992787 43 18339914941227251605
17844677 252 18410577279724280818
17899979 19 18260828242092796733
19611394 137 17755309203689556491
20567600 9 18335989701383666036
20691028 202 18127131870945217945
21049683 271 18265323097319655455
21585480 29 11098429221528720180
21796203 349 17540845088520882283
21859007 373 18129933594703574552
23516275 100 17621584442871337329
23536364 44 17489316278072487288
245318 6 18187942633198152180
249057 25 18115009880013405498
27425 322 17823700751023913273
283562 15 18409721847579154131
2838139 119 18408603691149413430
350125 39 18411698794970245497
4144715 1 18335146384408300106
44249763 50 17487321888997755432
550186 7 18202003252502998239
57591035 28 16972251964483052286
6034566 193 18269001895105739233
6058803 2 18262498334982443082
6608658 132 18198892798411138607
6673363 416 17831877003161521540
7808743 9 18410571777596419947

> <PUBCHEM_SHAPE_MULTIPOLES>
530.74
15.12
5.08
1.14
17.77
1.85
0.09
12.04
-3.63
-5.61
-0.35
0.6
0.6
-1.64

> <PUBCHEM_SHAPE_SELFOVERLAP>
1196.114

> <PUBCHEM_SHAPE_VOLUME>
280.9

> <PUBCHEM_COORDINATE_TYPE>
2
5
10

$$$$
