49830295
  -OEChem-10052115193D

 43 45  0     0  0  0  0  0  0999 V2000
    0.4954   -4.7898   -1.0527 Cl  0  0  0  0  0  0  0  0  0  0  0  0
    2.6928   -0.5217    0.1270 N   0  0  0  0  0  0  0  0  0  0  0  0
    4.2185    1.9776   -1.8894 N   0  0  0  0  0  0  0  0  0  0  0  0
    1.5632   -2.5148   -0.4173 N   0  0  0  0  0  0  0  0  0  0  0  0
   -4.0603   -0.2311    1.4550 N   0  0  0  0  0  0  0  0  0  0  0  0
   -4.8099    1.7291    0.2722 N   0  0  0  0  0  0  0  0  0  0  0  0
    4.2127    1.3928    0.5705 C   0  0  0  0  0  0  0  0  0  0  0  0
    2.7594    0.8566    0.5561 C   0  0  0  0  0  0  0  0  0  0  0  0
    4.9052    1.2662   -0.8146 C   0  0  0  0  0  0  0  0  0  0  0  0
    4.1749    2.8698    1.0179 C   0  0  0  0  0  0  0  0  0  0  0  0
    5.0531    0.6108    1.6028 C   0  0  0  0  0  0  0  0  0  0  0  0
    1.5087   -1.2272   -0.0090 C   0  0  0  0  0  0  0  0  0  0  0  0
   -0.8638   -1.2524    0.1566 C   0  0  0  0  0  0  0  0  0  0  0  0
   -2.1105   -0.6038    0.4500 C   0  0  0  0  0  0  0  0  0  0  0  0
    0.3330   -0.5567    0.2876 C   0  0  0  0  0  0  0  0  0  0  0  0
   -2.7025    0.5446   -0.1393 C   0  0  0  0  0  0  0  0  0  0  0  0
   -3.9165    0.7500    0.5097 C   0  0  0  0  0  0  0  0  0  0  0  0
   -2.9683   -1.0592    1.4278 C   0  0  0  0  0  0  0  0  0  0  0  0
   -0.8484   -2.5787   -0.2610 C   0  0  0  0  0  0  0  0  0  0  0  0
    0.3802   -3.1587   -0.5329 C   0  0  0  0  0  0  0  0  0  0  0  0
   -2.3528    1.4474   -1.1567 C   0  0  0  0  0  0  0  0  0  0  0  0
   -3.2424    2.4810   -1.4437 C   0  0  0  0  0  0  0  0  0  0  0  0
   -4.4219    2.5682   -0.7165 C   0  0  0  0  0  0  0  0  0  0  0  0
    2.3403    0.9511    1.5667 H   0  0  0  0  0  0  0  0  0  0  0  0
    2.1599    1.4863   -0.1138 H   0  0  0  0  0  0  0  0  0  0  0  0
    5.9290    1.6556   -0.7484 H   0  0  0  0  0  0  0  0  0  0  0  0
    4.9990    0.2139   -1.1043 H   0  0  0  0  0  0  0  0  0  0  0  0
    3.7886    2.9609    2.0398 H   0  0  0  0  0  0  0  0  0  0  0  0
    5.1768    3.3134    1.0025 H   0  0  0  0  0  0  0  0  0  0  0  0
    3.5293    3.4757    0.3734 H   0  0  0  0  0  0  0  0  0  0  0  0
    4.5900    0.6422    2.5956 H   0  0  0  0  0  0  0  0  0  0  0  0
    6.0588    1.0373    1.6937 H   0  0  0  0  0  0  0  0  0  0  0  0
    5.1707   -0.4413    1.3229 H   0  0  0  0  0  0  0  0  0  0  0  0
    3.5424   -1.0312   -0.0837 H   0  0  0  0  0  0  0  0  0  0  0  0
    4.2272    2.9791   -1.7030 H   0  0  0  0  0  0  0  0  0  0  0  0
    4.7336    1.8498   -2.7597 H   0  0  0  0  0  0  0  0  0  0  0  0
    0.3027    0.4749    0.6213 H   0  0  0  0  0  0  0  0  0  0  0  0
   -2.9061   -1.8962    2.1105 H   0  0  0  0  0  0  0  0  0  0  0  0
   -1.7673   -3.1464   -0.3769 H   0  0  0  0  0  0  0  0  0  0  0  0
   -4.8506   -0.3283    2.0772 H   0  0  0  0  0  0  0  0  0  0  0  0
   -1.4230    1.3519   -1.7082 H   0  0  0  0  0  0  0  0  0  0  0  0
   -3.0165    3.2031   -2.2211 H   0  0  0  0  0  0  0  0  0  0  0  0
   -5.1271    3.3679   -0.9272 H   0  0  0  0  0  0  0  0  0  0  0  0
  1 20  1  0  0  0  0
  2  8  1  0  0  0  0
  2 12  1  0  0  0  0
  2 34  1  0  0  0  0
  3  9  1  0  0  0  0
  3 35  1  0  0  0  0
  3 36  1  0  0  0  0
  4 12  2  0  0  0  0
  4 20  1  0  0  0  0
  5 17  1  0  0  0  0
  5 18  1  0  0  0  0
  5 40  1  0  0  0  0
  6 17  1  0  0  0  0
  6 23  2  0  0  0  0
  7  8  1  0  0  0  0
  7  9  1  0  0  0  0
  7 10  1  0  0  0  0
  7 11  1  0  0  0  0
  8 24  1  0  0  0  0
  8 25  1  0  0  0  0
  9 26  1  0  0  0  0
  9 27  1  0  0  0  0
 10 28  1  0  0  0  0
 10 29  1  0  0  0  0
 10 30  1  0  0  0  0
 11 31  1  0  0  0  0
 11 32  1  0  0  0  0
 11 33  1  0  0  0  0
 12 15  1  0  0  0  0
 13 14  1  0  0  0  0
 13 15  2  0  0  0  0
 13 19  1  0  0  0  0
 14 16  1  0  0  0  0
 14 18  2  0  0  0  0
 15 37  1  0  0  0  0
 16 17  2  0  0  0  0
 16 21  1  0  0  0  0
 18 38  1  0  0  0  0
 19 20  2  0  0  0  0
 19 39  1  0  0  0  0
 21 22  2  0  0  0  0
 21 41  1  0  0  0  0
 22 23  1  0  0  0  0
 22 42  1  0  0  0  0
 23 43  1  0  0  0  0
M  END
> <PUBCHEM_COMPOUND_CID>
49830295

> <PUBCHEM_CONFORMER_RMSD>
0.8

> <PUBCHEM_CONFORMER_DIVERSEORDER>
3
116
124
72
125
28
47
60
126
91
113
117
51
14
90
112
76
105
82
77
129
2
97
128
102
104
93
19
65
111
12
114
120
74
108
15
122
61
57
43
118
86
10
110
106
107
35
31
70
38
20
53
127
123
40
42
50
33
9
130
64
44
94
49
56
121
68
119
101
83
81
78
80
34
87
75
99
11
85
6
115
54
23
52
32
13
59
88
39
69
36
67
96
79
71
63
45
30
89
95
92
58
24
27
17
100
5
22
62
26
37
109
73
84
46
18
25
8
16
41
29
55
21
98
48
7
66
1
103
4

> <PUBCHEM_MMFF94_PARTIAL_CHARGES>
29
1 -0.18
12 0.41
13 0.05
14 -0.05
15 -0.15
17 0.11
18 -0.3
19 -0.15
2 -0.87
20 0.49
21 -0.15
22 -0.15
23 0.16
3 -0.99
34 0.4
35 0.36
36 0.36
37 0.15
38 0.15
39 0.15
4 -0.62
40 0.27
41 0.15
42 0.15
43 0.15
5 0.03
6 -0.57
8 0.37
9 0.27

> <PUBCHEM_EFFECTIVE_ROTOR_COUNT>
5

> <PUBCHEM_PHARMACOPHORE_FEATURES>
11
1 2 donor
1 3 cation
1 3 donor
1 5 cation
1 5 donor
1 6 acceptor
3 2 4 12 cation
3 7 10 11 hydrophobe
5 5 14 16 17 18 rings
6 4 12 13 15 19 20 rings
6 6 16 17 21 22 23 rings

> <PUBCHEM_HEAVY_ATOM_COUNT>
23

> <PUBCHEM_ATOM_DEF_STEREO_COUNT>
0

> <PUBCHEM_ATOM_UDEF_STEREO_COUNT>
0

> <PUBCHEM_BOND_DEF_STEREO_COUNT>
0

> <PUBCHEM_BOND_UDEF_STEREO_COUNT>
0

> <PUBCHEM_ISOTOPIC_ATOM_COUNT>
0

> <PUBCHEM_COMPONENT_COUNT>
1

> <PUBCHEM_CACTVS_TAUTO_COUNT>
13

> <PUBCHEM_CONFORMER_ID>
02F8599700000003

> <PUBCHEM_MMFF94_ENERGY>
60.3701

> <PUBCHEM_FEATURE_SELFOVERLAP>
55.933

> <PUBCHEM_SHAPE_FINGERPRINT>
10165383 225 18271542982066476547
10319926 262 17822572707559001426
105312 117 18341893034794374908
10670039 82 18189065338181784412
11595378 159 16008752368498284276
12173636 292 18267860760664768662
12403259 118 18114174263639217128
12403259 415 18410865330047598978
12422481 6 17749385927953920460
12549972 3 17389969776196176859
12596602 18 15864074316163053233
12769317 202 18272079457694045488
12788726 201 17976525436701821762
12892183 10 17676204697382711274
12978246 48 18261395580627724652
13134695 92 17620470212458475511
13544653 18 8358262553242572082
13590594 115 16973372366398978849
14251764 30 13829267568291071269
14341114 328 16950565514626955608
14468879 13 18261114050010819273
14508225 48 17263830876931629206
14932701 244 17056083545094237597
14950920 106 16878213273163781744
16988056 13 17689706468359916460
17980427 23 17676492778430385087
20645477 56 18270125746175433586
21033648 29 18341325673920636016
21120745 212 17472992073526538246
21302155 148 18187649158415314012
23559900 14 18124310510890808347
27216 239 18333446573521659313
3057174 1 18202566150832747438
312425 83 15051745174513180128
314173 85 10953731210120781282
3298306 158 18412543193560789876
3729539 64 17983607163916364614
5104073 3 18116440245962188385
621550 34 18337965510751888171
633830 44 17489320675913230664
7064713 232 18333448750796389060
7399639 24 18409740556076712195
7808743 9 18119819251300506796
9862522 239 18335131033519067316
9925002 15 17617103946009026031
9981440 41 18411127026937412467

> <PUBCHEM_SHAPE_MULTIPOLES>
450.29
10.61
4.5
1.4
5.1
4.93
0.09
-11.91
-1.4
0.45
1.99
0.29
-0.48
1.4

> <PUBCHEM_SHAPE_SELFOVERLAP>
964.634

> <PUBCHEM_SHAPE_VOLUME>
252.3

> <PUBCHEM_COORDINATE_TYPE>
2
5
10

$$$$
