49830743
  -OEChem-10062121543D

 36 37  0     1  0  0  0  0  0999 V2000
    0.6087   -3.6440   -0.0093 Cl  0  0  0  0  0  0  0  0  0  0  0  0
   -3.2463    0.6978   -0.3577 O   0  0  0  0  0  0  0  0  0  0  0  0
   -6.6382    1.2131    0.9927 N   0  0  0  0  0  0  0  0  0  0  0  0
   -1.7368   -2.6342   -0.3344 N   0  0  0  0  0  0  0  0  0  0  0  0
    6.1879    1.2412    0.3412 N   0  0  0  0  0  0  0  0  0  0  0  0
   -5.2998    1.5919    0.5426 C   0  0  1  0  0  0  0  0  0  0  0  0
   -4.5660    0.3476    0.0412 C   0  0  0  0  0  0  0  0  0  0  0  0
   -5.3948    2.6696   -0.5378 C   0  0  0  0  0  0  0  0  0  0  0  0
   -2.2935   -0.2825   -0.2652 C   0  0  0  0  0  0  0  0  0  0  0  0
   -0.0172   -0.9836    0.0698 C   0  0  0  0  0  0  0  0  0  0  0  0
   -0.9618    0.0330   -0.0189 C   0  0  0  0  0  0  0  0  0  0  0  0
   -2.6264   -1.6192   -0.4139 C   0  0  0  0  0  0  0  0  0  0  0  0
    1.3721   -0.6360    0.3279 C   0  0  0  0  0  0  0  0  0  0  0  0
   -0.4520   -2.2889   -0.0940 C   0  0  0  0  0  0  0  0  0  0  0  0
    2.1279    0.1804   -0.4434 C   0  0  0  0  0  0  0  0  0  0  0  0
    3.5295    0.5463   -0.1726 C   0  0  0  0  0  0  0  0  0  0  0  0
    4.3060   -0.2405    0.6707 C   0  0  0  0  0  0  0  0  0  0  0  0
    4.0806    1.6801   -0.7595 C   0  0  0  0  0  0  0  0  0  0  0  0
    5.6177    0.1466    0.8933 C   0  0  0  0  0  0  0  0  0  0  0  0
    5.4023    1.9813   -0.4730 C   0  0  0  0  0  0  0  0  0  0  0  0
   -4.7452    2.0156    1.3888 H   0  0  0  0  0  0  0  0  0  0  0  0
   -5.0924   -0.0885   -0.8173 H   0  0  0  0  0  0  0  0  0  0  0  0
   -4.5478   -0.3868    0.8584 H   0  0  0  0  0  0  0  0  0  0  0  0
   -5.9211    2.3009   -1.4253 H   0  0  0  0  0  0  0  0  0  0  0  0
   -4.3998    3.0039   -0.8498 H   0  0  0  0  0  0  0  0  0  0  0  0
   -5.9338    3.5486   -0.1668 H   0  0  0  0  0  0  0  0  0  0  0  0
   -6.5676    0.5440    1.7582 H   0  0  0  0  0  0  0  0  0  0  0  0
   -7.1180    2.0299    1.3688 H   0  0  0  0  0  0  0  0  0  0  0  0
   -0.6784    1.0757    0.1063 H   0  0  0  0  0  0  0  0  0  0  0  0
   -3.6357   -1.9513   -0.6324 H   0  0  0  0  0  0  0  0  0  0  0  0
    1.7772   -1.0909    1.2275 H   0  0  0  0  0  0  0  0  0  0  0  0
    1.6885    0.6312   -1.3311 H   0  0  0  0  0  0  0  0  0  0  0  0
    3.9450   -1.1461    1.1444 H   0  0  0  0  0  0  0  0  0  0  0  0
    3.5075    2.3203   -1.4223 H   0  0  0  0  0  0  0  0  0  0  0  0
    6.2670   -0.4354    1.5391 H   0  0  0  0  0  0  0  0  0  0  0  0
    5.8792    2.8548   -0.9053 H   0  0  0  0  0  0  0  0  0  0  0  0
  1 14  1  0  0  0  0
  2  7  1  0  0  0  0
  2  9  1  0  0  0  0
  3  6  1  0  0  0  0
  3 27  1  0  0  0  0
  3 28  1  0  0  0  0
  4 12  2  0  0  0  0
  4 14  1  0  0  0  0
  5 19  2  0  0  0  0
  5 20  1  0  0  0  0
  6  7  1  0  0  0  0
  6  8  1  0  0  0  0
  6 21  1  0  0  0  0
  7 22  1  0  0  0  0
  7 23  1  0  0  0  0
  8 24  1  0  0  0  0
  8 25  1  0  0  0  0
  8 26  1  0  0  0  0
  9 11  2  0  0  0  0
  9 12  1  0  0  0  0
 10 11  1  0  0  0  0
 10 13  1  0  0  0  0
 10 14  2  0  0  0  0
 11 29  1  0  0  0  0
 12 30  1  0  0  0  0
 13 15  2  3  0  0  0
 13 31  1  0  0  0  0
 15 16  1  0  0  0  0
 15 32  1  0  0  0  0
 16 17  2  0  0  0  0
 16 18  1  0  0  0  0
 17 19  1  0  0  0  0
 17 33  1  0  0  0  0
 18 20  2  0  0  0  0
 18 34  1  0  0  0  0
 19 35  1  0  0  0  0
 20 36  1  0  0  0  0
M  END
> <PUBCHEM_COMPOUND_CID>
49830743

> <PUBCHEM_CONFORMER_RMSD>
0.8

> <PUBCHEM_CONFORMER_DIVERSEORDER>
1
24
22
11
25
2
27
15
8
26
33
17
21
18
20
7
16
9
29
10
6
31
5
23
32
28
19
30
14
3
12
4
13

> <PUBCHEM_MMFF94_PARTIAL_CHARGES>
29
1 -0.18
10 0.03
11 -0.15
12 0.16
13 -0.18
14 0.49
15 -0.18
16 0.03
17 -0.15
18 -0.15
19 0.16
2 -0.36
20 0.16
27 0.36
28 0.36
29 0.15
3 -0.99
30 0.15
31 0.15
32 0.15
33 0.15
34 0.15
35 0.15
36 0.15
4 -0.62
5 -0.62
6 0.27
7 0.28
9 0.08

> <PUBCHEM_EFFECTIVE_ROTOR_COUNT>
5

> <PUBCHEM_PHARMACOPHORE_FEATURES>
7
1 2 acceptor
1 3 cation
1 3 donor
1 4 acceptor
1 5 acceptor
6 4 9 10 11 12 14 rings
6 5 16 17 18 19 20 rings

> <PUBCHEM_HEAVY_ATOM_COUNT>
20

> <PUBCHEM_ATOM_DEF_STEREO_COUNT>
0

> <PUBCHEM_ATOM_UDEF_STEREO_COUNT>
1

> <PUBCHEM_BOND_DEF_STEREO_COUNT>
0

> <PUBCHEM_BOND_UDEF_STEREO_COUNT>
1

> <PUBCHEM_ISOTOPIC_ATOM_COUNT>
0

> <PUBCHEM_COMPONENT_COUNT>
1

> <PUBCHEM_CACTVS_TAUTO_COUNT>
1

> <PUBCHEM_CONFORMER_ID>
02F85B5700000001

> <PUBCHEM_MMFF94_ENERGY>
55.5021

> <PUBCHEM_FEATURE_SELFOVERLAP>
35.522

> <PUBCHEM_SHAPE_FINGERPRINT>
10 15 18186810179793272593
10411042 1 17619065475101988759
10493431 412 18409732859325888901
117890 112 18343862238734783232
11823591 26 18340761577252527175
12107183 9 18263071151065768490
12236239 1 18260263075360945242
12293681 160 17775006777726138971
12390115 104 18270695237348326363
12403259 118 17822020817568353525
12422481 6 17385723547977996733
12516196 113 9079111155014401644
13073987 5 18263076785899174370
13167372 99 18335980883309996272
13540713 5 18269535192705480879
13785724 45 17759514479141257402
13955234 65 18119817911023063515
14123256 34 8862654737719426725
14790565 3 18410294718015238685
15188451 53 14129352814526064881
15778101 99 18411704317691409590
17134984 74 13901896804552662789
17834072 32 18410294752379959652
18222031 100 8718823176203230878
18785283 64 18191866725715269379
200 152 11527957767750076614
20281389 69 18408039610897472001
20554085 129 17845917568562832218
20621476 66 18411140259942712264
20645477 56 18412545435338442135
21033648 29 18271236240055860432
21236236 1 18339922723048452599
21421861 104 17895740817642931234
21452121 103 18263362482543874143
22224240 67 18333454231996850915
22950370 63 9223235165000601822
23402539 116 18272081742911695182
23559900 14 18273500070579512438
25147074 1 18268972255494380543
268830 7 17896307181847497484
2767999 5 18343861104536609905
2838139 119 18341041965223288629
2916195 48 18201433709542506097
293599 30 18341896285847331921
312425 54 15791734062264981425
3411729 13 18336548192781609315
3472631 163 18341054098474076164
351380 3 8502651502265291201
4214541 1 18264485251767587734
465052 167 7781507140154655768
5104073 3 18041551572654635976
5385378 56 18339928099682791227
59682541 35 18335712672030494793
59682541 52 16486701246940071044
6327066 14 18409161096068441197
633830 44 18412823573316079070
77188 2 17042042936464633671
7808743 9 18411134749409753985
7970288 3 9151169844375381453

> <PUBCHEM_SHAPE_MULTIPOLES>
392.65
15.21
3.15
0.82
1.57
2.21
0.06
-15.18
2.72
1.59
-0.45
-0.09
-0.15
-0.81

> <PUBCHEM_SHAPE_SELFOVERLAP>
816.533

> <PUBCHEM_SHAPE_VOLUME>
224.3

> <PUBCHEM_COORDINATE_TYPE>
2
5
10

$$$$
