24905252
  -OEChem-10052115143D

 37 39  0     0  0  0  0  0  0999 V2000
    4.1485    0.3454    2.0189 O   0  0  0  0  0  0  0  0  0  0  0  0
   -2.1556    1.0078    0.0055 N   0  0  0  0  0  0  0  0  0  0  0  0
   -0.8718    1.4026   -0.0833 N   0  0  0  0  0  0  0  0  0  0  0  0
   -3.4623   -1.0270    0.1255 N   0  0  0  0  0  0  0  0  0  0  0  0
   -2.0465   -3.0127    0.0714 N   0  0  0  0  0  0  0  0  0  0  0  0
    0.3327   -2.8968   -0.0810 N   0  0  0  0  0  0  0  0  0  0  0  0
    5.4373    0.3221   -0.4820 N   0  0  0  0  0  0  0  0  0  0  0  0
   -3.2036    1.9996    0.0544 C   0  0  0  0  0  0  0  0  0  0  0  0
   -2.3083   -0.3465    0.0397 C   0  0  0  0  0  0  0  0  0  0  0  0
   -1.0320   -0.8767   -0.0319 C   0  0  0  0  0  0  0  0  0  0  0  0
   -0.1927    0.2505   -0.1058 C   0  0  0  0  0  0  0  0  0  0  0  0
   -3.2396    2.8439   -1.2220 C   0  0  0  0  0  0  0  0  0  0  0  0
   -3.0791    2.8896    1.2934 C   0  0  0  0  0  0  0  0  0  0  0  0
    1.2455    0.2686   -0.1979 C   0  0  0  0  0  0  0  0  0  0  0  0
   -0.9213   -2.2630   -0.0138 C   0  0  0  0  0  0  0  0  0  0  0  0
    2.0187    0.2994    0.9627 C   0  0  0  0  0  0  0  0  0  0  0  0
    1.8643    0.2557   -1.4480 C   0  0  0  0  0  0  0  0  0  0  0  0
    3.4106    0.3170    0.8733 C   0  0  0  0  0  0  0  0  0  0  0  0
   -3.2302   -2.3574    0.1349 C   0  0  0  0  0  0  0  0  0  0  0  0
    3.2562    0.2736   -1.5373 C   0  0  0  0  0  0  0  0  0  0  0  0
    4.0293    0.3042   -0.3768 C   0  0  0  0  0  0  0  0  0  0  0  0
   -4.1578    1.4636    0.1250 H   0  0  0  0  0  0  0  0  0  0  0  0
   -2.3277    3.4398   -1.3396 H   0  0  0  0  0  0  0  0  0  0  0  0
   -4.0911    3.5323   -1.2060 H   0  0  0  0  0  0  0  0  0  0  0  0
   -3.3371    2.2068   -2.1080 H   0  0  0  0  0  0  0  0  0  0  0  0
   -2.1612    3.4874    1.2727 H   0  0  0  0  0  0  0  0  0  0  0  0
   -3.0618    2.2853    2.2072 H   0  0  0  0  0  0  0  0  0  0  0  0
   -3.9275    3.5789    1.3610 H   0  0  0  0  0  0  0  0  0  0  0  0
    1.5375    0.3089    1.9386 H   0  0  0  0  0  0  0  0  0  0  0  0
    1.2759    0.2312   -2.3622 H   0  0  0  0  0  0  0  0  0  0  0  0
   -4.1105   -2.9876    0.2023 H   0  0  0  0  0  0  0  0  0  0  0  0
    3.7258    0.2631   -2.5176 H   0  0  0  0  0  0  0  0  0  0  0  0
    1.1881   -2.3647   -0.1444 H   0  0  0  0  0  0  0  0  0  0  0  0
    0.3682   -3.9072   -0.0644 H   0  0  0  0  0  0  0  0  0  0  0  0
    5.8786    0.3120   -1.3918 H   0  0  0  0  0  0  0  0  0  0  0  0
    6.0037    0.3437    0.3557 H   0  0  0  0  0  0  0  0  0  0  0  0
    3.5483    0.3499    2.7842 H   0  0  0  0  0  0  0  0  0  0  0  0
  1 18  1  0  0  0  0
  1 37  1  0  0  0  0
  2  3  1  0  0  0  0
  2  8  1  0  0  0  0
  2  9  1  0  0  0  0
  3 11  2  0  0  0  0
  4  9  2  0  0  0  0
  4 19  1  0  0  0  0
  5 15  1  0  0  0  0
  5 19  2  0  0  0  0
  6 15  1  0  0  0  0
  6 33  1  0  0  0  0
  6 34  1  0  0  0  0
  7 21  1  0  0  0  0
  7 35  1  0  0  0  0
  7 36  1  0  0  0  0
  8 12  1  0  0  0  0
  8 13  1  0  0  0  0
  8 22  1  0  0  0  0
  9 10  1  0  0  0  0
 10 11  1  0  0  0  0
 10 15  2  0  0  0  0
 11 14  1  0  0  0  0
 12 23  1  0  0  0  0
 12 24  1  0  0  0  0
 12 25  1  0  0  0  0
 13 26  1  0  0  0  0
 13 27  1  0  0  0  0
 13 28  1  0  0  0  0
 14 16  2  0  0  0  0
 14 17  1  0  0  0  0
 16 18  1  0  0  0  0
 16 29  1  0  0  0  0
 17 20  2  0  0  0  0
 17 30  1  0  0  0  0
 18 21  2  0  0  0  0
 19 31  1  0  0  0  0
 20 21  1  0  0  0  0
 20 32  1  0  0  0  0
M  END
> <PUBCHEM_COMPOUND_CID>
24905252

> <PUBCHEM_CONFORMER_RMSD>
0.6

> <PUBCHEM_CONFORMER_DIVERSEORDER>
1
4
5
3
6
2

> <PUBCHEM_MMFF94_PARTIAL_CHARGES>
27
1 -0.53
11 0.23
14 0.05
15 0.41
16 -0.15
17 -0.15
18 0.08
19 0.47
2 0.31
20 -0.15
21 0.1
29 0.15
3 -0.71
30 0.15
31 0.15
32 0.15
33 0.4
34 0.4
35 0.4
36 0.4
37 0.45
4 -0.57
5 -0.62
6 -0.9
7 -0.9
8 0.26
9 0.11

> <PUBCHEM_EFFECTIVE_ROTOR_COUNT>
2

> <PUBCHEM_PHARMACOPHORE_FEATURES>
12
1 1 donor
1 3 acceptor
1 6 cation
1 6 donor
1 7 cation
1 7 donor
3 2 4 9 cation
3 4 5 19 cation
3 8 12 13 hydrophobe
5 2 3 9 10 11 rings
6 14 16 17 18 20 21 rings
6 4 5 9 10 15 19 rings

> <PUBCHEM_HEAVY_ATOM_COUNT>
21

> <PUBCHEM_ATOM_DEF_STEREO_COUNT>
0

> <PUBCHEM_ATOM_UDEF_STEREO_COUNT>
0

> <PUBCHEM_BOND_DEF_STEREO_COUNT>
0

> <PUBCHEM_BOND_UDEF_STEREO_COUNT>
0

> <PUBCHEM_ISOTOPIC_ATOM_COUNT>
0

> <PUBCHEM_COMPONENT_COUNT>
1

> <PUBCHEM_CACTVS_TAUTO_COUNT>
43

> <PUBCHEM_CONFORMER_ID>
017C062400000001

> <PUBCHEM_MMFF94_ENERGY>
60.5219

> <PUBCHEM_FEATURE_SELFOVERLAP>
61.179

> <PUBCHEM_SHAPE_FINGERPRINT>
10319926 262 18270099298315393360
10646746 165 18343019986910286528
11582403 64 17197650950159740128
11725454 13 17128414741666022200
12236239 1 17676486185481589670
12500047 106 18412261710205050348
12553582 1 18120942964573227167
12788726 201 18191320470383493507
13140716 1 18122634013873082163
13583140 156 17988912380386542674
13878862 14 16967736261749760217
14178342 30 18409163294811770738
15042514 8 18265341792579623731
16752209 62 18336540603241977247
16945 1 18410296955977789695
1741750 31 18341050705539413857
18186145 218 17988651752722254952
19049666 15 17916878932253897726
200 152 16443336628678563142
20510252 161 18343305906956622273
20645477 56 18411989035326600949
21033648 29 17418084434768628504
21065201 7 18412266142748638118
22112679 90 17967253117647070300
22149856 69 17830755166827562257
22182313 1 18265348218071705599
22907989 373 18261670475924859525
2334 1 18337957766830667375
23402539 116 18341327898692310551
23419403 2 17201056344372393809
23493267 7 18272091569807554312
23557571 272 18201445791486125588
23559900 14 18200319819271370238
23598291 2 17676499388284904748
23845131 108 17980783553858345857
2748010 2 18193290589584309959
283562 15 18411418449353850699
3091708 16 9055885076090482147
350125 39 18194132815464857955
469060 322 18336846250996231041
5104073 3 18410009923582209792
5265222 85 18198639894643597030
559249 180 18335137541181017226
573450 72 18260541234617589568
59755656 520 18058177128911770761
6049 1 17988928928568668752
633830 44 13901637414967362720
7615 1 17894630400397033492
77492 1 17676205805673975764
81228 2 18338526355944045787
84936 182 17623566450166198817
90525 40 18187367631471058607
9709674 26 18272100391691843430
9862522 239 17823689781334599741

> <PUBCHEM_SHAPE_MULTIPOLES>
396.41
8.2
3.13
1.24
7.6
1.03
-0.12
-3.11
-0.42
-5.19
-0.08
1.02
-0.62
0.1

> <PUBCHEM_SHAPE_SELFOVERLAP>
871.188

> <PUBCHEM_SHAPE_VOLUME>
213.7

> <PUBCHEM_COORDINATE_TYPE>
2
5
10

$$$$
