49830719
  -OEChem-10052115193D

 43 46  0     0  0  0  0  0  0999 V2000
   -3.7238   -1.7288   -1.7167 O   0  0  0  0  0  0  0  0  0  0  0  0
   -2.5270    2.1505    2.0144 O   0  0  0  0  0  0  0  0  0  0  0  0
    1.9456   -1.1406    0.2512 N   0  0  0  0  0  0  0  0  0  0  0  0
   -1.4561   -2.0174   -0.0937 N   0  0  0  0  0  0  0  0  0  0  0  0
    0.6279   -0.9843   -0.0279 N   0  0  0  0  0  0  0  0  0  0  0  0
    4.0800   -0.7060    0.5012 N   0  0  0  0  0  0  0  0  0  0  0  0
    3.8649   -2.0238    0.8498 N   0  0  0  0  0  0  0  0  0  0  0  0
    2.9231   -0.1941    0.1462 C   0  0  0  0  0  0  0  0  0  0  0  0
    2.5820   -2.2746    0.6966 C   0  0  0  0  0  0  0  0  0  0  0  0
   -0.1036   -2.0593    0.1581 C   0  0  0  0  0  0  0  0  0  0  0  0
   -2.2890   -0.9093    0.0233 C   0  0  0  0  0  0  0  0  0  0  0  0
    2.6911    1.1607   -0.2926 C   0  0  0  0  0  0  0  0  0  0  0  0
    1.7927   -3.4225    0.8938 C   0  0  0  0  0  0  0  0  0  0  0  0
    0.4801   -3.3595    0.6432 C   0  0  0  0  0  0  0  0  0  0  0  0
   -3.4145   -0.7780   -0.7903 C   0  0  0  0  0  0  0  0  0  0  0  0
   -1.9911    0.0748    0.9657 C   0  0  0  0  0  0  0  0  0  0  0  0
   -2.8184    1.1904    1.0946 C   0  0  0  0  0  0  0  0  0  0  0  0
    3.3415    1.6476   -1.4263 C   0  0  0  0  0  0  0  0  0  0  0  0
    1.8164    1.9834    0.4169 C   0  0  0  0  0  0  0  0  0  0  0  0
   -4.2419    0.3376   -0.6614 C   0  0  0  0  0  0  0  0  0  0  0  0
   -3.9439    1.3217    0.2810 C   0  0  0  0  0  0  0  0  0  0  0  0
    3.1173    2.9575   -1.8506 C   0  0  0  0  0  0  0  0  0  0  0  0
    1.5920    3.2931   -0.0072 C   0  0  0  0  0  0  0  0  0  0  0  0
    2.2426    3.7802   -1.1410 C   0  0  0  0  0  0  0  0  0  0  0  0
   -3.1733   -1.5638   -3.0217 C   0  0  0  0  0  0  0  0  0  0  0  0
   -3.4149    3.2646    2.0931 C   0  0  0  0  0  0  0  0  0  0  0  0
   -1.9405   -2.8864   -0.3011 H   0  0  0  0  0  0  0  0  0  0  0  0
    2.2508   -4.3401    1.2446 H   0  0  0  0  0  0  0  0  0  0  0  0
   -0.1748   -4.2117    0.7784 H   0  0  0  0  0  0  0  0  0  0  0  0
   -1.1373   -0.0142    1.6327 H   0  0  0  0  0  0  0  0  0  0  0  0
    4.0255    1.0190   -1.9915 H   0  0  0  0  0  0  0  0  0  0  0  0
    1.3039    1.6249    1.3066 H   0  0  0  0  0  0  0  0  0  0  0  0
   -5.1207    0.4453   -1.2917 H   0  0  0  0  0  0  0  0  0  0  0  0
   -4.6285    2.1616    0.3283 H   0  0  0  0  0  0  0  0  0  0  0  0
    3.6234    3.3366   -2.7336 H   0  0  0  0  0  0  0  0  0  0  0  0
    0.9112    3.9339    0.5456 H   0  0  0  0  0  0  0  0  0  0  0  0
    2.0679    4.8000   -1.4712 H   0  0  0  0  0  0  0  0  0  0  0  0
   -3.5401   -0.6387   -3.4777 H   0  0  0  0  0  0  0  0  0  0  0  0
   -2.0794   -1.5550   -2.9834 H   0  0  0  0  0  0  0  0  0  0  0  0
   -3.4942   -2.4081   -3.6379 H   0  0  0  0  0  0  0  0  0  0  0  0
   -3.4222    3.8398    1.1611 H   0  0  0  0  0  0  0  0  0  0  0  0
   -4.4206    2.9569    2.3991 H   0  0  0  0  0  0  0  0  0  0  0  0
   -3.0319    3.9284    2.8752 H   0  0  0  0  0  0  0  0  0  0  0  0
  1 15  1  0  0  0  0
  1 25  1  0  0  0  0
  2 17  1  0  0  0  0
  2 26  1  0  0  0  0
  3  5  1  0  0  0  0
  3  8  1  0  0  0  0
  3  9  1  0  0  0  0
  4 10  1  0  0  0  0
  4 11  1  0  0  0  0
  4 27  1  0  0  0  0
  5 10  2  0  0  0  0
  6  7  1  0  0  0  0
  6  8  2  0  0  0  0
  7  9  2  0  0  0  0
  8 12  1  0  0  0  0
  9 13  1  0  0  0  0
 10 14  1  0  0  0  0
 11 15  2  0  0  0  0
 11 16  1  0  0  0  0
 12 18  2  0  0  0  0
 12 19  1  0  0  0  0
 13 14  2  0  0  0  0
 13 28  1  0  0  0  0
 14 29  1  0  0  0  0
 15 20  1  0  0  0  0
 16 17  2  0  0  0  0
 16 30  1  0  0  0  0
 17 21  1  0  0  0  0
 18 22  1  0  0  0  0
 18 31  1  0  0  0  0
 19 23  2  0  0  0  0
 19 32  1  0  0  0  0
 20 21  2  0  0  0  0
 20 33  1  0  0  0  0
 21 34  1  0  0  0  0
 22 24  2  0  0  0  0
 22 35  1  0  0  0  0
 23 24  1  0  0  0  0
 23 36  1  0  0  0  0
 24 37  1  0  0  0  0
 25 38  1  0  0  0  0
 25 39  1  0  0  0  0
 25 40  1  0  0  0  0
 26 41  1  0  0  0  0
 26 42  1  0  0  0  0
 26 43  1  0  0  0  0
M  END
> <PUBCHEM_COMPOUND_CID>
49830719

> <PUBCHEM_CONFORMER_RMSD>
0.8

> <PUBCHEM_CONFORMER_DIVERSEORDER>
1
22
5
52
39
28
24
19
12
44
50
58
45
21
4
49
37
51
53
38
17
15
29
20
33
57
10
25
18
9
55
16
60
2
59
14
35
26
11
3
56
34
6
54
43
7
47
36
23
42
13
8
30
41
27
31
32
46
40
48

> <PUBCHEM_MMFF94_PARTIAL_CHARGES>
37
1 -0.36
10 0.49
11 0.1
12 0.05
13 -0.11
14 -0.14
15 0.08
16 -0.15
17 0.08
18 -0.15
19 -0.15
2 -0.36
20 -0.15
21 -0.15
22 -0.15
23 -0.15
24 -0.15
25 0.28
26 0.28
27 0.4
28 0.15
29 0.15
3 0.51
30 0.15
31 0.15
32 0.15
33 0.15
34 0.15
35 0.15
36 0.15
37 0.15
4 -0.55
5 -0.65
6 -0.34
7 -0.34
8 0.13
9 0.14

> <PUBCHEM_EFFECTIVE_ROTOR_COUNT>
5

> <PUBCHEM_PHARMACOPHORE_FEATURES>
10
1 1 acceptor
1 2 acceptor
1 4 donor
3 3 6 8 cation
3 3 7 9 cation
3 4 5 10 cation
5 3 6 7 8 9 rings
6 11 15 16 17 20 21 rings
6 12 18 19 22 23 24 rings
6 3 5 9 10 13 14 rings

> <PUBCHEM_HEAVY_ATOM_COUNT>
26

> <PUBCHEM_ATOM_DEF_STEREO_COUNT>
0

> <PUBCHEM_ATOM_UDEF_STEREO_COUNT>
0

> <PUBCHEM_BOND_DEF_STEREO_COUNT>
0

> <PUBCHEM_BOND_UDEF_STEREO_COUNT>
0

> <PUBCHEM_ISOTOPIC_ATOM_COUNT>
0

> <PUBCHEM_COMPONENT_COUNT>
1

> <PUBCHEM_CACTVS_TAUTO_COUNT>
2

> <PUBCHEM_CONFORMER_ID>
02F85B3F00000001

> <PUBCHEM_MMFF94_ENERGY>
99.7578

> <PUBCHEM_FEATURE_SELFOVERLAP>
53.361

> <PUBCHEM_SHAPE_FINGERPRINT>
11513181 2 16982930498336002893
11640471 11 18271253707529402323
12156800 1 16320940828004204414
12539773 59 18201438133849490365
12553582 1 18045794390141079898
12788726 201 17988371446530549777
13583140 156 17096070476604768387
13965767 371 17264408739074364387
14468879 13 17097192043305658559
14790565 3 18262817215482955300
14931854 50 18196937892522788877
151778 21 18187659045002345596
192875 21 18341317972511121178
19319366 153 18050824896336322903
20510252 161 17182511027432783050
20739085 24 17976832986340031570
21315764 21 17969759991310603149
2132832 1 18198595840135236991
21860390 5 18411696565539756886
21864079 5 18339940275962288073
22113638 7 18051696542589542585
22749437 52 18264764548510375832
238 59 18188766270475326392
238918 7 16034075993928720497
350125 39 18044666535993027706
4409770 3 14163988057608082655
474 4 18334858303164713379
5048184 11 18118412971063810708
5895379 119 18060428980017026716
7471813 234 18057298734642066286
9981440 41 17831570243200402616

> <PUBCHEM_SHAPE_MULTIPOLES>
498.42
8.23
4.96
1.88
2.89
1.13
0.95
2.41
1.44
-3.09
-0.76
1.9
0.59
-4.44

> <PUBCHEM_SHAPE_SELFOVERLAP>
1099.123

> <PUBCHEM_SHAPE_VOLUME>
269.2

> <PUBCHEM_COORDINATE_TYPE>
2
5
10

$$$$
