49830915
  -OEChem-10052120443D

 47 50  0     0  0  0  0  0  0999 V2000
   -2.6714   -3.1378    0.3647 O   0  0  0  0  0  0  0  0  0  0  0  0
    0.7035    5.8952   -0.3648 O   0  0  0  0  0  0  0  0  0  0  0  0
   -5.1598    0.0812    0.3127 O   0  0  0  0  0  0  0  0  0  0  0  0
   -1.0447    0.5970   -0.1242 N   0  0  0  0  0  0  0  0  0  0  0  0
   -4.9698   -2.0691   -0.5696 N   0  0  0  0  0  0  0  0  0  0  0  0
    6.2714   -1.0894   -0.1554 N   0  0  0  0  0  0  0  0  0  0  0  0
   -6.3343   -2.2527   -0.6727 N   0  0  0  0  0  0  0  0  0  0  0  0
   -0.1697   -0.5362    0.0041 C   0  0  0  0  0  0  0  0  0  0  0  0
   -0.7071   -1.8313    0.1734 C   0  0  0  0  0  0  0  0  0  0  0  0
   -0.5978    1.9582   -0.1713 C   0  0  0  0  0  0  0  0  0  0  0  0
    1.2308   -0.4227   -0.0738 C   0  0  0  0  0  0  0  0  0  0  0  0
   -2.4158    0.3513   -0.1579 C   0  0  0  0  0  0  0  0  0  0  0  0
   -3.0218   -0.8338   -0.0214 C   0  0  0  0  0  0  0  0  0  0  0  0
   -2.1772   -2.0310    0.1905 C   0  0  0  0  0  0  0  0  0  0  0  0
    2.0583   -1.5424    0.0541 C   0  0  0  0  0  0  0  0  0  0  0  0
    0.1236   -2.9529    0.3037 C   0  0  0  0  0  0  0  0  0  0  0  0
   -0.4596    2.7052    0.9987 C   0  0  0  0  0  0  0  0  0  0  0  0
    1.5061   -2.8034    0.2493 C   0  0  0  0  0  0  0  0  0  0  0  0
   -0.2988    2.5342   -1.4060 C   0  0  0  0  0  0  0  0  0  0  0  0
    3.4955   -1.3883   -0.0174 C   0  0  0  0  0  0  0  0  0  0  0  0
   -0.0227    4.0282    0.9337 C   0  0  0  0  0  0  0  0  0  0  0  0
   -0.7726    2.1135    2.3345 C   0  0  0  0  0  0  0  0  0  0  0  0
    0.1378    3.8574   -1.4710 C   0  0  0  0  0  0  0  0  0  0  0  0
   -4.4843   -0.8761   -0.0683 C   0  0  0  0  0  0  0  0  0  0  0  0
    0.2760    4.6044   -0.3010 C   0  0  0  0  0  0  0  0  0  0  0  0
    4.2854   -2.4223   -0.5080 C   0  0  0  0  0  0  0  0  0  0  0  0
    4.0919   -0.2051    0.4041 C   0  0  0  0  0  0  0  0  0  0  0  0
    5.6559   -2.2247   -0.5559 C   0  0  0  0  0  0  0  0  0  0  0  0
    5.4712   -0.1066    0.3153 C   0  0  0  0  0  0  0  0  0  0  0  0
    1.6596    0.5584   -0.2603 H   0  0  0  0  0  0  0  0  0  0  0  0
   -2.9957    1.2593   -0.3048 H   0  0  0  0  0  0  0  0  0  0  0  0
   -0.2894   -3.9480    0.4460 H   0  0  0  0  0  0  0  0  0  0  0  0
    2.1120   -3.6951    0.3836 H   0  0  0  0  0  0  0  0  0  0  0  0
   -0.4018    1.9621   -2.3246 H   0  0  0  0  0  0  0  0  0  0  0  0
    0.0864    4.6143    1.8431 H   0  0  0  0  0  0  0  0  0  0  0  0
   -1.8300    1.8374    2.3965 H   0  0  0  0  0  0  0  0  0  0  0  0
   -0.1536    1.2304    2.5226 H   0  0  0  0  0  0  0  0  0  0  0  0
   -0.5754    2.8208    3.1477 H   0  0  0  0  0  0  0  0  0  0  0  0
    0.3694    4.3004   -2.4357 H   0  0  0  0  0  0  0  0  0  0  0  0
    3.8840   -3.3587   -0.8797 H   0  0  0  0  0  0  0  0  0  0  0  0
    3.5407    0.6284    0.8256 H   0  0  0  0  0  0  0  0  0  0  0  0
   -4.3706   -2.8237   -0.8894 H   0  0  0  0  0  0  0  0  0  0  0  0
    6.3159   -2.9972   -0.9367 H   0  0  0  0  0  0  0  0  0  0  0  0
    5.9861    0.7922    0.6382 H   0  0  0  0  0  0  0  0  0  0  0  0
    0.7416    6.2599    0.5360 H   0  0  0  0  0  0  0  0  0  0  0  0
   -6.5311   -2.4639   -1.6501 H   0  0  0  0  0  0  0  0  0  0  0  0
   -6.5586   -3.0992   -0.1513 H   0  0  0  0  0  0  0  0  0  0  0  0
  1 14  2  0  0  0  0
  2 25  1  0  0  0  0
  2 45  1  0  0  0  0
  3 24  2  0  0  0  0
  4  8  1  0  0  0  0
  4 10  1  0  0  0  0
  4 12  1  0  0  0  0
  5  7  1  0  0  0  0
  5 24  1  0  0  0  0
  5 42  1  0  0  0  0
  6 28  2  0  0  0  0
  6 29  1  0  0  0  0
  7 46  1  0  0  0  0
  7 47  1  0  0  0  0
  8  9  2  0  0  0  0
  8 11  1  0  0  0  0
  9 14  1  0  0  0  0
  9 16  1  0  0  0  0
 10 17  2  0  0  0  0
 10 19  1  0  0  0  0
 11 15  2  0  0  0  0
 11 30  1  0  0  0  0
 12 13  2  0  0  0  0
 12 31  1  0  0  0  0
 13 14  1  0  0  0  0
 13 24  1  0  0  0  0
 15 18  1  0  0  0  0
 15 20  1  0  0  0  0
 16 18  2  0  0  0  0
 16 32  1  0  0  0  0
 17 21  1  0  0  0  0
 17 22  1  0  0  0  0
 18 33  1  0  0  0  0
 19 23  2  0  0  0  0
 19 34  1  0  0  0  0
 20 26  2  0  0  0  0
 20 27  1  0  0  0  0
 21 25  2  0  0  0  0
 21 35  1  0  0  0  0
 22 36  1  0  0  0  0
 22 37  1  0  0  0  0
 22 38  1  0  0  0  0
 23 25  1  0  0  0  0
 23 39  1  0  0  0  0
 26 28  1  0  0  0  0
 26 40  1  0  0  0  0
 27 29  2  0  0  0  0
 27 41  1  0  0  0  0
 28 43  1  0  0  0  0
 29 44  1  0  0  0  0
M  END
> <PUBCHEM_COMPOUND_CID>
49830915

> <PUBCHEM_CONFORMER_RMSD>
0.8

> <PUBCHEM_CONFORMER_DIVERSEORDER>
2
4
1
3

> <PUBCHEM_MMFF94_PARTIAL_CHARGES>
42
1 -0.57
10 0.1
11 -0.15
12 -0.05
13 0.03
14 0.47
16 -0.15
17 -0.14
18 -0.15
19 -0.15
2 -0.53
21 -0.15
22 0.14
23 -0.15
24 0.62
25 0.08
26 -0.15
27 -0.15
28 0.16
29 0.16
3 -0.57
30 0.15
31 0.15
32 0.15
33 0.15
34 0.15
35 0.15
39 0.15
4 -0.3
40 0.15
41 0.15
42 0.37
43 0.15
44 0.15
45 0.45
46 0.36
47 0.36
5 -0.42
6 -0.62
7 -0.73
8 0.1
9 0.09

> <PUBCHEM_EFFECTIVE_ROTOR_COUNT>
4

> <PUBCHEM_PHARMACOPHORE_FEATURES>
11
1 1 acceptor
1 2 donor
1 3 acceptor
1 4 cation
1 5 donor
1 6 acceptor
1 7 donor
6 10 17 19 21 23 25 rings
6 4 8 9 12 13 14 rings
6 6 20 26 27 28 29 rings
6 8 9 11 15 16 18 rings

> <PUBCHEM_HEAVY_ATOM_COUNT>
29

> <PUBCHEM_ATOM_DEF_STEREO_COUNT>
0

> <PUBCHEM_ATOM_UDEF_STEREO_COUNT>
0

> <PUBCHEM_BOND_DEF_STEREO_COUNT>
0

> <PUBCHEM_BOND_UDEF_STEREO_COUNT>
0

> <PUBCHEM_ISOTOPIC_ATOM_COUNT>
0

> <PUBCHEM_COMPONENT_COUNT>
1

> <PUBCHEM_CACTVS_TAUTO_COUNT>
12

> <PUBCHEM_CONFORMER_ID>
02F85C0300000002

> <PUBCHEM_MMFF94_ENERGY>
107.9799

> <PUBCHEM_FEATURE_SELFOVERLAP>
57.354

> <PUBCHEM_SHAPE_FINGERPRINT>
10006869 2 18048589323050707139
10050765 1 17977102685244845199
10411042 1 18410573985178273255
10670039 82 18265070059226394910
10930396 42 18121186970882353082
1100329 8 18337394962547587491
11045515 52 18335701615787966829
11049842 53 17178005198422780244
12166972 35 18341613780416359947
12403259 226 18270113514266908170
12516196 113 18411980277830457055
12788726 201 18115865209422539866
13140716 1 18336558174148364234
13540713 4 17753326775940527347
138480 1 15023302595445731316
14068700 675 18201999945704844337
14347332 77 18266737974873446542
14394314 77 18337957796673918473
14400156 266 18130805442609819365
14955137 171 18336842969235171107
15131766 46 15193275471171866754
15439362 3 18049154768411996949
15927050 60 17475800226376644710
15961568 22 18410857707419619660
16087824 20 18122064205353430125
167882 2 17976820105901486885
17980427 23 17918004879874762211
18336668 15 18113339721349433111
20238998 120 18411696586777215781
20510252 161 18267863891569209754
20600515 1 18342472429903220573
21049683 271 18188495790926156277
21641784 216 18339098007664804428
21927370 108 18265353770805218594
23558518 356 17829337886635593978
23559900 14 18266450096316405179
23845131 108 17256534019743600033
24204213 148 16190264447001914647
24771293 8 18271799189813979192
24771750 20 17830461939442294749
25019877 29 17132116870226115822
283562 15 18263926544741084842
3178227 256 18336280019872840523
3380486 145 18192164711068297785
350125 39 17834118541654686378
4197921 191 18259704490012070788
469060 322 18337680706753387480
6004065 56 18268141136040466351
7399639 24 18130496449856803438
9962374 69 18197773500872063879
9981440 41 17255115650038947616

> <PUBCHEM_SHAPE_MULTIPOLES>
559.27
10.28
6.31
1.09
6.13
10.08
0.28
-11.87
-1.46
-2.37
-0.68
-0.28
1.04
-0.22

> <PUBCHEM_SHAPE_SELFOVERLAP>
1246.015

> <PUBCHEM_SHAPE_VOLUME>
295.7

> <PUBCHEM_COORDINATE_TYPE>
2
5
10

$$$$
