24900161
  -OEChem-10062122023D

 34 35  0     1  0  0  0  0  0999 V2000
    4.3409    0.0724   -0.9877 O   0  0  0  0  0  0  0  0  0  0  0  0
    1.7344    0.6869   -2.1338 O   0  0  0  0  0  0  0  0  0  0  0  0
   -3.4150    2.1798   -0.0756 O   0  0  0  0  0  0  0  0  0  0  0  0
   -2.6082   -2.5114   -0.2309 O   0  0  0  0  0  0  0  0  0  0  0  0
   -0.0685   -2.9797    1.0241 O   0  0  0  0  0  0  0  0  0  0  0  0
    1.0698   -2.3305   -0.8331 O   0  0  0  0  0  0  0  0  0  0  0  0
    3.3610    1.0164    1.0112 C   0  0  0  0  0  0  0  0  0  0  0  0
    3.4743    1.0740   -0.5051 C   0  0  2  0  0  0  0  0  0  0  0  0
    1.9113    0.7175    1.2798 C   0  0  0  0  0  0  0  0  0  0  0  0
    1.1496    0.5946    0.1809 C   0  0  0  0  0  0  0  0  0  0  0  0
    2.0728    0.7798   -0.9624 C   0  0  0  0  0  0  0  0  0  0  0  0
   -0.2763    0.3052    0.0648 C   0  0  0  0  0  0  0  0  0  0  0  0
    1.4858    0.5725    2.7049 C   0  0  0  0  0  0  0  0  0  0  0  0
   -0.7511   -1.0031   -0.0290 C   0  0  0  0  0  0  0  0  0  0  0  0
   -1.1713    1.3749    0.0490 C   0  0  0  0  0  0  0  0  0  0  0  0
   -2.1210   -1.2416   -0.1385 C   0  0  0  0  0  0  0  0  0  0  0  0
   -2.5413    1.1363   -0.0604 C   0  0  0  0  0  0  0  0  0  0  0  0
   -3.0161   -0.1718   -0.1541 C   0  0  0  0  0  0  0  0  0  0  0  0
    0.1705   -2.1362   -0.0142 C   0  0  0  0  0  0  0  0  0  0  0  0
   -4.8017    1.8640   -0.1898 C   0  0  0  0  0  0  0  0  0  0  0  0
    3.6273    1.9843    1.4506 H   0  0  0  0  0  0  0  0  0  0  0  0
    4.0073    0.2477    1.4486 H   0  0  0  0  0  0  0  0  0  0  0  0
    3.7923    2.0588   -0.8602 H   0  0  0  0  0  0  0  0  0  0  0  0
    2.0403   -0.2402    3.1849 H   0  0  0  0  0  0  0  0  0  0  0  0
    0.4190    0.3485    2.7994 H   0  0  0  0  0  0  0  0  0  0  0  0
    1.6818    1.4987    3.2545 H   0  0  0  0  0  0  0  0  0  0  0  0
   -0.8125    2.3996    0.1213 H   0  0  0  0  0  0  0  0  0  0  0  0
    5.2044    0.1968   -0.5584 H   0  0  0  0  0  0  0  0  0  0  0  0
   -4.0705   -0.4121   -0.2407 H   0  0  0  0  0  0  0  0  0  0  0  0
   -3.5777   -2.4803   -0.2991 H   0  0  0  0  0  0  0  0  0  0  0  0
   -5.3499    2.8118   -0.1860 H   0  0  0  0  0  0  0  0  0  0  0  0
   -5.1559    1.2877    0.6718 H   0  0  0  0  0  0  0  0  0  0  0  0
   -5.0254    1.3702   -1.1415 H   0  0  0  0  0  0  0  0  0  0  0  0
    0.5541   -3.7378    1.0298 H   0  0  0  0  0  0  0  0  0  0  0  0
  1  8  1  0  0  0  0
  1 28  1  0  0  0  0
  2 11  2  0  0  0  0
  3 17  1  0  0  0  0
  3 20  1  0  0  0  0
  4 16  1  0  0  0  0
  4 30  1  0  0  0  0
  5 19  1  0  0  0  0
  5 34  1  0  0  0  0
  6 19  2  0  0  0  0
  7  8  1  0  0  0  0
  7  9  1  0  0  0  0
  7 21  1  0  0  0  0
  7 22  1  0  0  0  0
  8 11  1  0  0  0  0
  8 23  1  0  0  0  0
  9 10  2  0  0  0  0
  9 13  1  0  0  0  0
 10 11  1  0  0  0  0
 10 12  1  0  0  0  0
 12 14  2  0  0  0  0
 12 15  1  0  0  0  0
 13 24  1  0  0  0  0
 13 25  1  0  0  0  0
 13 26  1  0  0  0  0
 14 16  1  0  0  0  0
 14 19  1  0  0  0  0
 15 17  2  0  0  0  0
 15 27  1  0  0  0  0
 16 18  2  0  0  0  0
 17 18  1  0  0  0  0
 18 29  1  0  0  0  0
 20 31  1  0  0  0  0
 20 32  1  0  0  0  0
 20 33  1  0  0  0  0
M  END
> <PUBCHEM_COMPOUND_CID>
24900161

> <PUBCHEM_CONFORMER_RMSD>
0.6

> <PUBCHEM_CONFORMER_DIVERSEORDER>
2
5
9
7
6
1
10
4
3
8

> <PUBCHEM_MMFF94_PARTIAL_CHARGES>
25
1 -0.68
10 -0.01
11 0.49
12 0.03
13 0.14
14 0.09
15 -0.15
16 0.08
17 0.08
18 -0.15
19 0.63
2 -0.57
20 0.28
27 0.15
28 0.4
29 0.15
3 -0.36
30 0.45
34 0.5
4 -0.53
5 -0.65
6 -0.57
7 0.14
8 0.34
9 -0.28

> <PUBCHEM_EFFECTIVE_ROTOR_COUNT>
3.4

> <PUBCHEM_PHARMACOPHORE_FEATURES>
10
1 1 acceptor
1 1 donor
1 2 acceptor
1 3 acceptor
1 4 donor
1 5 acceptor
1 6 acceptor
3 5 6 19 anion
5 7 8 9 10 11 rings
6 12 14 15 16 17 18 rings

> <PUBCHEM_HEAVY_ATOM_COUNT>
20

> <PUBCHEM_ATOM_DEF_STEREO_COUNT>
1

> <PUBCHEM_ATOM_UDEF_STEREO_COUNT>
0

> <PUBCHEM_BOND_DEF_STEREO_COUNT>
0

> <PUBCHEM_BOND_UDEF_STEREO_COUNT>
0

> <PUBCHEM_ISOTOPIC_ATOM_COUNT>
0

> <PUBCHEM_COMPONENT_COUNT>
1

> <PUBCHEM_CACTVS_TAUTO_COUNT>
221

> <PUBCHEM_CONFORMER_ID>
017BF24100000002

> <PUBCHEM_MMFF94_ENERGY>
62.2535

> <PUBCHEM_FEATURE_SELFOVERLAP>
50.807

> <PUBCHEM_SHAPE_FINGERPRINT>
11582403 64 16336319989168301081
11725454 13 16842716592116440960
12035758 1 16601218483876265640
12236239 1 17748820852081195584
12592029 89 18188214178405075058
12644460 14 18044383716680582001
12716301 132 18269262611866516354
12788726 201 17609220404646137682
13140716 1 18265333907251432763
13294875 104 17915721133582620250
13464514 151 17844536512943410617
13538477 17 17679854088176162562
13965767 371 17968642818445262452
14817 1 11946794027664965818
16752209 62 18263914604853152235
16945 1 18117279378833312330
18186145 218 17989214767105486536
19049666 15 17989209278268904274
20510252 161 18198343055561143545
20645476 183 17968097572341169202
20691752 17 17604148121220682207
21756936 100 16662644157483386836
22149856 69 18048883988801554997
23175994 123 17059793203370076288
23402539 116 18342452660327506460
23419403 2 17042279915563398218
23493267 7 18040722480193196035
23526113 38 17561369465452889408
23559900 14 18273217491738021860
23598291 2 17459172075854040216
2748010 2 18200876287238251383
298252 57 18187658998142658288
3286 77 16772401835656639963
350125 39 17906455429032050013
633830 44 18130777958497076117
7364860 26 18055630620883881327
77492 1 17604418708565852984
81228 2 17979627163144900099
90525 40 18186519938054782127

> <PUBCHEM_SHAPE_MULTIPOLES>
376.37
6.59
2.57
1.48
2.1
1.98
0.57
-4.1
-1.08
1.89
0.12
-1.64
-0.29
0.24

> <PUBCHEM_SHAPE_SELFOVERLAP>
815.235

> <PUBCHEM_SHAPE_VOLUME>
208.5

> <PUBCHEM_COORDINATE_TYPE>
2
5
10

$$$$
