11856204
  -OEChem-10062121573D

 46 49  0     0  0  0  0  0  0999 V2000
   -9.7399   -0.3948    1.1272 Br  0  0  0  0  0  0  0  0  0  0  0  0
    6.0473   -1.6279   -0.3777 O   0  0  0  0  0  0  0  0  0  0  0  0
    7.5018    0.9156   -0.2131 O   0  0  0  0  0  0  0  0  0  0  0  0
   -3.0641    0.3774   -1.1628 O   0  0  0  0  0  0  0  0  0  0  0  0
    5.0574   -2.6029   -0.3813 N   0  0  0  0  0  0  0  0  0  0  0  0
   -2.2336    0.1018    1.0084 N   0  0  0  0  0  0  0  0  0  0  0  0
    2.6936   -2.5303   -0.0445 N   0  0  0  0  0  0  0  0  0  0  0  0
   -4.5102    0.0114    0.6448 N   0  0  0  0  0  0  0  0  0  0  0  0
    3.3358    0.5647    0.3097 C   0  0  0  0  0  0  0  0  0  0  0  0
    4.1198   -0.5666    0.0397 C   0  0  0  0  0  0  0  0  0  0  0  0
    1.9093    0.4453    0.4885 C   0  0  0  0  0  0  0  0  0  0  0  0
    5.4853   -0.4140   -0.1262 C   0  0  0  0  0  0  0  0  0  0  0  0
    3.9769    1.8083    0.3996 C   0  0  0  0  0  0  0  0  0  0  0  0
    6.1542    0.8037   -0.0438 C   0  0  0  0  0  0  0  0  0  0  0  0
    3.9188   -1.9500   -0.1304 C   0  0  0  0  0  0  0  0  0  0  0  0
    5.3601    1.9231    0.2259 C   0  0  0  0  0  0  0  0  0  0  0  0
    1.0527    0.5568   -0.6095 C   0  0  0  0  0  0  0  0  0  0  0  0
    1.3778    0.2186    1.7605 C   0  0  0  0  0  0  0  0  0  0  0  0
   -0.8538    0.2161    0.8350 C   0  0  0  0  0  0  0  0  0  0  0  0
   -0.3267    0.4425   -0.4364 C   0  0  0  0  0  0  0  0  0  0  0  0
   -0.0015    0.1042    1.9335 C   0  0  0  0  0  0  0  0  0  0  0  0
   -3.2586    0.1840    0.0327 C   0  0  0  0  0  0  0  0  0  0  0  0
   -5.7547    0.0279    0.0107 C   0  0  0  0  0  0  0  0  0  0  0  0
    7.9708    1.1475   -1.5396 C   0  0  0  0  0  0  0  0  0  0  0  0
   -6.9188   -0.1587    0.7547 C   0  0  0  0  0  0  0  0  0  0  0  0
   -5.8298    0.2308   -1.3665 C   0  0  0  0  0  0  0  0  0  0  0  0
   -8.1607   -0.1424    0.1201 C   0  0  0  0  0  0  0  0  0  0  0  0
   -7.0717    0.2471   -2.0012 C   0  0  0  0  0  0  0  0  0  0  0  0
   -8.2372    0.0606   -1.2579 C   0  0  0  0  0  0  0  0  0  0  0  0
    3.4010    2.7082    0.6077 H   0  0  0  0  0  0  0  0  0  0  0  0
    5.8223    2.9048    0.3034 H   0  0  0  0  0  0  0  0  0  0  0  0
    1.4480    0.7328   -1.6075 H   0  0  0  0  0  0  0  0  0  0  0  0
    2.0278    0.1283    2.6279 H   0  0  0  0  0  0  0  0  0  0  0  0
   -0.9178    0.5407   -1.3356 H   0  0  0  0  0  0  0  0  0  0  0  0
   -0.3985   -0.0724    2.9300 H   0  0  0  0  0  0  0  0  0  0  0  0
   -2.5415   -0.0625    1.9636 H   0  0  0  0  0  0  0  0  0  0  0  0
    2.5769   -3.5311   -0.1714 H   0  0  0  0  0  0  0  0  0  0  0  0
    1.8329   -2.0317    0.1462 H   0  0  0  0  0  0  0  0  0  0  0  0
   -4.5184   -0.1409    1.6499 H   0  0  0  0  0  0  0  0  0  0  0  0
    9.0621    1.2092   -1.5121 H   0  0  0  0  0  0  0  0  0  0  0  0
    7.5756    2.0923   -1.9261 H   0  0  0  0  0  0  0  0  0  0  0  0
    7.6828    0.3217   -2.1979 H   0  0  0  0  0  0  0  0  0  0  0  0
   -6.8560   -0.3168    1.8292 H   0  0  0  0  0  0  0  0  0  0  0  0
   -4.9872    0.3835   -2.0232 H   0  0  0  0  0  0  0  0  0  0  0  0
   -7.1330    0.4050   -3.0742 H   0  0  0  0  0  0  0  0  0  0  0  0
   -9.1970    0.0763   -1.7679 H   0  0  0  0  0  0  0  0  0  0  0  0
  1 27  1  0  0  0  0
  2  5  1  0  0  0  0
  2 12  1  0  0  0  0
  3 14  1  0  0  0  0
  3 24  1  0  0  0  0
  4 22  2  0  0  0  0
  5 15  2  0  0  0  0
  6 19  1  0  0  0  0
  6 22  1  0  0  0  0
  6 36  1  0  0  0  0
  7 15  1  0  0  0  0
  7 37  1  0  0  0  0
  7 38  1  0  0  0  0
  8 22  1  0  0  0  0
  8 23  1  0  0  0  0
  8 39  1  0  0  0  0
  9 10  2  0  0  0  0
  9 11  1  0  0  0  0
  9 13  1  0  0  0  0
 10 12  1  0  0  0  0
 10 15  1  0  0  0  0
 11 17  2  0  0  0  0
 11 18  1  0  0  0  0
 12 14  2  0  0  0  0
 13 16  2  0  0  0  0
 13 30  1  0  0  0  0
 14 16  1  0  0  0  0
 16 31  1  0  0  0  0
 17 20  1  0  0  0  0
 17 32  1  0  0  0  0
 18 21  2  0  0  0  0
 18 33  1  0  0  0  0
 19 20  2  0  0  0  0
 19 21  1  0  0  0  0
 20 34  1  0  0  0  0
 21 35  1  0  0  0  0
 23 25  2  0  0  0  0
 23 26  1  0  0  0  0
 24 40  1  0  0  0  0
 24 41  1  0  0  0  0
 24 42  1  0  0  0  0
 25 27  1  0  0  0  0
 25 43  1  0  0  0  0
 26 28  2  0  0  0  0
 26 44  1  0  0  0  0
 27 29  2  0  0  0  0
 28 29  1  0  0  0  0
 28 45  1  0  0  0  0
 29 46  1  0  0  0  0
M  END
> <PUBCHEM_COMPOUND_CID>
11856204

> <PUBCHEM_CONFORMER_RMSD>
0.8

> <PUBCHEM_CONFORMER_DIVERSEORDER>
1
12
13
11
7
17
15
19
5
4
18
10
14
3
9
16
8
6
2

> <PUBCHEM_MMFF94_PARTIAL_CHARGES>
40
1 -0.11
12 0.14
13 -0.15
14 0.08
15 0.37
16 -0.15
17 -0.15
18 -0.15
19 0.12
2 -0.02
20 -0.15
21 -0.15
22 0.69
23 0.12
24 0.28
25 -0.15
26 -0.15
27 0.11
28 -0.15
29 -0.15
3 -0.36
30 0.15
31 0.15
32 0.15
33 0.15
34 0.15
35 0.15
36 0.37
37 0.4
38 0.4
39 0.37
4 -0.57
43 0.15
44 0.15
45 0.15
46 0.15
5 -0.41
6 -0.55
7 -0.88
8 -0.55

> <PUBCHEM_EFFECTIVE_ROTOR_COUNT>
6

> <PUBCHEM_PHARMACOPHORE_FEATURES>
11
1 1 hydrophobe
1 3 acceptor
1 4 acceptor
1 6 donor
1 7 donor
1 8 donor
3 5 7 15 cation
5 2 5 10 12 15 rings
6 11 17 18 19 20 21 rings
6 23 25 26 27 28 29 rings
6 9 10 12 13 14 16 rings

> <PUBCHEM_HEAVY_ATOM_COUNT>
29

> <PUBCHEM_ATOM_DEF_STEREO_COUNT>
0

> <PUBCHEM_ATOM_UDEF_STEREO_COUNT>
0

> <PUBCHEM_BOND_DEF_STEREO_COUNT>
0

> <PUBCHEM_BOND_UDEF_STEREO_COUNT>
0

> <PUBCHEM_ISOTOPIC_ATOM_COUNT>
0

> <PUBCHEM_COMPONENT_COUNT>
1

> <PUBCHEM_CACTVS_TAUTO_COUNT>
12

> <PUBCHEM_CONFORMER_ID>
00B4E94C00000001

> <PUBCHEM_MMFF94_ENERGY>
97.1232

> <PUBCHEM_FEATURE_SELFOVERLAP>
55.969

> <PUBCHEM_SHAPE_FINGERPRINT>
10299344 5 17775847917676006657
11135609 127 17677056875356956516
11181472 205 17845946117616805737
11315181 36 17530681010244611669
11719270 70 14996275907997563977
11963148 33 15913322485758600285
12082328 90 18411700972919604129
12236239 1 17561087978050031016
12741549 16 18114172039817602244
13533116 47 18130785633856406490
14068700 675 16200433594108233369
14118638 360 18411981321449345008
14251764 18 17632576050607636679
14251764 46 18412828001189594176
14294032 229 14924774585296824279
14512766 119 16806995547596819301
150020 25 18113058224850795859
15064986 266 18339372868355014297
15119646 104 17560803199906132495
15183329 4 18272082791079069323
15198563 99 18115584838627672797
15328684 2 16916515731422627115
15352257 5 18341610443538344863
15419008 47 17894341190601610837
15510794 2 18040716970446747251
1577012 14 18130794417138516609
15849732 13 18040715883571958695
19841028 212 16271941363264546046
20157964 124 18411136952796594024
20721686 124 17822007606571289626
21150785 3 18260547831645223073
21267235 1 15410898474166484857
21360443 126 18041002881571221890
21792934 111 10663822953582218283
22956985 138 15982597096045087478
23081809 10 17775568633111706793
23516275 137 17702406008303381767
23522609 53 17345777281624851321
23559900 14 18339920523386718769
249057 3 18341049717517698148
255183 451 17558280826218066430
3004659 81 16200147729300321129
335507 130 17967816089639609759
34797466 226 18186801396078736725
3633792 109 18411136901156695009
4073 2 18263645219861408939
4098825 35 18341048511238698833
45377200 153 18337389474645715171
504579 68 18130793373303162460
5219985 9 17346878949325936721
59755656 215 17530962454354548595

> <PUBCHEM_SHAPE_MULTIPOLES>
565.22
28.83
1.59
1.44
40.87
0.9
-0.01
-1.44
-6.05
-4.21
-0.27
1.66
-0.16
1.1

> <PUBCHEM_SHAPE_SELFOVERLAP>
1235.597

> <PUBCHEM_SHAPE_VOLUME>
314.1

> <PUBCHEM_COORDINATE_TYPE>
2
5
10

$$$$
