136027080
  -OEChem-10052120443D

 39 42  0     0  0  0  0  0  0999 V2000
   -6.2550    2.2793    0.5684 O   0  0  0  0  0  0  0  0  0  0  0  0
   -2.3981   -0.9961   -1.9368 N   0  0  0  0  0  0  0  0  0  0  0  0
   -5.0394    0.9904   -0.9093 N   0  0  0  0  0  0  0  0  0  0  0  0
   -3.5686   -0.4048   -2.2574 N   0  0  0  0  0  0  0  0  0  0  0  0
    7.4629    2.3378   -0.3624 N   0  0  0  0  0  0  0  0  0  0  0  0
   -2.9600    0.0266   -0.1082 C   0  0  0  0  0  0  0  0  0  0  0  0
   -1.9865   -0.7669   -0.6515 C   0  0  0  0  0  0  0  0  0  0  0  0
   -0.7567   -1.3239   -0.1452 C   0  0  0  0  0  0  0  0  0  0  0  0
   -3.9084    0.2222   -1.1285 C   0  0  0  0  0  0  0  0  0  0  0  0
   -3.1395    0.6126    1.1717 C   0  0  0  0  0  0  0  0  0  0  0  0
    0.4355   -0.6102   -0.2672 C   0  0  0  0  0  0  0  0  0  0  0  0
    1.6246   -1.1500    0.2229 C   0  0  0  0  0  0  0  0  0  0  0  0
   -4.2345    1.3625    1.4005 C   0  0  0  0  0  0  0  0  0  0  0  0
   -0.7597   -2.5772    0.4670 C   0  0  0  0  0  0  0  0  0  0  0  0
   -2.0999    0.3720    2.2204 C   0  0  0  0  0  0  0  0  0  0  0  0
   -5.2670    1.5882    0.3244 C   0  0  0  0  0  0  0  0  0  0  0  0
    2.8616   -0.4102    0.0963 C   0  0  0  0  0  0  0  0  0  0  0  0
    1.6217   -2.4034    0.8350 C   0  0  0  0  0  0  0  0  0  0  0  0
    0.4295   -3.1170    0.9570 C   0  0  0  0  0  0  0  0  0  0  0  0
    4.0725   -1.0926   -0.0225 C   0  0  0  0  0  0  0  0  0  0  0  0
    2.8440    0.9845    0.0960 C   0  0  0  0  0  0  0  0  0  0  0  0
    5.2656   -0.3801   -0.1416 C   0  0  0  0  0  0  0  0  0  0  0  0
    4.0372    1.6969   -0.0230 C   0  0  0  0  0  0  0  0  0  0  0  0
    5.2480    1.0147   -0.1421 C   0  0  0  0  0  0  0  0  0  0  0  0
    6.4702    1.7448   -0.2637 C   0  0  0  0  0  0  0  0  0  0  0  0
   -1.9324   -1.5442   -2.6496 H   0  0  0  0  0  0  0  0  0  0  0  0
    0.4114    0.3508   -0.7763 H   0  0  0  0  0  0  0  0  0  0  0  0
   -5.6967    1.1047   -1.6738 H   0  0  0  0  0  0  0  0  0  0  0  0
   -4.4202    1.8329    2.3603 H   0  0  0  0  0  0  0  0  0  0  0  0
   -1.6810   -3.1453    0.5722 H   0  0  0  0  0  0  0  0  0  0  0  0
   -2.3561    0.8780    3.1586 H   0  0  0  0  0  0  0  0  0  0  0  0
   -2.0103   -0.6936    2.4533 H   0  0  0  0  0  0  0  0  0  0  0  0
   -1.1254    0.7620    1.9101 H   0  0  0  0  0  0  0  0  0  0  0  0
    2.5166   -2.8503    1.2591 H   0  0  0  0  0  0  0  0  0  0  0  0
    0.4252   -4.0898    1.4401 H   0  0  0  0  0  0  0  0  0  0  0  0
    4.1325   -2.1769   -0.0578 H   0  0  0  0  0  0  0  0  0  0  0  0
    1.9297    1.5586    0.2184 H   0  0  0  0  0  0  0  0  0  0  0  0
    6.2012   -0.9256   -0.2400 H   0  0  0  0  0  0  0  0  0  0  0  0
    4.0086    2.7840   -0.0146 H   0  0  0  0  0  0  0  0  0  0  0  0
  1 16  2  0  0  0  0
  2  4  1  0  0  0  0
  2  7  1  0  0  0  0
  2 26  1  0  0  0  0
  3  9  1  0  0  0  0
  3 16  1  0  0  0  0
  3 28  1  0  0  0  0
  4  9  2  0  0  0  0
  5 25  3  0  0  0  0
  6  7  2  0  0  0  0
  6  9  1  0  0  0  0
  6 10  1  0  0  0  0
  7  8  1  0  0  0  0
  8 11  1  0  0  0  0
  8 14  2  0  0  0  0
 10 13  2  0  0  0  0
 10 15  1  0  0  0  0
 11 12  2  0  0  0  0
 11 27  1  0  0  0  0
 12 17  1  0  0  0  0
 12 18  1  0  0  0  0
 13 16  1  0  0  0  0
 13 29  1  0  0  0  0
 14 19  1  0  0  0  0
 14 30  1  0  0  0  0
 15 31  1  0  0  0  0
 15 32  1  0  0  0  0
 15 33  1  0  0  0  0
 17 20  2  0  0  0  0
 17 21  1  0  0  0  0
 18 19  2  0  0  0  0
 18 34  1  0  0  0  0
 19 35  1  0  0  0  0
 20 22  1  0  0  0  0
 20 36  1  0  0  0  0
 21 23  2  0  0  0  0
 21 37  1  0  0  0  0
 22 24  2  0  0  0  0
 22 38  1  0  0  0  0
 23 24  1  0  0  0  0
 23 39  1  0  0  0  0
 24 25  1  0  0  0  0
M  END
> <PUBCHEM_COMPOUND_CID>
136027080

> <PUBCHEM_CONFORMER_RMSD>
0.6

> <PUBCHEM_CONFORMER_DIVERSEORDER>
1
5
4
3
6
2

> <PUBCHEM_MMFF94_PARTIAL_CHARGES>
34
1 -0.57
10 -0.09
11 -0.15
13 -0.14
14 -0.15
15 0.14
16 0.62
18 -0.15
19 -0.15
2 0.3
20 -0.15
21 -0.15
22 -0.15
23 -0.15
24 0.07
25 0.48
26 0.27
27 0.15
28 0.37
29 0.15
3 -0.49
30 0.15
34 0.15
35 0.15
36 0.15
37 0.15
38 0.15
39 0.15
4 -0.71
5 -0.56
6 -0.05
7 -0.2
8 0.05
9 0.35

> <PUBCHEM_EFFECTIVE_ROTOR_COUNT>
2

> <PUBCHEM_PHARMACOPHORE_FEATURES>
8
1 1 acceptor
1 2 donor
1 3 donor
1 5 acceptor
5 2 4 6 7 9 rings
6 17 20 21 22 23 24 rings
6 3 6 9 10 13 16 rings
6 8 11 12 14 18 19 rings

> <PUBCHEM_HEAVY_ATOM_COUNT>
25

> <PUBCHEM_ATOM_DEF_STEREO_COUNT>
0

> <PUBCHEM_ATOM_UDEF_STEREO_COUNT>
0

> <PUBCHEM_BOND_DEF_STEREO_COUNT>
0

> <PUBCHEM_BOND_UDEF_STEREO_COUNT>
0

> <PUBCHEM_ISOTOPIC_ATOM_COUNT>
0

> <PUBCHEM_COMPONENT_COUNT>
1

> <PUBCHEM_CACTVS_TAUTO_COUNT>
-1

> <PUBCHEM_CONFORMER_ID>
081B9BC800000001

> <PUBCHEM_MMFF94_ENERGY>
71.0145

> <PUBCHEM_FEATURE_SELFOVERLAP>
40.713

> <PUBCHEM_SHAPE_FINGERPRINT>
10 15 16226050020132947876
10319926 262 14924217162961043378
10906281 52 18338807801341444548
12236239 1 18201996586877057159
12390115 104 18334585684611156814
12403259 118 16370444475166285550
13540713 5 18263905735614687882
13583140 156 15430300482346727870
13631057 29 18266733761774240967
13947920 75 17132119026357271688
14840074 17 18272092652340351089
14848178 96 18338509850443152224
14950920 106 13623523597941821854
15003188 33 16916801625919846742
15064981 113 16701463334477495492
15183329 4 17704081668629081636
15188451 53 12107789622693685853
15342168 16 18408606929191011143
15575132 122 18058452006903481289
17780758 139 12612742532256380956
1813 80 17407115461314305415
18222031 100 10303808770462049942
19784866 34 18408321072967993426
20505436 4 18272651221490310743
20511986 3 18059278890532762625
20642791 239 17846774105680436921
20691028 202 18335987575022407444
21033648 144 18260540126015361390
21033648 29 17095516249887654495
21033650 10 14620248402822879563
21307412 95 13470398985940121421
21401589 2 17822007631369843434
21756936 100 18341897432329436331
22122407 14 18122073005255824817
23559900 14 15625642973669972531
23845131 108 18114185216054366051
270888 7 18411138017489755432
2838139 119 18201155546597666120
3472631 163 18202283585023585173
34797466 226 15482378859249459434
350125 39 18117283772537695115
38570 142 18270132226885515814
445580 204 18201719561650274920
474 4 18411417272052822147
5104073 3 17967806211288812258
5718773 13 10231768764721764412
57724786 102 18186522094772027388
59755656 520 18409449197652259463
6034566 193 18042982049618862372
633830 44 18412543184892208526
7288768 16 18186526509502783035

> <PUBCHEM_SHAPE_MULTIPOLES>
488.69
15.09
2.7
1.43
11.84
1.06
0.11
-15.12
1.4
1.2
-0.67
-2.3
0.08
-1.3

> <PUBCHEM_SHAPE_SELFOVERLAP>
1099.023

> <PUBCHEM_SHAPE_VOLUME>
256.6

> <PUBCHEM_COORDINATE_TYPE>
2
5
10

$$$$
