24905251
  -OEChem-10052115143D

 40 42  0     0  0  0  0  0  0999 V2000
    4.0492    0.4266   -1.6541 O   0  0  0  0  0  0  0  0  0  0  0  0
   -2.3949    0.9702   -0.1027 N   0  0  0  0  0  0  0  0  0  0  0  0
   -1.1332    1.4139    0.0497 N   0  0  0  0  0  0  0  0  0  0  0  0
   -3.6257   -1.1127   -0.1979 N   0  0  0  0  0  0  0  0  0  0  0  0
   -2.1551   -3.0419    0.0593 N   0  0  0  0  0  0  0  0  0  0  0  0
    0.2029   -2.8346    0.3654 N   0  0  0  0  0  0  0  0  0  0  0  0
    5.1651    0.5758    0.9245 N   0  0  0  0  0  0  0  0  0  0  0  0
   -3.4678    1.9207   -0.2753 C   0  0  0  0  0  0  0  0  0  0  0  0
   -2.5022   -0.3885   -0.0729 C   0  0  0  0  0  0  0  0  0  0  0  0
   -1.2178   -0.8691    0.1126 C   0  0  0  0  0  0  0  0  0  0  0  0
   -0.4213    0.2891    0.1802 C   0  0  0  0  0  0  0  0  0  0  0  0
    1.0060    0.3624    0.3663 C   0  0  0  0  0  0  0  0  0  0  0  0
   -3.2872    2.7480   -1.5505 C   0  0  0  0  0  0  0  0  0  0  0  0
   -3.6172    2.8293    0.9474 C   0  0  0  0  0  0  0  0  0  0  0  0
   -1.0626   -2.2498    0.1780 C   0  0  0  0  0  0  0  0  0  0  0  0
    1.8550    0.3589   -0.7404 C   0  0  0  0  0  0  0  0  0  0  0  0
    1.5382    0.4367    1.6535 C   0  0  0  0  0  0  0  0  0  0  0  0
    3.2365    0.4297   -0.5599 C   0  0  0  0  0  0  0  0  0  0  0  0
    2.9197    0.5073    1.8339 C   0  0  0  0  0  0  0  0  0  0  0  0
    3.7688    0.5039    0.7272 C   0  0  0  0  0  0  0  0  0  0  0  0
   -3.3518   -2.4328   -0.1188 C   0  0  0  0  0  0  0  0  0  0  0  0
    4.4953   -0.8429   -2.1256 C   0  0  0  0  0  0  0  0  0  0  0  0
   -4.3976    1.3486   -0.3795 H   0  0  0  0  0  0  0  0  0  0  0  0
   -2.3920    3.3778   -1.5018 H   0  0  0  0  0  0  0  0  0  0  0  0
   -4.1503    3.4025   -1.7119 H   0  0  0  0  0  0  0  0  0  0  0  0
   -3.1887    2.0972   -2.4265 H   0  0  0  0  0  0  0  0  0  0  0  0
   -2.7347    3.4623    1.0924 H   0  0  0  0  0  0  0  0  0  0  0  0
   -3.7546    2.2367    1.8587 H   0  0  0  0  0  0  0  0  0  0  0  0
   -4.4869    3.4855    0.8373 H   0  0  0  0  0  0  0  0  0  0  0  0
    1.4483    0.3018   -1.7479 H   0  0  0  0  0  0  0  0  0  0  0  0
    0.8900    0.4398    2.5266 H   0  0  0  0  0  0  0  0  0  0  0  0
    3.3215    0.5643    2.8424 H   0  0  0  0  0  0  0  0  0  0  0  0
   -4.2051   -3.0961   -0.2100 H   0  0  0  0  0  0  0  0  0  0  0  0
    1.0348   -2.2704    0.4564 H   0  0  0  0  0  0  0  0  0  0  0  0
    0.2712   -3.8427    0.4072 H   0  0  0  0  0  0  0  0  0  0  0  0
    5.5425    0.6327    1.8609 H   0  0  0  0  0  0  0  0  0  0  0  0
    5.7868    0.5903    0.1271 H   0  0  0  0  0  0  0  0  0  0  0  0
    5.1592   -0.6775   -2.9786 H   0  0  0  0  0  0  0  0  0  0  0  0
    3.6447   -1.4472   -2.4568 H   0  0  0  0  0  0  0  0  0  0  0  0
    5.0519   -1.3746   -1.3475 H   0  0  0  0  0  0  0  0  0  0  0  0
  1 18  1  0  0  0  0
  1 22  1  0  0  0  0
  2  3  1  0  0  0  0
  2  8  1  0  0  0  0
  2  9  1  0  0  0  0
  3 11  2  0  0  0  0
  4  9  2  0  0  0  0
  4 21  1  0  0  0  0
  5 15  1  0  0  0  0
  5 21  2  0  0  0  0
  6 15  1  0  0  0  0
  6 34  1  0  0  0  0
  6 35  1  0  0  0  0
  7 20  1  0  0  0  0
  7 36  1  0  0  0  0
  7 37  1  0  0  0  0
  8 13  1  0  0  0  0
  8 14  1  0  0  0  0
  8 23  1  0  0  0  0
  9 10  1  0  0  0  0
 10 11  1  0  0  0  0
 10 15  2  0  0  0  0
 11 12  1  0  0  0  0
 12 16  2  0  0  0  0
 12 17  1  0  0  0  0
 13 24  1  0  0  0  0
 13 25  1  0  0  0  0
 13 26  1  0  0  0  0
 14 27  1  0  0  0  0
 14 28  1  0  0  0  0
 14 29  1  0  0  0  0
 16 18  1  0  0  0  0
 16 30  1  0  0  0  0
 17 19  2  0  0  0  0
 17 31  1  0  0  0  0
 18 20  2  0  0  0  0
 19 20  1  0  0  0  0
 19 32  1  0  0  0  0
 21 33  1  0  0  0  0
 22 38  1  0  0  0  0
 22 39  1  0  0  0  0
 22 40  1  0  0  0  0
M  END
> <PUBCHEM_COMPOUND_CID>
24905251

> <PUBCHEM_CONFORMER_RMSD>
0.6

> <PUBCHEM_CONFORMER_DIVERSEORDER>
1
10
5
6
3
7
9
4
8
2

> <PUBCHEM_MMFF94_PARTIAL_CHARGES>
27
1 -0.36
11 0.23
12 0.05
15 0.41
16 -0.15
17 -0.15
18 0.08
19 -0.15
2 0.31
20 0.1
21 0.47
22 0.28
3 -0.71
30 0.15
31 0.15
32 0.15
33 0.15
34 0.4
35 0.4
36 0.4
37 0.4
4 -0.57
5 -0.62
6 -0.9
7 -0.9
8 0.26
9 0.11

> <PUBCHEM_EFFECTIVE_ROTOR_COUNT>
3

> <PUBCHEM_PHARMACOPHORE_FEATURES>
12
1 1 acceptor
1 3 acceptor
1 6 cation
1 6 donor
1 7 cation
1 7 donor
3 2 4 9 cation
3 4 5 21 cation
3 8 13 14 hydrophobe
5 2 3 9 10 11 rings
6 12 16 17 18 19 20 rings
6 4 5 9 10 15 21 rings

> <PUBCHEM_HEAVY_ATOM_COUNT>
22

> <PUBCHEM_ATOM_DEF_STEREO_COUNT>
0

> <PUBCHEM_ATOM_UDEF_STEREO_COUNT>
0

> <PUBCHEM_BOND_DEF_STEREO_COUNT>
0

> <PUBCHEM_BOND_UDEF_STEREO_COUNT>
0

> <PUBCHEM_ISOTOPIC_ATOM_COUNT>
0

> <PUBCHEM_COMPONENT_COUNT>
1

> <PUBCHEM_CACTVS_TAUTO_COUNT>
9

> <PUBCHEM_CONFORMER_ID>
017C062300000001

> <PUBCHEM_MMFF94_ENERGY>
74.4585

> <PUBCHEM_FEATURE_SELFOVERLAP>
61.175

> <PUBCHEM_SHAPE_FINGERPRINT>
10165383 225 18195265320862986485
10319926 262 18197754740269370552
105312 117 18189607259653681437
11582403 64 16550239859092864992
11796584 16 18341900628792933214
12173636 292 18336819789217449333
12236239 1 17531235197488452250
12500047 106 18339348708821102272
12553582 1 18118966030003078355
12714826 92 18339652246854824115
12788726 201 18190750927618362707
13140716 1 18121498227041195027
13544592 145 18201446813978174164
14022347 108 17972876144787121635
14251757 17 17917714586903087450
14386348 63 17774165729083490346
15042514 8 18192148407425377979
15842332 3 17603856810884434394
16752209 62 18335410305415185195
16945 1 18337664321737898323
18186145 218 18202005386985575832
19049666 15 17988928859759345714
20510252 161 18270395109265346057
20642791 178 17400936193106617384
20645477 70 16702307828200398500
20693207 138 17916322669838668412
20871999 31 18339092569962004876
21033650 10 18188506709086768408
21065201 7 18411981373426470978
22112679 90 17822284708532261756
22182313 1 17917993906006441462
22907989 373 18338516460255188757
22943178 12 17988641926000520992
23366157 5 17752477656020154443
23402539 116 18268134522022497479
23526113 38 17489297573368444280
23557571 272 18343018939012457392
23559900 14 18201160958519768076
23598291 2 17458339732682638412
2748010 2 18265616473149556983
283562 15 18338789117954359491
312425 83 18116461222614130244
350125 39 18266180531146622459
3729539 64 17691992365739831038
458136 41 18051140185874650569
474 4 16662901507628834756
57527295 17 17416967231516328436
59755656 215 18342739598803154959
59755656 520 17844827892837464241
6049 1 17988364878876785840
633830 44 17916860201796596505
7615 1 17458892821280683616
77492 1 17530955912902877504
81228 2 18265612263896763537
9709674 26 18202002165981539494
9862522 239 17823123532904336845

> <PUBCHEM_SHAPE_MULTIPOLES>
416.99
8.84
3.04
1.49
6.44
1.24
0.28
-2.91
1.79
-5.02
0.09
1.87
-0.5
0.89

> <PUBCHEM_SHAPE_SELFOVERLAP>
909.287

> <PUBCHEM_SHAPE_VOLUME>
227.2

> <PUBCHEM_COORDINATE_TYPE>
2
5
10

$$$$
