135515045
  -OEChem-10052115183D

 36 40  0     0  0  0  0  0  0999 V2000
    3.9384    1.3789   -0.0041 S   0  0  0  0  0  0  0  0  0  0  0  0
   -0.3669    3.9494   -0.0067 O   0  0  0  0  0  0  0  0  0  0  0  0
   -0.3641    1.6814   -0.0046 N   0  0  0  0  0  0  0  0  0  0  0  0
    1.6799    2.7845   -0.0077 N   0  0  0  0  0  0  0  0  0  0  0  0
   -0.7023   -0.4990    0.0008 N   0  0  0  0  0  0  0  0  0  0  0  0
   -1.7060    1.5696   -0.0011 N   0  0  0  0  0  0  0  0  0  0  0  0
   -5.6572   -1.6152    0.0156 N   0  0  0  0  0  0  0  0  0  0  0  0
    2.4827   -0.7738   -0.0105 C   0  0  0  0  0  0  0  0  0  0  0  0
    2.1365   -2.2311    0.0059 C   0  0  0  0  0  0  0  0  0  0  0  0
    3.3420   -3.1107   -0.3616 C   0  0  0  0  0  0  0  0  0  0  0  0
    4.6183   -2.6577    0.3616 C   0  0  0  0  0  0  0  0  0  0  0  0
    3.8002   -0.3310    0.0011 C   0  0  0  0  0  0  0  0  0  0  0  0
    5.0050   -1.2192   -0.0151 C   0  0  0  0  0  0  0  0  0  0  0  0
    1.5991    0.3338   -0.0090 C   0  0  0  0  0  0  0  0  0  0  0  0
    2.2634    1.5326   -0.0080 C   0  0  0  0  0  0  0  0  0  0  0  0
    0.2181    0.4328   -0.0048 C   0  0  0  0  0  0  0  0  0  0  0  0
    0.2907    2.9199   -0.0066 C   0  0  0  0  0  0  0  0  0  0  0  0
   -1.8548    0.2403    0.0026 C   0  0  0  0  0  0  0  0  0  0  0  0
   -3.1450   -0.3893    0.0070 C   0  0  0  0  0  0  0  0  0  0  0  0
   -3.2449   -1.7763    0.0096 C   0  0  0  0  0  0  0  0  0  0  0  0
   -4.2997    0.3853    0.0087 C   0  0  0  0  0  0  0  0  0  0  0  0
   -4.5128   -2.3351    0.0138 C   0  0  0  0  0  0  0  0  0  0  0  0
   -5.5205   -0.2702    0.0130 C   0  0  0  0  0  0  0  0  0  0  0  0
    1.7891   -2.4949    1.0126 H   0  0  0  0  0  0  0  0  0  0  0  0
    1.3151   -2.4382   -0.6892 H   0  0  0  0  0  0  0  0  0  0  0  0
    3.5104   -3.0680   -1.4454 H   0  0  0  0  0  0  0  0  0  0  0  0
    3.1209   -4.1548   -0.1131 H   0  0  0  0  0  0  0  0  0  0  0  0
    5.4462   -3.3334    0.1191 H   0  0  0  0  0  0  0  0  0  0  0  0
    4.4580   -2.7236    1.4455 H   0  0  0  0  0  0  0  0  0  0  0  0
    5.4372   -1.2120   -1.0233 H   0  0  0  0  0  0  0  0  0  0  0  0
    5.7725   -0.8557    0.6776 H   0  0  0  0  0  0  0  0  0  0  0  0
    2.2822    3.6012   -0.0075 H   0  0  0  0  0  0  0  0  0  0  0  0
   -2.3764   -2.4266    0.0084 H   0  0  0  0  0  0  0  0  0  0  0  0
   -4.2838    1.4703    0.0070 H   0  0  0  0  0  0  0  0  0  0  0  0
   -4.6453   -3.4120    0.0159 H   0  0  0  0  0  0  0  0  0  0  0  0
   -6.4510    0.2881    0.0145 H   0  0  0  0  0  0  0  0  0  0  0  0
  1 12  1  0  0  0  0
  1 15  1  0  0  0  0
  2 17  2  0  0  0  0
  3  6  1  0  0  0  0
  3 16  1  0  0  0  0
  3 17  1  0  0  0  0
  4 15  1  0  0  0  0
  4 17  1  0  0  0  0
  4 32  1  0  0  0  0
  5 16  2  0  0  0  0
  5 18  1  0  0  0  0
  6 18  2  0  0  0  0
  7 22  2  0  0  0  0
  7 23  1  0  0  0  0
  8  9  1  0  0  0  0
  8 12  2  0  0  0  0
  8 14  1  0  0  0  0
  9 10  1  0  0  0  0
  9 24  1  0  0  0  0
  9 25  1  0  0  0  0
 10 11  1  0  0  0  0
 10 26  1  0  0  0  0
 10 27  1  0  0  0  0
 11 13  1  0  0  0  0
 11 28  1  0  0  0  0
 11 29  1  0  0  0  0
 12 13  1  0  0  0  0
 13 30  1  0  0  0  0
 13 31  1  0  0  0  0
 14 15  2  0  0  0  0
 14 16  1  0  0  0  0
 18 19  1  0  0  0  0
 19 20  2  0  0  0  0
 19 21  1  0  0  0  0
 20 22  1  0  0  0  0
 20 33  1  0  0  0  0
 21 23  2  0  0  0  0
 21 34  1  0  0  0  0
 22 35  1  0  0  0  0
 23 36  1  0  0  0  0
M  END
> <PUBCHEM_COMPOUND_CID>
135515045

> <PUBCHEM_CONFORMER_RMSD>
0.6

> <PUBCHEM_CONFORMER_DIVERSEORDER>
1

> <PUBCHEM_MMFF94_PARTIAL_CHARGES>
25
1 -0.08
12 -0.14
13 0.18
15 0.1
16 0.19
17 0.64
18 0.46
19 0.05
2 -0.57
20 -0.15
21 -0.15
22 0.16
23 0.16
3 0.56
32 0.37
33 0.15
34 0.15
35 0.15
36 0.15
4 -0.49
5 -0.57
6 -0.71
7 -0.62
8 -0.18
9 0.18

> <PUBCHEM_EFFECTIVE_ROTOR_COUNT>
1.8

> <PUBCHEM_PHARMACOPHORE_FEATURES>
9
1 2 acceptor
1 4 donor
1 7 acceptor
3 5 6 18 cation
5 1 8 12 14 15 rings
5 3 5 6 16 18 rings
6 3 4 14 15 16 17 rings
6 7 19 20 21 22 23 rings
6 8 9 10 11 12 13 rings

> <PUBCHEM_HEAVY_ATOM_COUNT>
23

> <PUBCHEM_ATOM_DEF_STEREO_COUNT>
0

> <PUBCHEM_ATOM_UDEF_STEREO_COUNT>
0

> <PUBCHEM_BOND_DEF_STEREO_COUNT>
0

> <PUBCHEM_BOND_UDEF_STEREO_COUNT>
0

> <PUBCHEM_ISOTOPIC_ATOM_COUNT>
0

> <PUBCHEM_COMPONENT_COUNT>
1

> <PUBCHEM_CACTVS_TAUTO_COUNT>
-1

> <PUBCHEM_CONFORMER_ID>
0813CBA500000001

> <PUBCHEM_MMFF94_ENERGY>
45.7116

> <PUBCHEM_FEATURE_SELFOVERLAP>
45.955

> <PUBCHEM_SHAPE_FINGERPRINT>
10411042 1 18338517443760715118
10622 236 17700672211736751927
10906281 52 18188787161534364616
10967382 1 18338799030611959500
1100329 8 17979915244298490764
11045515 52 18114463366277723517
11963148 33 18335975484805676354
12107183 9 18269848519322468249
12553582 1 18340474621607890366
12788726 201 18189897509105691826
13004483 165 18340197501527310739
13140716 1 18270399361014131856
13533116 47 18268711778891757195
13544653 18 18334301954470238427
138480 1 18410856602779873284
13955234 65 18053667163984638561
14117953 113 18200313213068915543
14767858 380 18262253196155933310
14790565 3 17760934339273057188
14863182 85 18337113479407833566
14866123 147 17907861704482681417
15042514 8 18123470479722555016
15196674 1 18410574006874519283
15250474 111 18056470875818098423
15352361 1 18410573959429516395
15475509 84 17845943930982788449
15927050 60 17765153165788980948
16087824 20 18193840328488224509
17492 89 18194681463293754270
19141452 34 18196659484194853577
20028762 73 18272646853023897758
20645477 70 18334291015177960091
21033650 10 16588583085280984141
21065198 57 18338517573063037899
21250096 35 18411418406003127499
21267235 1 18411426089652264238
21279426 13 18262792970228500133
21478907 32 18337953376772918537
221490 88 18263369251259449451
22950370 63 18410578379108872675
23559900 14 18338791334130941497
239999 70 18202009854315916934
2871803 45 18261109656080147826
3004659 81 18114180817917637630
314173 41 18411143558013235759
314194 84 18340487880308998451
335352 9 18410573943104040533
33824 294 18338796822924883962
3421961 26 18412260670453855536
3882209 13 17108713516427391035
4073 2 18114748264675581019
4214541 1 18410573977278967269
46194498 28 17531525507281554181
463206 1 18336828692326412146
465052 167 18343306971971718958
5104073 3 18343582919235355657
5283173 99 18042677313257636101
5309563 4 18411981347282491150
59755656 215 18408608093554247542
6443956 14 18408324401556754044
7164475 11 18335143034075047492
7970288 3 18337668607741609842
8863177 126 17896898736273055043
9709674 26 18190745426245681339
9981440 41 17257648349287947201

> <PUBCHEM_SHAPE_MULTIPOLES>
446.4
11.25
3.8
0.61
8.87
1.45
0
-8.75
-0.21
-2.13
0.05
-0.09
-0.06
-0.01

> <PUBCHEM_SHAPE_SELFOVERLAP>
1003.231

> <PUBCHEM_SHAPE_VOLUME>
239.1

> <PUBCHEM_COORDINATE_TYPE>
2
5
10

$$$$
