49830622
  -OEChem-10062121553D

 30 32  0     0  0  0  0  0  0999 V2000
    5.0553   -1.0951   -0.6786 O   0  0  0  0  0  0  0  0  0  0  0  0
   -4.6687   -0.0128   -0.2684 N   0  0  0  0  0  0  0  0  0  0  0  0
   -2.8393    1.5282   -0.5538 N   0  0  0  0  0  0  0  0  0  0  0  0
   -0.6655    0.5603   -0.0028 C   0  0  0  0  0  0  0  0  0  0  0  0
   -2.6314   -0.7935    0.2076 C   0  0  0  0  0  0  0  0  0  0  0  0
    0.7633    0.7535    0.0949 C   0  0  0  0  0  0  0  0  0  0  0  0
   -1.2377   -0.6679    0.3239 C   0  0  0  0  0  0  0  0  0  0  0  0
   -3.3411    0.3223   -0.2265 C   0  0  0  0  0  0  0  0  0  0  0  0
    1.6281   -0.3230   -0.1027 C   0  0  0  0  0  0  0  0  0  0  0  0
   -1.4938    1.5920   -0.4237 C   0  0  0  0  0  0  0  0  0  0  0  0
   -3.5820   -1.8248    0.4288 C   0  0  0  0  0  0  0  0  0  0  0  0
    3.0072   -0.1364   -0.0073 C   0  0  0  0  0  0  0  0  0  0  0  0
    1.2775    2.0165    0.3882 C   0  0  0  0  0  0  0  0  0  0  0  0
   -4.8267   -1.3158    0.1272 C   0  0  0  0  0  0  0  0  0  0  0  0
    3.5215    1.1267    0.2860 C   0  0  0  0  0  0  0  0  0  0  0  0
    2.6565    2.2030    0.4840 C   0  0  0  0  0  0  0  0  0  0  0  0
    3.9095   -1.2583   -0.2138 C   0  0  0  0  0  0  0  0  0  0  0  0
    3.4673   -2.6749    0.1369 C   0  0  0  0  0  0  0  0  0  0  0  0
   -0.6636   -1.5139    0.6865 H   0  0  0  0  0  0  0  0  0  0  0  0
    1.2465   -1.3030   -0.3762 H   0  0  0  0  0  0  0  0  0  0  0  0
   -1.1018    2.5613   -0.7217 H   0  0  0  0  0  0  0  0  0  0  0  0
   -3.3829   -2.8312    0.7708 H   0  0  0  0  0  0  0  0  0  0  0  0
    0.6418    2.8768    0.5791 H   0  0  0  0  0  0  0  0  0  0  0  0
   -5.4165    0.6063   -0.5489 H   0  0  0  0  0  0  0  0  0  0  0  0
   -5.8095   -1.7646    0.1594 H   0  0  0  0  0  0  0  0  0  0  0  0
    4.5927    1.2902    0.3698 H   0  0  0  0  0  0  0  0  0  0  0  0
    3.0571    3.1847    0.7201 H   0  0  0  0  0  0  0  0  0  0  0  0
    2.9909   -3.1352   -0.7320 H   0  0  0  0  0  0  0  0  0  0  0  0
    2.7814   -2.6687    0.9884 H   0  0  0  0  0  0  0  0  0  0  0  0
    4.3448   -3.2608    0.4266 H   0  0  0  0  0  0  0  0  0  0  0  0
  1 17  2  0  0  0  0
  2  8  1  0  0  0  0
  2 14  1  0  0  0  0
  2 24  1  0  0  0  0
  3  8  2  0  0  0  0
  3 10  1  0  0  0  0
  4  6  1  0  0  0  0
  4  7  1  0  0  0  0
  4 10  2  0  0  0  0
  5  7  2  0  0  0  0
  5  8  1  0  0  0  0
  5 11  1  0  0  0  0
  6  9  2  0  0  0  0
  6 13  1  0  0  0  0
  7 19  1  0  0  0  0
  9 12  1  0  0  0  0
  9 20  1  0  0  0  0
 10 21  1  0  0  0  0
 11 14  2  0  0  0  0
 11 22  1  0  0  0  0
 12 15  2  0  0  0  0
 12 17  1  0  0  0  0
 13 16  2  0  0  0  0
 13 23  1  0  0  0  0
 14 25  1  0  0  0  0
 15 16  1  0  0  0  0
 15 26  1  0  0  0  0
 16 27  1  0  0  0  0
 17 18  1  0  0  0  0
 18 28  1  0  0  0  0
 18 29  1  0  0  0  0
 18 30  1  0  0  0  0
M  END
> <PUBCHEM_COMPOUND_CID>
49830622

> <PUBCHEM_CONFORMER_RMSD>
0.6

> <PUBCHEM_CONFORMER_DIVERSEORDER>
1
4
8
5
7
6
2
3

> <PUBCHEM_MMFF94_PARTIAL_CHARGES>
24
1 -0.57
10 0.16
11 -0.15
12 0.09
13 -0.15
14 -0.3
15 -0.15
16 -0.15
17 0.42
18 0.06
19 0.15
2 0.03
20 0.15
21 0.15
22 0.15
23 0.15
24 0.27
25 0.15
26 0.15
27 0.15
3 -0.57
7 -0.15
8 0.11
9 -0.15

> <PUBCHEM_EFFECTIVE_ROTOR_COUNT>
2

> <PUBCHEM_PHARMACOPHORE_FEATURES>
6
1 1 acceptor
1 2 donor
3 2 3 8 cation
5 2 5 8 11 14 rings
6 3 4 5 7 8 10 rings
6 6 9 12 13 15 16 rings

> <PUBCHEM_HEAVY_ATOM_COUNT>
18

> <PUBCHEM_ATOM_DEF_STEREO_COUNT>
0

> <PUBCHEM_ATOM_UDEF_STEREO_COUNT>
0

> <PUBCHEM_BOND_DEF_STEREO_COUNT>
0

> <PUBCHEM_BOND_UDEF_STEREO_COUNT>
0

> <PUBCHEM_ISOTOPIC_ATOM_COUNT>
0

> <PUBCHEM_COMPONENT_COUNT>
1

> <PUBCHEM_CACTVS_TAUTO_COUNT>
4

> <PUBCHEM_CONFORMER_ID>
02F85ADE00000001

> <PUBCHEM_MMFF94_ENERGY>
50.7117

> <PUBCHEM_FEATURE_SELFOVERLAP>
30.559

> <PUBCHEM_SHAPE_FINGERPRINT>
11405975 8 18341895160655824817
11552529 35 17629203994490648603
12032990 46 18410575093327113389
12107183 9 18055364530764764825
12403259 226 18410005529119028413
12616999 72 18261679272271173068
12916754 54 18413110580357885337
13167823 11 18201155554886939967
13288520 33 18411421682883657567
13296908 3 18410853274026900304
13533116 47 18201158853611389683
13740256 8 18412266104141379286
13955234 65 18199467843272111728
14252887 29 18335985388461300977
14866123 147 17405993955226311920
15196674 1 18410574006985068201
15219456 202 18411976996464627009
15352361 1 18339361855906269414
15442244 35 18341334383676306288
15536298 74 18411697720394848225
15961568 22 17241327026944759548
17804303 29 18410014316822166917
17834074 16 18409728482189867651
1813 80 17240761830632971909
18186145 218 17895185619382662021
19141452 34 18341896350831276895
193927 3 17917724456948871822
200 152 17989485234312969985
20281475 54 18410017619446457960
20374829 77 18333447625451114418
20645477 70 18343865532621245630
21065198 57 18411698807464938977
21065201 7 17968086534602331249
21250096 35 18342174419439882010
21267235 1 18411427206227664654
21279426 13 18336256839738690757
221490 88 18409172142486527082
2215653 11 18410848846427191575
22943178 12 18336816563470292781
23403322 49 18410013195651294119
23557571 272 17749378295633576733
23559900 14 18408880763109769760
239999 70 18343869931263803702
2871803 45 18260260871758073995
3004659 81 18041844983493745642
312423 11 18271260377286916072
3323516 105 18334857220869787122
335352 9 18338797784992602109
33824 294 18339640148443680018
3421961 26 18413668007231192994
4214541 1 18410575054893973289
465052 167 18201164329183450519
4921388 177 16298684840263266923
5104073 3 18413106156235759041
7364860 26 18341893043426799744
77779 3 18410856594337391449
8809292 202 18334298673263021483
9709674 26 18262800803652924299

> <PUBCHEM_SHAPE_MULTIPOLES>
354.6
9.89
2.42
0.7
2.25
0.29
0.01
4.76
-0.61
-1.71
0.17
-0.05
-0.03
0.89

> <PUBCHEM_SHAPE_SELFOVERLAP>
792.294

> <PUBCHEM_SHAPE_VOLUME>
188.6

> <PUBCHEM_COORDINATE_TYPE>
2
5
10

$$$$
