3810484
  -OEChem-10062122013D

 30 32  0     0  0  0  0  0  0999 V2000
    2.2495    3.9989   -0.0014 Cl  0  0  0  0  0  0  0  0  0  0  0  0
    1.0063   -3.8805   -0.0008 O   0  0  0  0  0  0  0  0  0  0  0  0
    2.1367   -1.8987    0.0010 N   0  0  0  0  0  0  0  0  0  0  0  0
   -1.4250   -2.7257   -0.0018 N   0  0  0  0  0  0  0  0  0  0  0  0
   -0.3400   -0.5490   -0.0011 C   0  0  0  0  0  0  0  0  0  0  0  0
    0.9420    0.2008   -0.0004 C   0  0  0  0  0  0  0  0  0  0  0  0
    2.1503   -0.5003    0.0009 C   0  0  0  0  0  0  0  0  0  0  0  0
   -0.3264   -1.9053   -0.0010 C   0  0  0  0  0  0  0  0  0  0  0  0
   -1.6544    0.1018   -0.0001 C   0  0  0  0  0  0  0  0  0  0  0  0
    0.9907    1.6038   -0.0013 C   0  0  0  0  0  0  0  0  0  0  0  0
    0.9848   -2.6491   -0.0004 C   0  0  0  0  0  0  0  0  0  0  0  0
    3.3790    0.1687    0.0019 C   0  0  0  0  0  0  0  0  0  0  0  0
    2.2155    2.2775   -0.0004 C   0  0  0  0  0  0  0  0  0  0  0  0
   -2.2687    0.4072   -1.2078 C   0  0  0  0  0  0  0  0  0  0  0  0
   -2.2685    0.4047    1.2083 C   0  0  0  0  0  0  0  0  0  0  0  0
    3.4086    1.5604    0.0013 C   0  0  0  0  0  0  0  0  0  0  0  0
   -3.5185    1.0264   -1.2071 C   0  0  0  0  0  0  0  0  0  0  0  0
   -3.5184    1.0238    1.2089 C   0  0  0  0  0  0  0  0  0  0  0  0
   -4.1434    1.3347    0.0011 C   0  0  0  0  0  0  0  0  0  0  0  0
    3.0291   -2.3847    0.0018 H   0  0  0  0  0  0  0  0  0  0  0  0
    0.0733    2.1884   -0.0026 H   0  0  0  0  0  0  0  0  0  0  0  0
    4.3143   -0.3849    0.0030 H   0  0  0  0  0  0  0  0  0  0  0  0
   -1.7931    0.1736   -2.1570 H   0  0  0  0  0  0  0  0  0  0  0  0
   -1.7929    0.1691    2.1569 H   0  0  0  0  0  0  0  0  0  0  0  0
    4.3676    2.0718    0.0020 H   0  0  0  0  0  0  0  0  0  0  0  0
   -2.3608   -2.3416   -0.0019 H   0  0  0  0  0  0  0  0  0  0  0  0
   -1.2986   -3.7304   -0.0009 H   0  0  0  0  0  0  0  0  0  0  0  0
   -4.0051    1.2687   -2.1473 H   0  0  0  0  0  0  0  0  0  0  0  0
   -4.0051    1.2642    2.1496 H   0  0  0  0  0  0  0  0  0  0  0  0
   -5.1165    1.8169    0.0016 H   0  0  0  0  0  0  0  0  0  0  0  0
  1 13  1  0  0  0  0
  2 11  2  0  0  0  0
  3  7  1  0  0  0  0
  3 11  1  0  0  0  0
  3 20  1  0  0  0  0
  4  8  1  0  0  0  0
  4 26  1  0  0  0  0
  4 27  1  0  0  0  0
  5  6  1  0  0  0  0
  5  8  2  0  0  0  0
  5  9  1  0  0  0  0
  6  7  2  0  0  0  0
  6 10  1  0  0  0  0
  7 12  1  0  0  0  0
  8 11  1  0  0  0  0
  9 14  2  0  0  0  0
  9 15  1  0  0  0  0
 10 13  2  0  0  0  0
 10 21  1  0  0  0  0
 12 16  2  0  0  0  0
 12 22  1  0  0  0  0
 13 16  1  0  0  0  0
 14 17  1  0  0  0  0
 14 23  1  0  0  0  0
 15 18  2  0  0  0  0
 15 24  1  0  0  0  0
 16 25  1  0  0  0  0
 17 19  2  0  0  0  0
 17 28  1  0  0  0  0
 18 19  1  0  0  0  0
 18 29  1  0  0  0  0
 19 30  1  0  0  0  0
M  END
> <PUBCHEM_COMPOUND_CID>
3810484

> <PUBCHEM_CONFORMER_RMSD>
0.6

> <PUBCHEM_CONFORMER_DIVERSEORDER>
1

> <PUBCHEM_MMFF94_PARTIAL_CHARGES>
30
1 -0.18
10 -0.15
11 0.62
12 -0.15
13 0.18
14 -0.15
15 -0.15
16 -0.15
17 -0.15
18 -0.15
19 -0.15
2 -0.57
20 0.37
21 0.15
22 0.15
23 0.15
24 0.15
25 0.15
26 0.4
27 0.4
28 0.15
29 0.15
3 -0.55
30 0.15
4 -0.9
5 -0.06
6 0.03
7 0.12
8 0.11
9 0.03

> <PUBCHEM_EFFECTIVE_ROTOR_COUNT>
1

> <PUBCHEM_PHARMACOPHORE_FEATURES>
7
1 2 acceptor
1 3 donor
1 4 cation
1 4 donor
6 3 5 6 7 8 11 rings
6 6 7 10 12 13 16 rings
6 9 14 15 17 18 19 rings

> <PUBCHEM_HEAVY_ATOM_COUNT>
19

> <PUBCHEM_ATOM_DEF_STEREO_COUNT>
0

> <PUBCHEM_ATOM_UDEF_STEREO_COUNT>
0

> <PUBCHEM_BOND_DEF_STEREO_COUNT>
0

> <PUBCHEM_BOND_UDEF_STEREO_COUNT>
0

> <PUBCHEM_ISOTOPIC_ATOM_COUNT>
0

> <PUBCHEM_COMPONENT_COUNT>
1

> <PUBCHEM_CACTVS_TAUTO_COUNT>
4

> <PUBCHEM_CONFORMER_ID>
003A24B400000001

> <PUBCHEM_MMFF94_ENERGY>
62.4642

> <PUBCHEM_FEATURE_SELFOVERLAP>
35.545

> <PUBCHEM_SHAPE_FINGERPRINT>
10165383 225 18190767368732527725
10411042 1 17618222806433282759
10670039 82 16605482974444094972
10871710 139 16673609783856614693
10967382 1 18338797806219213028
11471102 20 18337952281524336757
11582403 64 16737996918975929845
11640471 11 17632027333959946865
116883 192 17187560547025076333
11725454 13 17025118944488604669
12173636 292 18123470741773647565
12236239 1 17631443472026720193
12553582 1 17835807395599460126
12730499 353 18335422340419866245
12788726 201 17693358354323495310
13009979 54 17415275027682647851
13134695 92 18048310050975364783
13140716 1 18337670927139078496
13583140 156 17313648460327333609
14787075 74 17986397904847278219
15309172 13 18409169926183357321
16945 1 18338517439249177670
17134986 127 18409445925071529956
1813 80 17410503082392976063
18186145 218 18342744004769609557
18219364 16 18335707156248234497
19930381 70 18409728487086799809
20510252 161 17836647800444743849
20739085 24 17908445570420412633
21041028 32 17689160002237353195
21524375 3 18261671587920351354
21639500 275 18338226081721517685
21731228 192 18335706108202088552
2255824 54 18341331106542010004
2334 1 18122343738133679348
23419403 2 15949722887948928714
23558518 356 17901103341508793034
23598291 2 17916296131103968573
238 59 17829566709544647637
25 1 18408885109621694780
2748010 2 18337680839939428110
283562 15 17184465963555150888
3060560 45 18411978036067940854
3091708 16 9261652084179868970
31174 14 18191038824014136731
350125 39 18193565685917193144
3886686 26 17836609236825197512
474 4 18413387631376096641
6333272 397 18411702110220644409
633830 44 18130520672834036461
7364860 26 18339080363269193462
74978 22 18339926034040904876
77492 1 17559383666054241575
81228 2 17542225013497046130
8272917 22 18269278950539489637
84936 182 18202272606918741945
9981440 41 16696360775848514480

> <PUBCHEM_SHAPE_MULTIPOLES>
377.05
6.17
3.98
0.92
2.73
1.42
0
-4.59
0
-2.84
0
0.91
-0.28
0

> <PUBCHEM_SHAPE_SELFOVERLAP>
829.984

> <PUBCHEM_SHAPE_VOLUME>
203.3

> <PUBCHEM_COORDINATE_TYPE>
2
5
10

$$$$
