44137946
  -OEChem-10052115173D

 60 64  0     1  0  0  0  0  0999 V2000
   -4.9171   -0.2816    0.5789 S   0  0  0  0  0  0  0  0  0  0  0  0
   -2.6236    3.7743    0.3271 O   0  0  0  0  0  0  0  0  0  0  0  0
   -2.2796    4.2111   -2.4241 O   0  0  0  0  0  0  0  0  0  0  0  0
   -4.9795   -0.4806   -0.8570 O   0  0  0  0  0  0  0  0  0  0  0  0
   -6.1570   -0.1453    1.3250 O   0  0  0  0  0  0  0  0  0  0  0  0
    0.9641   -2.3040    2.2395 O   0  0  0  0  0  0  0  0  0  0  0  0
   -3.9478    1.1044    0.9115 N   0  0  2  0  0  0  0  0  0  0  0  0
   -4.0153   -1.5546    1.3201 N   0  0  0  0  0  0  0  0  0  0  0  0
    3.3534   -2.0092   -1.7599 N   0  0  0  0  0  0  0  0  0  0  0  0
    6.3262    2.1077    0.6286 N   0  0  0  0  0  0  0  0  0  0  0  0
    5.3365    2.7377    1.2843 N   0  0  0  0  0  0  0  0  0  0  0  0
   -2.9799    2.7604   -0.6217 C   0  0  2  0  0  0  0  0  0  0  0  0
   -2.7880    1.4045    0.0386 C   0  0  0  0  0  0  0  0  0  0  0  0
   -2.1062    2.9060   -1.8649 C   0  0  0  0  0  0  0  0  0  0  0  0
   -2.7924    5.0783   -0.2336 C   0  0  0  0  0  0  0  0  0  0  0  0
   -1.9264    5.2188   -1.4740 C   0  0  0  0  0  0  0  0  0  0  0  0
   -3.6932    1.4459    2.3323 C   0  0  0  0  0  0  0  0  0  0  0  0
   -2.9057   -2.1365    0.6361 C   0  0  0  0  0  0  0  0  0  0  0  0
   -0.5140   -2.5038    0.4372 C   0  0  0  0  0  0  0  0  0  0  0  0
   -1.6107   -1.9399    1.1098 C   0  0  0  0  0  0  0  0  0  0  0  0
   -0.7090   -3.2795   -0.7125 C   0  0  0  0  0  0  0  0  0  0  0  0
   -3.1139   -2.9043   -0.5033 C   0  0  0  0  0  0  0  0  0  0  0  0
    1.9422   -1.8159    0.1760 C   0  0  0  0  0  0  0  0  0  0  0  0
    0.8154   -2.2434    1.0233 C   0  0  0  0  0  0  0  0  0  0  0  0
   -2.0262   -3.4761   -1.1661 C   0  0  0  0  0  0  0  0  0  0  0  0
    2.2884   -2.4256   -1.0250 C   0  0  0  0  0  0  0  0  0  0  0  0
    0.3560   -3.9841   -1.4332 C   0  0  0  0  0  0  0  0  0  0  0  0
    2.7171   -0.7435    0.6322 C   0  0  0  0  0  0  0  0  0  0  0  0
    1.6363   -3.6178   -1.5657 C   0  0  0  0  0  0  0  0  0  0  0  0
    3.7986   -0.3013   -0.1168 C   0  0  0  0  0  0  0  0  0  0  0  0
    4.6035    0.8004    0.3215 C   0  0  0  0  0  0  0  0  0  0  0  0
    4.0719   -0.9615   -1.2979 C   0  0  0  0  0  0  0  0  0  0  0  0
    5.9392    0.9424    0.0346 C   0  0  0  0  0  0  0  0  0  0  0  0
    4.2867    1.9345    1.0931 C   0  0  0  0  0  0  0  0  0  0  0  0
    7.6501    2.6820    0.6060 C   0  0  0  0  0  0  0  0  0  0  0  0
   -4.0333    2.9063   -0.8966 H   0  0  0  0  0  0  0  0  0  0  0  0
   -1.8584    1.3737    0.6198 H   0  0  0  0  0  0  0  0  0  0  0  0
   -2.7016    0.6300   -0.7307 H   0  0  0  0  0  0  0  0  0  0  0  0
   -1.0442    2.7636   -1.6307 H   0  0  0  0  0  0  0  0  0  0  0  0
   -2.3885    2.1741   -2.6282 H   0  0  0  0  0  0  0  0  0  0  0  0
   -2.5036    5.8147    0.5219 H   0  0  0  0  0  0  0  0  0  0  0  0
   -3.8524    5.2258   -0.4703 H   0  0  0  0  0  0  0  0  0  0  0  0
   -2.0785    6.1967   -1.9401 H   0  0  0  0  0  0  0  0  0  0  0  0
   -0.8630    5.1152   -1.2292 H   0  0  0  0  0  0  0  0  0  0  0  0
   -2.8796    0.8374    2.7372 H   0  0  0  0  0  0  0  0  0  0  0  0
   -3.4310    2.5027    2.4298 H   0  0  0  0  0  0  0  0  0  0  0  0
   -4.5927    1.2843    2.9330 H   0  0  0  0  0  0  0  0  0  0  0  0
   -3.9015   -1.4843    2.3398 H   0  0  0  0  0  0  0  0  0  0  0  0
   -1.4553   -1.3350    2.0012 H   0  0  0  0  0  0  0  0  0  0  0  0
   -4.1169   -3.0866   -0.8799 H   0  0  0  0  0  0  0  0  0  0  0  0
   -2.2227   -4.0863   -2.0462 H   0  0  0  0  0  0  0  0  0  0  0  0
    0.0482   -4.8973   -1.9406 H   0  0  0  0  0  0  0  0  0  0  0  0
    2.4642   -0.2571    1.5723 H   0  0  0  0  0  0  0  0  0  0  0  0
    2.2782   -4.2536   -2.1736 H   0  0  0  0  0  0  0  0  0  0  0  0
    4.8916   -0.6764   -1.9505 H   0  0  0  0  0  0  0  0  0  0  0  0
    6.6391    0.3317   -0.5207 H   0  0  0  0  0  0  0  0  0  0  0  0
    3.3370    2.2170    1.5255 H   0  0  0  0  0  0  0  0  0  0  0  0
    8.3184    2.0376    0.0295 H   0  0  0  0  0  0  0  0  0  0  0  0
    8.0068    2.7640    1.6358 H   0  0  0  0  0  0  0  0  0  0  0  0
    7.5890    3.6686    0.1400 H   0  0  0  0  0  0  0  0  0  0  0  0
  1  4  2  0  0  0  0
  1  5  2  0  0  0  0
  1  7  1  0  0  0  0
  1  8  1  0  0  0  0
  2 12  1  0  0  0  0
  2 15  1  0  0  0  0
  3 14  1  0  0  0  0
  3 16  1  0  0  0  0
  6 24  2  0  0  0  0
  7 13  1  0  0  0  0
  7 17  1  0  0  0  0
  8 18  1  0  0  0  0
  8 48  1  0  0  0  0
  9 26  1  0  0  0  0
  9 32  2  0  0  0  0
 10 11  1  0  0  0  0
 10 33  1  0  0  0  0
 10 35  1  0  0  0  0
 11 34  2  0  0  0  0
 12 13  1  0  0  0  0
 12 14  1  0  0  0  0
 12 36  1  0  0  0  0
 13 37  1  0  0  0  0
 13 38  1  0  0  0  0
 14 39  1  0  0  0  0
 14 40  1  0  0  0  0
 15 16  1  0  0  0  0
 15 41  1  0  0  0  0
 15 42  1  0  0  0  0
 16 43  1  0  0  0  0
 16 44  1  0  0  0  0
 17 45  1  0  0  0  0
 17 46  1  0  0  0  0
 17 47  1  0  0  0  0
 18 20  2  0  0  0  0
 18 22  1  0  0  0  0
 19 20  1  0  0  0  0
 19 21  2  0  0  0  0
 19 24  1  0  0  0  0
 20 49  1  0  0  0  0
 21 25  1  0  0  0  0
 21 27  1  0  0  0  0
 22 25  2  0  0  0  0
 22 50  1  0  0  0  0
 23 24  1  0  0  0  0
 23 26  2  0  0  0  0
 23 28  1  0  0  0  0
 25 51  1  0  0  0  0
 26 29  1  0  0  0  0
 27 29  2  0  0  0  0
 27 52  1  0  0  0  0
 28 30  2  0  0  0  0
 28 53  1  0  0  0  0
 29 54  1  0  0  0  0
 30 31  1  0  0  0  0
 30 32  1  0  0  0  0
 31 33  2  0  0  0  0
 31 34  1  0  0  0  0
 32 55  1  0  0  0  0
 33 56  1  0  0  0  0
 34 57  1  0  0  0  0
 35 58  1  0  0  0  0
 35 59  1  0  0  0  0
 35 60  1  0  0  0  0
M  END
> <PUBCHEM_COMPOUND_CID>
44137946

> <PUBCHEM_CONFORMER_RMSD>
1.4

> <PUBCHEM_CONFORMER_DIVERSEORDER>
1
44
13
15
38
74
54
5
52
11
35
17
19
64
24
8
47
27
31
26
43
69
28
34
58
36
4
39
33
2
75
18
9
14
37
77
42
12
72
79
30
53
59
23
51
48
45
10
40
70
61
32
7
81
63
62
6
67
41
73
29
3
56
80
50
16
25
20
21
49
68
65
60
22
71
78
57
55
46
66
76

> <PUBCHEM_MMFF94_PARTIAL_CHARGES>
45
1 1.58
10 0.31
11 -0.71
12 0.28
13 0.36
14 0.28
15 0.28
16 0.28
17 0.36
18 0.2
19 0.09
2 -0.56
20 -0.15
21 0.03
22 -0.15
23 0.09
24 0.4
25 -0.15
26 0.34
27 -0.18
28 -0.15
29 -0.18
3 -0.56
30 0.05
31 -0.05
32 0.16
33 -0.3
34 0.14
35 0.26
4 -0.65
48 0.42
49 0.15
5 -0.65
50 0.15
51 0.15
52 0.15
53 0.15
54 0.15
55 0.15
56 0.15
57 0.15
6 -0.57
7 -0.85
8 -0.76
9 -0.62

> <PUBCHEM_EFFECTIVE_ROTOR_COUNT>
7.2

> <PUBCHEM_PHARMACOPHORE_FEATURES>
11
1 11 acceptor
1 2 acceptor
1 3 acceptor
1 6 acceptor
1 8 donor
1 9 acceptor
5 10 11 31 33 34 rings
6 18 19 20 21 22 25 rings
6 2 3 12 14 15 16 rings
6 9 23 26 28 30 32 rings
7 19 21 23 24 26 27 29 rings

> <PUBCHEM_HEAVY_ATOM_COUNT>
35

> <PUBCHEM_ATOM_DEF_STEREO_COUNT>
1

> <PUBCHEM_ATOM_UDEF_STEREO_COUNT>
0

> <PUBCHEM_BOND_DEF_STEREO_COUNT>
0

> <PUBCHEM_BOND_UDEF_STEREO_COUNT>
0

> <PUBCHEM_ISOTOPIC_ATOM_COUNT>
0

> <PUBCHEM_COMPONENT_COUNT>
1

> <PUBCHEM_CACTVS_TAUTO_COUNT>
9

> <PUBCHEM_CONFORMER_ID>
02A17DDA00000001

> <PUBCHEM_MMFF94_ENERGY>
112.9064

> <PUBCHEM_FEATURE_SELFOVERLAP>
55.846

> <PUBCHEM_SHAPE_FINGERPRINT>
10087517 78 18266174114254141336
10556698 54 18054797173832123716
10815517 723 18264204893409001956
10842077 115 17827347796084875916
11621639 148 18337680832172270947
133061 13 18336261224167336820
14068700 686 18338798910174183501
14739800 52 18260545572060558930
15219462 58 17605854525023943883
15320291 9 18048876290937753012
15604295 49 17840302557019769912
15721738 15 16894536274528803540
15961568 22 18337390551642372731
15968369 153 18339938107167197813
15975801 100 18261939817767158552
16067690 210 18115577300821956600
16992787 43 18337660925099834389
16992828 155 18268704086093673172
17899979 19 18335695088255354621
19309040 13 16557929830495620657
20764821 26 18120660381283919068
21033648 144 18411136939664142655
21315764 268 18339364067566461626
21458453 9 17179440719113377401
21857420 4 15594955234935373012
21859007 373 18413111671970714166
22121540 332 18411428289476984398
24771293 8 18412270558444302891
25019877 29 17272589462389699967
354706 35 18120908664769554308
4371632 12 17830719977374048853
4394409 98 14596272911897265485
46194498 28 17916876694486883431
469060 322 17385998524621747663
50677037 204 17692802010378188384
57527306 92 18042675286175639539
653340 110 18335139752345408964
6608658 132 18266724969195106918
9982175 69 18044922498658675453

> <PUBCHEM_SHAPE_MULTIPOLES>
669.88
13.6
7.29
1.88
17.03
6.36
-0.12
11.82
4.31
-4.12
-3.79
-0.91
0.35
3.14

> <PUBCHEM_SHAPE_SELFOVERLAP>
1447.113

> <PUBCHEM_SHAPE_VOLUME>
369.9

> <PUBCHEM_COORDINATE_TYPE>
2
5
10

$$$$
