5330788
  -OEChem-10062121583D

 67 73  0     0  0  0  0  0  0999 V2000
    9.9157    2.8419   -0.0004 O   0  0  0  0  0  0  0  0  0  0  0  0
   -4.1295   -3.6053   -0.6716 O   0  0  0  0  0  0  0  0  0  0  0  0
   -6.3038    0.3362   -1.1005 O   0  0  0  0  0  0  0  0  0  0  0  0
    5.5480   -0.6403   -0.7659 N   0  0  0  0  0  0  0  0  0  0  0  0
   -0.0633   -0.6228    0.6786 N   0  0  0  0  0  0  0  0  0  0  0  0
   -5.2201    2.8440   -0.2538 N   0  0  0  0  0  0  0  0  0  0  0  0
   -5.5310   -1.7667   -0.8417 N   0  0  0  0  0  0  0  0  0  0  0  0
    6.8088   -0.0109   -0.3744 C   0  0  0  0  0  0  0  0  0  0  0  0
    6.5462    1.2270    0.4926 C   0  0  0  0  0  0  0  0  0  0  0  0
    7.6179    0.3507   -1.6255 C   0  0  0  0  0  0  0  0  0  0  0  0
    7.8480    1.9375    0.8541 C   0  0  0  0  0  0  0  0  0  0  0  0
    8.9177    1.0622   -1.2584 C   0  0  0  0  0  0  0  0  0  0  0  0
    8.6618    2.2916   -0.3896 C   0  0  0  0  0  0  0  0  0  0  0  0
    4.7536   -0.9871    0.4065 C   0  0  0  0  0  0  0  0  0  0  0  0
   -2.0297   -1.4894    0.0827 C   0  0  0  0  0  0  0  0  0  0  0  0
   -1.3674   -0.2889    0.3833 C   0  0  0  0  0  0  0  0  0  0  0  0
    3.4563   -1.6746   -0.0161 C   0  0  0  0  0  0  0  0  0  0  0  0
    0.1430   -1.9742    0.5832 C   0  0  0  0  0  0  0  0  0  0  0  0
   -1.0697   -2.5547    0.2108 C   0  0  0  0  0  0  0  0  0  0  0  0
    2.6053   -2.0726    1.1996 C   0  0  0  0  0  0  0  0  0  0  0  0
   -3.3873    1.0703    0.0178 C   0  0  0  0  0  0  0  0  0  0  0  0
   -2.0057    0.9899    0.3611 C   0  0  0  0  0  0  0  0  0  0  0  0
   -3.3869   -1.3667   -0.2500 C   0  0  0  0  0  0  0  0  0  0  0  0
    1.3151   -2.7096    0.8012 C   0  0  0  0  0  0  0  0  0  0  0  0
   -4.0495   -0.1302   -0.2831 C   0  0  0  0  0  0  0  0  0  0  0  0
   -3.9460    2.3891    0.0206 C   0  0  0  0  0  0  0  0  0  0  0  0
   -3.1992    3.5323    0.3368 C   0  0  0  0  0  0  0  0  0  0  0  0
   -1.0938   -3.9587    0.0510 C   0  0  0  0  0  0  0  0  0  0  0  0
   -1.2545    2.1353    0.6785 C   0  0  0  0  0  0  0  0  0  0  0  0
    1.2570   -4.0929    0.6348 C   0  0  0  0  0  0  0  0  0  0  0  0
   -4.3470   -2.4117   -0.6100 C   0  0  0  0  0  0  0  0  0  0  0  0
   -5.4470   -0.4097   -0.6706 C   0  0  0  0  0  0  0  0  0  0  0  0
   -1.8400    3.4003    0.6685 C   0  0  0  0  0  0  0  0  0  0  0  0
    0.0689   -4.7110    0.2646 C   0  0  0  0  0  0  0  0  0  0  0  0
   -4.0625    4.6601    0.2411 C   0  0  0  0  0  0  0  0  0  0  0  0
   -5.3021    4.2020   -0.1248 C   0  0  0  0  0  0  0  0  0  0  0  0
   -6.4273    2.2076    0.2693 C   0  0  0  0  0  0  0  0  0  0  0  0
    7.3982   -0.7311    0.2100 H   0  0  0  0  0  0  0  0  0  0  0  0
    5.8824    1.9283   -0.0295 H   0  0  0  0  0  0  0  0  0  0  0  0
    6.0725    0.9714    1.4455 H   0  0  0  0  0  0  0  0  0  0  0  0
    7.8527   -0.5537   -2.2002 H   0  0  0  0  0  0  0  0  0  0  0  0
    7.0264    1.0011   -2.2834 H   0  0  0  0  0  0  0  0  0  0  0  0
    7.6346    2.8483    1.4265 H   0  0  0  0  0  0  0  0  0  0  0  0
    8.4484    1.3036    1.5199 H   0  0  0  0  0  0  0  0  0  0  0  0
    9.5872    0.3689   -0.7325 H   0  0  0  0  0  0  0  0  0  0  0  0
    9.4524    1.3555   -2.1700 H   0  0  0  0  0  0  0  0  0  0  0  0
    8.1273    3.0540   -0.9689 H   0  0  0  0  0  0  0  0  0  0  0  0
    5.7387   -1.4775   -1.3158 H   0  0  0  0  0  0  0  0  0  0  0  0
    4.4485   -0.0998    0.9683 H   0  0  0  0  0  0  0  0  0  0  0  0
    5.3181   -1.6482    1.0749 H   0  0  0  0  0  0  0  0  0  0  0  0
    3.6857   -2.5700   -0.6088 H   0  0  0  0  0  0  0  0  0  0  0  0
    2.8796   -1.0055   -0.6685 H   0  0  0  0  0  0  0  0  0  0  0  0
    3.1747   -2.7579    1.8410 H   0  0  0  0  0  0  0  0  0  0  0  0
    2.4084   -1.1892    1.8195 H   0  0  0  0  0  0  0  0  0  0  0  0
    0.6530    0.0433    0.9299 H   0  0  0  0  0  0  0  0  0  0  0  0
   10.3995    3.0734   -0.8115 H   0  0  0  0  0  0  0  0  0  0  0  0
   -1.9963   -4.4841   -0.2370 H   0  0  0  0  0  0  0  0  0  0  0  0
   -0.2011    2.0690    0.9396 H   0  0  0  0  0  0  0  0  0  0  0  0
    2.1428   -4.7039    0.7912 H   0  0  0  0  0  0  0  0  0  0  0  0
   -1.2434    4.2739    0.9167 H   0  0  0  0  0  0  0  0  0  0  0  0
    0.0387   -5.7900    0.1380 H   0  0  0  0  0  0  0  0  0  0  0  0
   -6.3703   -2.2386   -1.1593 H   0  0  0  0  0  0  0  0  0  0  0  0
   -3.8046    5.6930    0.4313 H   0  0  0  0  0  0  0  0  0  0  0  0
   -6.2346    4.7359   -0.2604 H   0  0  0  0  0  0  0  0  0  0  0  0
   -6.8710    2.8815    1.0190 H   0  0  0  0  0  0  0  0  0  0  0  0
   -7.1783    2.1438   -0.5213 H   0  0  0  0  0  0  0  0  0  0  0  0
   -6.2040    1.3197    0.8602 H   0  0  0  0  0  0  0  0  0  0  0  0
  1 13  1  0  0  0  0
  1 56  1  0  0  0  0
  2 31  2  0  0  0  0
  3 32  2  0  0  0  0
  4  8  1  0  0  0  0
  4 14  1  0  0  0  0
  4 48  1  0  0  0  0
  5 16  1  0  0  0  0
  5 18  1  0  0  0  0
  5 55  1  0  0  0  0
  6 26  1  0  0  0  0
  6 36  1  0  0  0  0
  6 37  1  0  0  0  0
  7 31  1  0  0  0  0
  7 32  1  0  0  0  0
  7 62  1  0  0  0  0
  8  9  1  0  0  0  0
  8 10  1  0  0  0  0
  8 38  1  0  0  0  0
  9 11  1  0  0  0  0
  9 39  1  0  0  0  0
  9 40  1  0  0  0  0
 10 12  1  0  0  0  0
 10 41  1  0  0  0  0
 10 42  1  0  0  0  0
 11 13  1  0  0  0  0
 11 43  1  0  0  0  0
 11 44  1  0  0  0  0
 12 13  1  0  0  0  0
 12 45  1  0  0  0  0
 12 46  1  0  0  0  0
 13 47  1  0  0  0  0
 14 17  1  0  0  0  0
 14 49  1  0  0  0  0
 14 50  1  0  0  0  0
 15 16  2  0  0  0  0
 15 19  1  0  0  0  0
 15 23  1  0  0  0  0
 16 22  1  0  0  0  0
 17 20  1  0  0  0  0
 17 51  1  0  0  0  0
 17 52  1  0  0  0  0
 18 19  1  0  0  0  0
 18 24  2  0  0  0  0
 19 28  2  0  0  0  0
 20 24  1  0  0  0  0
 20 53  1  0  0  0  0
 20 54  1  0  0  0  0
 21 22  2  0  0  0  0
 21 25  1  0  0  0  0
 21 26  1  0  0  0  0
 22 29  1  0  0  0  0
 23 25  2  0  0  0  0
 23 31  1  0  0  0  0
 24 30  1  0  0  0  0
 25 32  1  0  0  0  0
 26 27  2  0  0  0  0
 27 33  1  0  0  0  0
 27 35  1  0  0  0  0
 28 34  1  0  0  0  0
 28 57  1  0  0  0  0
 29 33  2  0  0  0  0
 29 58  1  0  0  0  0
 30 34  2  0  0  0  0
 30 59  1  0  0  0  0
 33 60  1  0  0  0  0
 34 61  1  0  0  0  0
 35 36  2  0  0  0  0
 35 63  1  0  0  0  0
 36 64  1  0  0  0  0
 37 65  1  0  0  0  0
 37 66  1  0  0  0  0
 37 67  1  0  0  0  0
M  END
> <PUBCHEM_COMPOUND_CID>
5330788

> <PUBCHEM_CONFORMER_RMSD>
1

> <PUBCHEM_CONFORMER_DIVERSEORDER>
1
21
15
12
13
18
5
24
28
16
30
19
3
11
8
10
9
22
2
26
6
20
4
27
29
7
23
17
25
14

> <PUBCHEM_MMFF94_PARTIAL_CHARGES>
38
1 -0.68
13 0.28
14 0.27
16 -0.15
18 -0.15
2 -0.57
20 0.14
23 0.09
24 -0.14
25 0.09
26 -0.15
28 -0.15
29 -0.15
3 -0.57
30 -0.15
31 0.54
32 0.54
33 -0.15
34 -0.15
35 -0.15
36 -0.3
37 0.26
4 -0.9
48 0.36
5 0.03
55 0.27
56 0.4
57 0.15
58 0.15
59 0.15
6 0.05
60 0.15
61 0.15
62 0.37
63 0.15
64 0.15
7 -0.49
8 0.27

> <PUBCHEM_EFFECTIVE_ROTOR_COUNT>
6.4

> <PUBCHEM_PHARMACOPHORE_FEATURES>
17
1 1 acceptor
1 1 donor
1 2 acceptor
1 3 acceptor
1 4 cation
1 4 donor
1 5 cation
1 5 donor
1 6 cation
1 7 donor
5 5 15 16 18 19 rings
5 6 26 27 35 36 rings
5 7 23 25 31 32 rings
6 15 16 21 22 23 25 rings
6 18 19 24 28 30 34 rings
6 21 22 26 27 29 33 rings
6 8 9 10 11 12 13 rings

> <PUBCHEM_HEAVY_ATOM_COUNT>
37

> <PUBCHEM_ATOM_DEF_STEREO_COUNT>
0

> <PUBCHEM_ATOM_UDEF_STEREO_COUNT>
0

> <PUBCHEM_BOND_DEF_STEREO_COUNT>
0

> <PUBCHEM_BOND_UDEF_STEREO_COUNT>
0

> <PUBCHEM_ISOTOPIC_ATOM_COUNT>
0

> <PUBCHEM_COMPONENT_COUNT>
1

> <PUBCHEM_CACTVS_TAUTO_COUNT>
12

> <PUBCHEM_CONFORMER_ID>
0051576400000001

> <PUBCHEM_MMFF94_ENERGY>
115.1334

> <PUBCHEM_FEATURE_SELFOVERLAP>
86.637

> <PUBCHEM_SHAPE_FINGERPRINT>
10190206 1 18411972581660019567
10454371 7 18343588425811131444
10556698 54 18198922318618332046
11007060 377 18411987996376649346
13165054 301 17917161511617849833
13726171 33 18200319814517415201
13757389 114 18271803570876579607
14394314 77 18409735023431341096
14512766 119 18334294271275244390
14790565 3 18338795620039064371
15198563 99 18126839636600878807
15274700 147 18264510475657986476
15289351 153 18408878548204117458
15685185 35 18334016120497673428
16126227 98 18410859832595234672
16993089 31 14188993627756517813
19053607 189 18339350869764600664
20691028 202 18334861611196691284
21133410 127 17970629576555190516
21133410 52 18126005099882732611
21298829 104 18333454236017842884
23191077 185 18189326893184182282
23569914 2 16446697633967428949
23729417 116 18194954370143097647
3918712 181 18408314498169843016
42767 28 18202006500252641480
44249763 50 17630875196899719810
44802255 64 17775007933679503558
5265222 85 18412263930428926880
563151 97 18336544923873952227
5776283 40 18412823607570186096
6036956 94 17973174112675924596
6058803 2 18119790448928781131
636775 72 18338234985901346352
6371009 1 18187929521242882444
6673363 416 18267869560973422406
99344 41 18409165494357629492
9961470 85 18050564338098198024

> <PUBCHEM_SHAPE_MULTIPOLES>
723.91
23.43
6.49
0.98
64.93
0.43
0.12
-25.38
7.11
-6.25
-0.9
0.91
0.07
-1.56

> <PUBCHEM_SHAPE_SELFOVERLAP>
1640.22

> <PUBCHEM_SHAPE_VOLUME>
381.1

> <PUBCHEM_COORDINATE_TYPE>
2
5
10

$$$$
