24859161
  -OEChem-10052115183D

 48 51  0     0  0  0  0  0  0999 V2000
   -7.9306   -0.1773    0.0363 F   0  0  0  0  0  0  0  0  0  0  0  0
   -6.7684   -1.6692   -1.0256 F   0  0  0  0  0  0  0  0  0  0  0  0
   -6.7390   -1.6170    1.1481 F   0  0  0  0  0  0  0  0  0  0  0  0
    7.0515   -2.8712    0.1646 O   0  0  0  0  0  0  0  0  0  0  0  0
    1.0278   -0.6567   -0.0028 O   0  0  0  0  0  0  0  0  0  0  0  0
    5.6623   -0.4360   -0.0328 N   0  0  0  0  0  0  0  0  0  0  0  0
    3.5291    0.5890   -0.0392 N   0  0  0  0  0  0  0  0  0  0  0  0
    1.4020    1.6514   -0.0468 N   0  0  0  0  0  0  0  0  0  0  0  0
   -0.7612    0.8544   -0.0211 N   0  0  0  0  0  0  0  0  0  0  0  0
   -4.0508   -1.7265    0.0437 N   0  0  0  0  0  0  0  0  0  0  0  0
    6.6042   -0.6645    1.0684 C   0  0  0  0  0  0  0  0  0  0  0  0
    5.1222   -1.6518   -0.6565 C   0  0  0  0  0  0  0  0  0  0  0  0
    7.6643   -1.6726    0.6387 C   0  0  0  0  0  0  0  0  0  0  0  0
    6.2615   -2.6067   -0.9945 C   0  0  0  0  0  0  0  0  0  0  0  0
    4.8746    0.7197   -0.0485 C   0  0  0  0  0  0  0  0  0  0  0  0
    5.5353    1.9373   -0.0733 C   0  0  0  0  0  0  0  0  0  0  0  0
   -3.1884    0.5232   -0.0022 C   0  0  0  0  0  0  0  0  0  0  0  0
    2.8142    1.7362   -0.0555 C   0  0  0  0  0  0  0  0  0  0  0  0
   -4.2578   -0.3963    0.0206 C   0  0  0  0  0  0  0  0  0  0  0  0
   -1.8820    0.0159   -0.0001 C   0  0  0  0  0  0  0  0  0  0  0  0
    4.7657    3.0953   -0.0894 C   0  0  0  0  0  0  0  0  0  0  0  0
   -5.5553    0.1082    0.0185 C   0  0  0  0  0  0  0  0  0  0  0  0
    3.3785    3.0015   -0.0804 C   0  0  0  0  0  0  0  0  0  0  0  0
   -3.4410    1.9053   -0.0262 C   0  0  0  0  0  0  0  0  0  0  0  0
   -5.8069    1.4822   -0.0053 C   0  0  0  0  0  0  0  0  0  0  0  0
   -1.6654   -1.3543    0.0238 C   0  0  0  0  0  0  0  0  0  0  0  0
   -4.7487    2.3822   -0.0277 C   0  0  0  0  0  0  0  0  0  0  0  0
    0.6057    0.4951   -0.0216 C   0  0  0  0  0  0  0  0  0  0  0  0
   -6.7288   -0.8217    0.0418 C   0  0  0  0  0  0  0  0  0  0  0  0
   -2.7747   -2.1753    0.0449 C   0  0  0  0  0  0  0  0  0  0  0  0
    6.0457   -1.0567    1.9273 H   0  0  0  0  0  0  0  0  0  0  0  0
    7.1019    0.2577    1.3866 H   0  0  0  0  0  0  0  0  0  0  0  0
    4.5744   -1.4146   -1.5763 H   0  0  0  0  0  0  0  0  0  0  0  0
    4.4291   -2.1330    0.0445 H   0  0  0  0  0  0  0  0  0  0  0  0
    8.2981   -1.9340    1.4920 H   0  0  0  0  0  0  0  0  0  0  0  0
    8.3134   -1.2606   -0.1434 H   0  0  0  0  0  0  0  0  0  0  0  0
    6.9019   -2.2003   -1.7868 H   0  0  0  0  0  0  0  0  0  0  0  0
    5.8571   -3.5592   -1.3510 H   0  0  0  0  0  0  0  0  0  0  0  0
    6.6176    2.0119   -0.0955 H   0  0  0  0  0  0  0  0  0  0  0  0
    5.2460    4.0689   -0.1125 H   0  0  0  0  0  0  0  0  0  0  0  0
    2.7732    3.9021   -0.0939 H   0  0  0  0  0  0  0  0  0  0  0  0
   -2.6544    2.6523   -0.0443 H   0  0  0  0  0  0  0  0  0  0  0  0
    0.9106    2.5416   -0.0601 H   0  0  0  0  0  0  0  0  0  0  0  0
   -0.9300    1.8530   -0.0385 H   0  0  0  0  0  0  0  0  0  0  0  0
   -6.8216    1.8702   -0.0069 H   0  0  0  0  0  0  0  0  0  0  0  0
   -0.7118   -1.8550    0.0277 H   0  0  0  0  0  0  0  0  0  0  0  0
   -4.9407    3.4507   -0.0462 H   0  0  0  0  0  0  0  0  0  0  0  0
   -2.6688   -3.2552    0.0640 H   0  0  0  0  0  0  0  0  0  0  0  0
  1 29  1  0  0  0  0
  2 29  1  0  0  0  0
  3 29  1  0  0  0  0
  4 13  1  0  0  0  0
  4 14  1  0  0  0  0
  5 28  2  0  0  0  0
  6 11  1  0  0  0  0
  6 12  1  0  0  0  0
  6 15  1  0  0  0  0
  7 15  1  0  0  0  0
  7 18  2  0  0  0  0
  8 18  1  0  0  0  0
  8 28  1  0  0  0  0
  8 43  1  0  0  0  0
  9 20  1  0  0  0  0
  9 28  1  0  0  0  0
  9 44  1  0  0  0  0
 10 19  2  0  0  0  0
 10 30  1  0  0  0  0
 11 13  1  0  0  0  0
 11 31  1  0  0  0  0
 11 32  1  0  0  0  0
 12 14  1  0  0  0  0
 12 33  1  0  0  0  0
 12 34  1  0  0  0  0
 13 35  1  0  0  0  0
 13 36  1  0  0  0  0
 14 37  1  0  0  0  0
 14 38  1  0  0  0  0
 15 16  2  0  0  0  0
 16 21  1  0  0  0  0
 16 39  1  0  0  0  0
 17 19  1  0  0  0  0
 17 20  2  0  0  0  0
 17 24  1  0  0  0  0
 18 23  1  0  0  0  0
 19 22  1  0  0  0  0
 20 26  1  0  0  0  0
 21 23  2  0  0  0  0
 21 40  1  0  0  0  0
 22 25  2  0  0  0  0
 22 29  1  0  0  0  0
 23 41  1  0  0  0  0
 24 27  2  0  0  0  0
 24 42  1  0  0  0  0
 25 27  1  0  0  0  0
 25 45  1  0  0  0  0
 26 30  2  0  0  0  0
 26 46  1  0  0  0  0
 27 47  1  0  0  0  0
 30 48  1  0  0  0  0
M  END
> <PUBCHEM_COMPOUND_CID>
24859161

> <PUBCHEM_CONFORMER_RMSD>
1

> <PUBCHEM_CONFORMER_DIVERSEORDER>
1
13
14
31
5
4
19
18
9
8
2
35
7
24
33
11
22
10
17
34
20
12
3
32
23
16
6
29
30
21
25
26
15
27
28

> <PUBCHEM_MMFF94_PARTIAL_CHARGES>
39
1 -0.34
10 -0.62
11 0.37
12 0.37
13 0.28
14 0.28
15 0.41
16 -0.15
18 0.43
19 0.31
2 -0.34
20 0.12
21 -0.15
22 -0.14
23 -0.15
24 -0.15
25 -0.15
26 -0.15
27 -0.15
28 0.69
29 1.16
3 -0.34
30 0.16
39 0.15
4 -0.56
40 0.15
41 0.15
42 0.15
43 0.37
44 0.37
45 0.15
46 0.15
47 0.15
48 0.15
5 -0.57
6 -0.84
7 -0.62
8 -0.55
9 -0.55

> <PUBCHEM_EFFECTIVE_ROTOR_COUNT>
7.2

> <PUBCHEM_PHARMACOPHORE_FEATURES>
10
1 10 acceptor
1 4 acceptor
1 5 acceptor
1 6 cation
1 8 donor
1 9 donor
6 10 17 19 20 26 30 rings
6 17 19 22 24 25 27 rings
6 4 6 11 12 13 14 rings
6 7 15 16 18 21 23 rings

> <PUBCHEM_HEAVY_ATOM_COUNT>
30

> <PUBCHEM_ATOM_DEF_STEREO_COUNT>
0

> <PUBCHEM_ATOM_UDEF_STEREO_COUNT>
0

> <PUBCHEM_BOND_DEF_STEREO_COUNT>
0

> <PUBCHEM_BOND_UDEF_STEREO_COUNT>
0

> <PUBCHEM_ISOTOPIC_ATOM_COUNT>
0

> <PUBCHEM_COMPONENT_COUNT>
1

> <PUBCHEM_CACTVS_TAUTO_COUNT>
11

> <PUBCHEM_CONFORMER_ID>
017B521900000001

> <PUBCHEM_MMFF94_ENERGY>
98.6355

> <PUBCHEM_FEATURE_SELFOVERLAP>
50.828

> <PUBCHEM_SHAPE_FINGERPRINT>
10411042 1 18266459812001400876
10580692 12 18411419531068047377
10595046 47 18266741474949662748
11297010 23 18195512702716181365
11456790 92 18059586793281717889
11719270 70 17989771085872282206
11991303 11 14201408204475553176
12107183 9 18268436724464295816
12166972 35 18335704970142243869
12592606 108 18410011005819281874
13073987 5 18341896311659957456
13533116 47 18342739650147570592
13782708 43 18261112971567754661
14251764 18 18409166628017726132
15183329 4 18411986870784162752
15419008 42 17841995490127095668
17844677 252 18410863156984356552
19611394 137 17970078936320209811
1979834 28 17489590022772813806
19958102 18 18333725832189802367
21130935 74 18343021107485248947
21267235 1 18335143094219809537
21279426 13 18409165472355181564
21315763 129 18411700954711262284
21315763 28 18410572894546301555
21315764 268 18409444825528838493
23559900 14 18341325652155467184
23569943 247 17532643543071805170
3004659 81 18334296457830023328
3103668 31 17897159113896160900
3383291 50 18410291415222812051
4073 2 17969787569601162912
4144715 1 18334584571929479056
4197921 191 18337397127116594276
45377200 153 14852187138460900473
5080951 261 15912747459011308829
5104073 3 18342179994254860752
559249 180 18410571756306063147
6441014 3 17119178629799383598
6695519 79 17476945900877863184
9831232 110 18338519625962863254
9962374 69 18340477967709030798
9965369 4 18411138017637403137
9996256 80 18411981386337740077

> <PUBCHEM_SHAPE_MULTIPOLES>
558.92
23.95
3.27
0.75
0.09
0.69
0.02
-10.49
1.32
4.2
-0.26
0.35
-0.25
0.19

> <PUBCHEM_SHAPE_SELFOVERLAP>
1224.639

> <PUBCHEM_SHAPE_VOLUME>
301.3

> <PUBCHEM_COORDINATE_TYPE>
2
5
10

$$$$
