49830368
  -OEChem-10052115173D

 51 55  0     0  0  0  0  0  0999 V2000
    6.3142    1.3254    0.4589 S   0  0  0  0  0  0  0  0  0  0  0  0
   -2.5724   -0.9363    0.2685 O   0  0  0  0  0  0  0  0  0  0  0  0
   -1.7260    1.2053   -0.1631 N   0  0  0  0  0  0  0  0  0  0  0  0
    7.1399   -1.1667    0.1014 N   0  0  0  0  0  0  0  0  0  0  0  0
    5.5366   -2.9065   -0.3845 N   0  0  0  0  0  0  0  0  0  0  0  0
    3.2710   -2.5334   -0.7318 N   0  0  0  0  0  0  0  0  0  0  0  0
   -4.0097    0.8578   -0.1603 N   0  0  0  0  0  0  0  0  0  0  0  0
    2.8176    3.1174   -0.3797 C   0  0  0  0  0  0  0  0  0  0  0  0
    3.8963    0.4794    0.1463 C   0  0  0  0  0  0  0  0  0  0  0  0
    4.0870    3.0077    0.4737 C   0  0  0  0  0  0  0  0  0  0  0  0
    1.9005    1.9288   -0.1724 C   0  0  0  0  0  0  0  0  0  0  0  0
    2.4365    0.6402    0.0750 C   0  0  0  0  0  0  0  0  0  0  0  0
    4.6480    1.6264    0.3469 C   0  0  0  0  0  0  0  0  0  0  0  0
    4.7444   -0.6789   -0.0107 C   0  0  0  0  0  0  0  0  0  0  0  0
    0.5130    2.1033   -0.2686 C   0  0  0  0  0  0  0  0  0  0  0  0
    1.5571   -0.4275    0.2870 C   0  0  0  0  0  0  0  0  0  0  0  0
    6.0830   -0.3336    0.1629 C   0  0  0  0  0  0  0  0  0  0  0  0
   -0.3453    1.0228   -0.0807 C   0  0  0  0  0  0  0  0  0  0  0  0
    0.1753   -0.2363    0.2049 C   0  0  0  0  0  0  0  0  0  0  0  0
    4.5119   -2.0296   -0.3085 C   0  0  0  0  0  0  0  0  0  0  0  0
    6.7746   -2.4281   -0.1723 C   0  0  0  0  0  0  0  0  0  0  0  0
   -2.7560    0.2486    0.0094 C   0  0  0  0  0  0  0  0  0  0  0  0
   -5.2882    0.2585   -0.0721 C   0  0  0  0  0  0  0  0  0  0  0  0
   -6.4347    1.0273   -0.2730 C   0  0  0  0  0  0  0  0  0  0  0  0
   -5.4023   -1.1016    0.2157 C   0  0  0  0  0  0  0  0  0  0  0  0
   -7.6951    0.4360   -0.1862 C   0  0  0  0  0  0  0  0  0  0  0  0
   -6.6626   -1.6928    0.3025 C   0  0  0  0  0  0  0  0  0  0  0  0
   -7.8090   -0.9241    0.1015 C   0  0  0  0  0  0  0  0  0  0  0  0
   -8.9209    1.2579   -0.4010 C   0  0  0  0  0  0  0  0  0  0  0  0
   -6.7850   -3.1472    0.6101 C   0  0  0  0  0  0  0  0  0  0  0  0
    2.3027    4.0523   -0.1292 H   0  0  0  0  0  0  0  0  0  0  0  0
    3.0810    3.1594   -1.4444 H   0  0  0  0  0  0  0  0  0  0  0  0
    4.8063    3.7720    0.1588 H   0  0  0  0  0  0  0  0  0  0  0  0
    3.8452    3.1937    1.5280 H   0  0  0  0  0  0  0  0  0  0  0  0
    0.1082    3.0900   -0.4833 H   0  0  0  0  0  0  0  0  0  0  0  0
    1.8893   -1.3839    0.6690 H   0  0  0  0  0  0  0  0  0  0  0  0
   -0.4251   -1.1109    0.4122 H   0  0  0  0  0  0  0  0  0  0  0  0
   -2.0298    2.1531   -0.3722 H   0  0  0  0  0  0  0  0  0  0  0  0
    7.5788   -3.1526   -0.2339 H   0  0  0  0  0  0  0  0  0  0  0  0
    3.2330   -3.5162   -0.9728 H   0  0  0  0  0  0  0  0  0  0  0  0
    2.6214   -1.9150   -1.1958 H   0  0  0  0  0  0  0  0  0  0  0  0
   -4.0088    1.8522   -0.3733 H   0  0  0  0  0  0  0  0  0  0  0  0
   -6.3468    2.0884   -0.4957 H   0  0  0  0  0  0  0  0  0  0  0  0
   -4.5570   -1.7545    0.3803 H   0  0  0  0  0  0  0  0  0  0  0  0
   -8.7924   -1.3834    0.1689 H   0  0  0  0  0  0  0  0  0  0  0  0
   -9.7287    0.6574   -0.8330 H   0  0  0  0  0  0  0  0  0  0  0  0
   -8.7279    2.0817   -1.0967 H   0  0  0  0  0  0  0  0  0  0  0  0
   -9.2644    1.6757    0.5505 H   0  0  0  0  0  0  0  0  0  0  0  0
   -7.7955   -3.4057    0.9443 H   0  0  0  0  0  0  0  0  0  0  0  0
   -6.0977   -3.4324    1.4138 H   0  0  0  0  0  0  0  0  0  0  0  0
   -6.5557   -3.7404   -0.2809 H   0  0  0  0  0  0  0  0  0  0  0  0
  1 13  1  0  0  0  0
  1 17  1  0  0  0  0
  2 22  2  0  0  0  0
  3 18  1  0  0  0  0
  3 22  1  0  0  0  0
  3 38  1  0  0  0  0
  4 17  2  0  0  0  0
  4 21  1  0  0  0  0
  5 20  1  0  0  0  0
  5 21  2  0  0  0  0
  6 20  1  0  0  0  0
  6 40  1  0  0  0  0
  6 41  1  0  0  0  0
  7 22  1  0  0  0  0
  7 23  1  0  0  0  0
  7 42  1  0  0  0  0
  8 10  1  0  0  0  0
  8 11  1  0  0  0  0
  8 31  1  0  0  0  0
  8 32  1  0  0  0  0
  9 12  1  0  0  0  0
  9 13  2  0  0  0  0
  9 14  1  0  0  0  0
 10 13  1  0  0  0  0
 10 33  1  0  0  0  0
 10 34  1  0  0  0  0
 11 12  2  0  0  0  0
 11 15  1  0  0  0  0
 12 16  1  0  0  0  0
 14 17  1  0  0  0  0
 14 20  2  0  0  0  0
 15 18  2  0  0  0  0
 15 35  1  0  0  0  0
 16 19  2  0  0  0  0
 16 36  1  0  0  0  0
 18 19  1  0  0  0  0
 19 37  1  0  0  0  0
 21 39  1  0  0  0  0
 23 24  2  0  0  0  0
 23 25  1  0  0  0  0
 24 26  1  0  0  0  0
 24 43  1  0  0  0  0
 25 27  2  0  0  0  0
 25 44  1  0  0  0  0
 26 28  2  0  0  0  0
 26 29  1  0  0  0  0
 27 28  1  0  0  0  0
 27 30  1  0  0  0  0
 28 45  1  0  0  0  0
 29 46  1  0  0  0  0
 29 47  1  0  0  0  0
 29 48  1  0  0  0  0
 30 49  1  0  0  0  0
 30 50  1  0  0  0  0
 30 51  1  0  0  0  0
M  END
> <PUBCHEM_COMPOUND_CID>
49830368

> <PUBCHEM_CONFORMER_RMSD>
0.8

> <PUBCHEM_CONFORMER_DIVERSEORDER>
1
8
7
13
6
2
9
11
4
3
14
10
5
16
15
12

> <PUBCHEM_MMFF94_PARTIAL_CHARGES>
40
1 -0.08
10 0.18
11 -0.14
12 0.05
13 -0.14
15 -0.15
16 -0.15
17 0.3
18 0.12
19 -0.15
2 -0.57
20 0.41
21 0.47
22 0.69
23 0.12
24 -0.15
25 -0.15
26 -0.14
27 -0.14
28 -0.15
29 0.14
3 -0.55
30 0.14
35 0.15
36 0.15
37 0.15
38 0.37
39 0.15
4 -0.57
40 0.4
41 0.4
42 0.37
43 0.15
44 0.15
45 0.15
5 -0.62
6 -0.9
7 -0.55
8 0.14
9 -0.05

> <PUBCHEM_EFFECTIVE_ROTOR_COUNT>
4.4

> <PUBCHEM_PHARMACOPHORE_FEATURES>
12
1 2 acceptor
1 3 donor
1 4 acceptor
1 6 cation
1 6 donor
1 7 donor
3 4 5 21 cation
5 1 9 13 14 17 rings
6 11 12 15 16 18 19 rings
6 23 24 25 26 27 28 rings
6 4 5 14 17 20 21 rings
6 8 9 10 11 12 13 rings

> <PUBCHEM_HEAVY_ATOM_COUNT>
30

> <PUBCHEM_ATOM_DEF_STEREO_COUNT>
0

> <PUBCHEM_ATOM_UDEF_STEREO_COUNT>
0

> <PUBCHEM_BOND_DEF_STEREO_COUNT>
0

> <PUBCHEM_BOND_UDEF_STEREO_COUNT>
0

> <PUBCHEM_ISOTOPIC_ATOM_COUNT>
0

> <PUBCHEM_COMPONENT_COUNT>
1

> <PUBCHEM_CACTVS_TAUTO_COUNT>
12

> <PUBCHEM_CONFORMER_ID>
02F859E000000001

> <PUBCHEM_MMFF94_ENERGY>
100.49

> <PUBCHEM_FEATURE_SELFOVERLAP>
61.109

> <PUBCHEM_SHAPE_FINGERPRINT>
10 15 11599997752131791420
10316853 100 18408325501707269842
10411042 1 18195809571287878102
10580692 12 18410292506682055273
11315181 36 17988926691824254249
11409948 8 18270949187029878002
117089 54 17770512941377973798
11719270 70 18131350808566119999
11991303 11 13768213830646776777
12166972 35 18412828005548462913
12522641 24 17632569466528566640
13383665 225 17894927230109324572
13533116 47 18272368693850882624
13685833 64 18410575076110132560
13782708 43 18113335319145376971
13811026 1 18408884049345229195
13885169 127 18409446956623433517
13989917 61 18412267259382795046
14170010 4 18411698790416938648
14400156 413 18270950340768209776
14933364 13 18408322203219514889
15183329 4 18334575724887446265
15352257 5 18408605868434523607
15361156 5 17968386740078866015
15419008 47 17749383746158273853
15419008 91 18188188979996363309
15510794 2 18334577954635050475
19841028 212 18336262337244563010
20028762 73 18343303643604367758
21049683 271 18410015434448074716
21130935 74 18340770442107386859
21197605 99 18341897441421011590
21267235 1 18341615880855385828
21315763 28 18412261753550654345
21792934 111 18271796904686032752
22224240 67 12031783660899425077
23559900 14 18338792425416898009
23569943 247 18046909282116205410
249057 25 17988937660364204785
255183 451 18199759042656102278
3004659 81 18187363233456222049
3103668 31 17823410497103135525
335352 9 18409731759830143980
3633792 109 18412262797127467921
4073 2 18041282187842058299
439807 62 18261956250221939366
46194498 28 17895190030710292924
465052 167 18272371958426421662
58083652 198 16702297988741449937
6441014 3 17332811544084240566
6691757 9 15841548609493373767
9831232 110 18408045095523100262
99344 41 18413106156810998447

> <PUBCHEM_SHAPE_MULTIPOLES>
590.46
26.14
3.26
0.69
39.66
0.77
0.01
9.23
0.28
-3.51
-0.14
-0.04
0.02
1.76

> <PUBCHEM_SHAPE_SELFOVERLAP>
1304.688

> <PUBCHEM_SHAPE_VOLUME>
318.3

> <PUBCHEM_COORDINATE_TYPE>
2
5
10

$$$$
