49830926
  -OEChem-10052115193D

 36 38  0     0  0  0  0  0  0999 V2000
    7.6277    1.7913    0.0058 Br  0  0  0  0  0  0  0  0  0  0  0  0
    6.4985   -1.1849    0.0036 S   0  0  0  0  0  0  0  0  0  0  0  0
   -0.6923    0.9617   -0.0035 N   0  0  0  0  0  0  0  0  0  0  0  0
   -6.1709   -0.2461    0.0033 N   0  0  0  0  0  0  0  0  0  0  0  0
    1.8002   -1.4622   -0.0005 N   0  0  0  0  0  0  0  0  0  0  0  0
    0.4861   -1.1803   -0.0006 N   0  0  0  0  0  0  0  0  0  0  0  0
   -2.0693    0.6582   -0.0010 C   0  0  0  0  0  0  0  0  0  0  0  0
   -4.7937    0.0577    0.0036 C   0  0  0  0  0  0  0  0  0  0  0  0
    2.6007   -0.3579   -0.0034 C   0  0  0  0  0  0  0  0  0  0  0  0
    0.4625    0.1551   -0.0040 C   0  0  0  0  0  0  0  0  0  0  0  0
    1.7513    0.7215   -0.0062 C   0  0  0  0  0  0  0  0  0  0  0  0
   -3.0106    1.6877   -0.0005 C   0  0  0  0  0  0  0  0  0  0  0  0
   -2.4905   -0.6716    0.0006 C   0  0  0  0  0  0  0  0  0  0  0  0
   -4.3726    1.3875    0.0018 C   0  0  0  0  0  0  0  0  0  0  0  0
   -3.8525   -0.9720    0.0030 C   0  0  0  0  0  0  0  0  0  0  0  0
    4.0686   -0.3512   -0.0013 C   0  0  0  0  0  0  0  0  0  0  0  0
   -7.1567    0.8164    0.0011 C   0  0  0  0  0  0  0  0  0  0  0  0
   -6.6186   -1.6246   -0.0025 C   0  0  0  0  0  0  0  0  0  0  0  0
    4.8865    0.8155   -0.0017 C   0  0  0  0  0  0  0  0  0  0  0  0
    4.8169   -1.5078    0.0013 C   0  0  0  0  0  0  0  0  0  0  0  0
    6.2289    0.5061    0.0010 C   0  0  0  0  0  0  0  0  0  0  0  0
   -0.5339    1.9685   -0.0051 H   0  0  0  0  0  0  0  0  0  0  0  0
    2.0176    1.7694   -0.0083 H   0  0  0  0  0  0  0  0  0  0  0  0
   -2.6967    2.7285   -0.0020 H   0  0  0  0  0  0  0  0  0  0  0  0
   -1.8149   -1.5159    0.0000 H   0  0  0  0  0  0  0  0  0  0  0  0
   -5.0649    2.2236    0.0017 H   0  0  0  0  0  0  0  0  0  0  0  0
   -4.1302   -2.0214    0.0040 H   0  0  0  0  0  0  0  0  0  0  0  0
    2.0760   -2.4364    0.0023 H   0  0  0  0  0  0  0  0  0  0  0  0
   -7.0647    1.4439    0.8947 H   0  0  0  0  0  0  0  0  0  0  0  0
   -7.0660    1.4388   -0.8961 H   0  0  0  0  0  0  0  0  0  0  0  0
   -8.1785    0.4207    0.0033 H   0  0  0  0  0  0  0  0  0  0  0  0
   -6.2725   -2.1495   -0.8999 H   0  0  0  0  0  0  0  0  0  0  0  0
   -7.7121   -1.6952   -0.0031 H   0  0  0  0  0  0  0  0  0  0  0  0
   -6.2733   -2.1569    0.8908 H   0  0  0  0  0  0  0  0  0  0  0  0
    4.5155    1.8334   -0.0032 H   0  0  0  0  0  0  0  0  0  0  0  0
    4.4750   -2.5338    0.0021 H   0  0  0  0  0  0  0  0  0  0  0  0
  1 21  1  0  0  0  0
  2 20  1  0  0  0  0
  2 21  1  0  0  0  0
  3  7  1  0  0  0  0
  3 10  1  0  0  0  0
  3 22  1  0  0  0  0
  4  8  1  0  0  0  0
  4 17  1  0  0  0  0
  4 18  1  0  0  0  0
  5  6  1  0  0  0  0
  5  9  1  0  0  0  0
  5 28  1  0  0  0  0
  6 10  2  0  0  0  0
  7 12  2  0  0  0  0
  7 13  1  0  0  0  0
  8 14  2  0  0  0  0
  8 15  1  0  0  0  0
  9 11  2  0  0  0  0
  9 16  1  0  0  0  0
 10 11  1  0  0  0  0
 11 23  1  0  0  0  0
 12 14  1  0  0  0  0
 12 24  1  0  0  0  0
 13 15  2  0  0  0  0
 13 25  1  0  0  0  0
 14 26  1  0  0  0  0
 15 27  1  0  0  0  0
 16 19  1  0  0  0  0
 16 20  2  0  0  0  0
 17 29  1  0  0  0  0
 17 30  1  0  0  0  0
 17 31  1  0  0  0  0
 18 32  1  0  0  0  0
 18 33  1  0  0  0  0
 18 34  1  0  0  0  0
 19 21  2  0  0  0  0
 19 35  1  0  0  0  0
 20 36  1  0  0  0  0
M  END
> <PUBCHEM_COMPOUND_CID>
49830926

> <PUBCHEM_CONFORMER_RMSD>
0.6

> <PUBCHEM_CONFORMER_DIVERSEORDER>
1
61
62
16
6
9
13
23
42
5
25
27
12
56
30
53
39
65
2
29
8
31
3
7
44
28
10
18
55
40
38
19
45
36
49
15
60
54
64
17
37
20
4
58
47
21
32
34
22
24
51
66
35
26
11
33
41
59
52
63
57
48
67
14
43
50
46

> <PUBCHEM_MMFF94_PARTIAL_CHARGES>
29
1 -0.06
10 0.37
11 -0.15
12 -0.15
13 -0.15
14 -0.15
15 -0.15
17 0.37
18 0.37
19 -0.15
2 -0.08
20 -0.11
21 0.1
22 0.4
23 0.15
24 0.15
25 0.15
26 0.15
27 0.15
28 0.27
3 -0.58
35 0.15
36 0.15
4 -0.84
5 0.3
6 -0.71
7 0.1
8 0.1
9 -0.15

> <PUBCHEM_EFFECTIVE_ROTOR_COUNT>
4

> <PUBCHEM_PHARMACOPHORE_FEATURES>
8
1 1 hydrophobe
1 3 donor
1 4 cation
1 5 donor
3 3 6 10 cation
5 2 16 19 20 21 rings
5 5 6 9 10 11 rings
6 7 8 12 13 14 15 rings

> <PUBCHEM_HEAVY_ATOM_COUNT>
21

> <PUBCHEM_ATOM_DEF_STEREO_COUNT>
0

> <PUBCHEM_ATOM_UDEF_STEREO_COUNT>
0

> <PUBCHEM_BOND_DEF_STEREO_COUNT>
0

> <PUBCHEM_BOND_UDEF_STEREO_COUNT>
0

> <PUBCHEM_ISOTOPIC_ATOM_COUNT>
0

> <PUBCHEM_COMPONENT_COUNT>
1

> <PUBCHEM_CACTVS_TAUTO_COUNT>
5

> <PUBCHEM_CONFORMER_ID>
02F85C0E00000001

> <PUBCHEM_MMFF94_ENERGY>
57.9824

> <PUBCHEM_FEATURE_SELFOVERLAP>
40.596

> <PUBCHEM_SHAPE_FINGERPRINT>
10 15 18187080689897837568
10299344 5 18343866614715471219
10595046 47 18410575059346981944
10968037 39 18409448094551922455
11315181 36 18272091604652758337
11524674 6 16272206410086457303
11638347 137 16732695044369491728
11719270 70 18272647909901928174
11724838 91 18261109708220882348
12091667 2 17530685399357945753
12107183 9 17472696927790016832
12166972 35 18408325496948234716
12236239 1 18408041797008886669
12516196 113 18343301470092050385
13073987 5 18410573946971648728
13288520 33 18411981356668575429
13533116 47 16950554429706339770
13899415 154 17346881165581646352
14123256 10 18412545427186500316
1420 363 18411703175008673199
14251732 16 18410292527439044744
14251764 18 18407758157801188480
14251764 46 18410572881355412099
14461889 52 18335419114947030386
14849402 71 18272091664297783648
14933364 13 18413389830567994704
15716309 27 18272368663680265559
17093844 174 18113337510359348401
17844677 252 18340493279188501520
18006028 8 17989203742388771721
18335252 98 18411985788241667490
18681886 176 18410569625802110377
19489759 90 14634867535627791109
200 152 18273494559555800561
20157964 124 18409731755920220270
20281389 69 18259702285760554724
21049683 271 18342176721258185505
21130935 74 18341896255609039994
21150785 3 17775568667445071020
21267235 1 18410017641490798803
21315763 28 18409729539511347760
21521721 280 18059576923056428874
220451 1 15626221308217184804
22224240 67 17894909650738751890
22896161 15 18410855490235130894
23035841 295 18410855447312098163
23402539 116 17530683186611128981
23522609 53 18197808602837868945
23536379 177 18410293584322720618
23559900 14 18339072796223042705
335352 9 18412539913292615309
34797466 226 17632303393436584108
350125 39 18412543223478199121
3545911 37 18411136918104390319
4073 2 18114186371468795890
4214541 1 18410856516848742437
4325135 7 18411419527258545988
4340502 62 16587739837773102746
4463277 17 18411699880837309413
5104073 3 18338517421974279386
5486654 2 18201721769073203502
5758199 1 18409169917703926472
59682541 35 18338517550839102744
59755656 520 17312819394722810059
67856867 119 18261396718746312773
8209 1 18410573980856496860

> <PUBCHEM_SHAPE_MULTIPOLES>
422.04
22.07
1.74
0.61
2
0.04
0
2.1
0.03
0.67
0
0.1
0.01
0

> <PUBCHEM_SHAPE_SELFOVERLAP>
882.641

> <PUBCHEM_SHAPE_VOLUME>
245.3

> <PUBCHEM_COORDINATE_TYPE>
2
5
10

$$$$
