11588815
  -OEChem-10062122003D

 48 51  0     0  0  0  0  0  0999 V2000
    2.8233   -0.0046    1.2354 O   0  0  0  0  0  0  0  0  0  0  0  0
   -6.3495    1.2913    0.1053 N   0  0  0  0  0  0  0  0  0  0  0  0
   -5.4686    2.2554   -0.2114 N   0  0  0  0  0  0  0  0  0  0  0  0
   -5.5170   -2.2614    0.6237 N   0  0  0  0  0  0  0  0  0  0  0  0
   -3.1105    2.1777   -0.5707 N   0  0  0  0  0  0  0  0  0  0  0  0
    1.9490   -0.4511   -0.8920 N   0  0  0  0  0  0  0  0  0  0  0  0
    4.2259   -0.1644   -0.6292 N   0  0  0  0  0  0  0  0  0  0  0  0
   -4.4363    0.2232   -0.0033 C   0  0  0  0  0  0  0  0  0  0  0  0
   -3.5844   -0.8836    0.0642 C   0  0  0  0  0  0  0  0  0  0  0  0
   -5.7929    0.0502    0.2442 C   0  0  0  0  0  0  0  0  0  0  0  0
   -2.1701   -0.7723   -0.1803 C   0  0  0  0  0  0  0  0  0  0  0  0
   -4.3061    1.6017   -0.2766 C   0  0  0  0  0  0  0  0  0  0  0  0
   -4.1943   -2.0914    0.3823 C   0  0  0  0  0  0  0  0  0  0  0  0
   -6.3376   -1.1857    0.5572 C   0  0  0  0  0  0  0  0  0  0  0  0
   -1.6636   -0.9331   -1.4739 C   0  0  0  0  0  0  0  0  0  0  0  0
   -1.2915   -0.5034    0.8742 C   0  0  0  0  0  0  0  0  0  0  0  0
   -7.7439    1.6352    0.2625 C   0  0  0  0  0  0  0  0  0  0  0  0
    0.5783   -0.5581   -0.6548 C   0  0  0  0  0  0  0  0  0  0  0  0
   -0.2931   -0.8264   -1.7106 C   0  0  0  0  0  0  0  0  0  0  0  0
    0.0790   -0.3967    0.6376 C   0  0  0  0  0  0  0  0  0  0  0  0
    5.5069    0.0645   -0.0738 C   0  0  0  0  0  0  0  0  0  0  0  0
    2.9881   -0.1866    0.0333 C   0  0  0  0  0  0  0  0  0  0  0  0
    7.8807    0.2726   -0.3519 C   0  0  0  0  0  0  0  0  0  0  0  0
    6.6182    0.0467   -0.9005 C   0  0  0  0  0  0  0  0  0  0  0  0
    5.6227    0.3018    1.2861 C   0  0  0  0  0  0  0  0  0  0  0  0
    8.0141    0.5130    1.0157 C   0  0  0  0  0  0  0  0  0  0  0  0
    6.8852    0.5278    1.8346 C   0  0  0  0  0  0  0  0  0  0  0  0
    9.0880    0.2576   -1.2276 C   0  0  0  0  0  0  0  0  0  0  0  0
   -3.6120   -3.0066    0.4576 H   0  0  0  0  0  0  0  0  0  0  0  0
   -7.3883   -1.3501    0.7550 H   0  0  0  0  0  0  0  0  0  0  0  0
   -2.3283   -1.1421   -2.3091 H   0  0  0  0  0  0  0  0  0  0  0  0
   -1.6646   -0.3742    1.8879 H   0  0  0  0  0  0  0  0  0  0  0  0
   -8.0048    1.5275    1.3182 H   0  0  0  0  0  0  0  0  0  0  0  0
   -7.9053    2.6671   -0.0601 H   0  0  0  0  0  0  0  0  0  0  0  0
   -8.3414    0.9595   -0.3545 H   0  0  0  0  0  0  0  0  0  0  0  0
    0.0821   -0.9543   -2.7229 H   0  0  0  0  0  0  0  0  0  0  0  0
    0.6864   -0.1873    1.5065 H   0  0  0  0  0  0  0  0  0  0  0  0
   -2.2289    1.6819   -0.6195 H   0  0  0  0  0  0  0  0  0  0  0  0
   -3.0412    3.1724   -0.7634 H   0  0  0  0  0  0  0  0  0  0  0  0
    2.2364   -0.5810   -1.8588 H   0  0  0  0  0  0  0  0  0  0  0  0
    4.2087   -0.3324   -1.6320 H   0  0  0  0  0  0  0  0  0  0  0  0
    6.5125   -0.1390   -1.9664 H   0  0  0  0  0  0  0  0  0  0  0  0
    4.8020    0.3298    1.9868 H   0  0  0  0  0  0  0  0  0  0  0  0
    8.9919    0.6923    1.4548 H   0  0  0  0  0  0  0  0  0  0  0  0
    6.9905    0.7157    2.8993 H   0  0  0  0  0  0  0  0  0  0  0  0
    8.9655   -0.4490   -2.0556 H   0  0  0  0  0  0  0  0  0  0  0  0
    9.2651    1.2557   -1.6403 H   0  0  0  0  0  0  0  0  0  0  0  0
    9.9781   -0.0540   -0.6702 H   0  0  0  0  0  0  0  0  0  0  0  0
  1 22  2  0  0  0  0
  2  3  1  0  0  0  0
  2 10  1  0  0  0  0
  2 17  1  0  0  0  0
  3 12  2  0  0  0  0
  4 13  1  0  0  0  0
  4 14  2  0  0  0  0
  5 12  1  0  0  0  0
  5 38  1  0  0  0  0
  5 39  1  0  0  0  0
  6 18  1  0  0  0  0
  6 22  1  0  0  0  0
  6 40  1  0  0  0  0
  7 21  1  0  0  0  0
  7 22  1  0  0  0  0
  7 41  1  0  0  0  0
  8  9  1  0  0  0  0
  8 10  2  0  0  0  0
  8 12  1  0  0  0  0
  9 11  1  0  0  0  0
  9 13  2  0  0  0  0
 10 14  1  0  0  0  0
 11 15  2  0  0  0  0
 11 16  1  0  0  0  0
 13 29  1  0  0  0  0
 14 30  1  0  0  0  0
 15 19  1  0  0  0  0
 15 31  1  0  0  0  0
 16 20  2  0  0  0  0
 16 32  1  0  0  0  0
 17 33  1  0  0  0  0
 17 34  1  0  0  0  0
 17 35  1  0  0  0  0
 18 19  2  0  0  0  0
 18 20  1  0  0  0  0
 19 36  1  0  0  0  0
 20 37  1  0  0  0  0
 21 24  1  0  0  0  0
 21 25  2  0  0  0  0
 23 24  2  0  0  0  0
 23 26  1  0  0  0  0
 23 28  1  0  0  0  0
 24 42  1  0  0  0  0
 25 27  1  0  0  0  0
 25 43  1  0  0  0  0
 26 27  2  0  0  0  0
 26 44  1  0  0  0  0
 27 45  1  0  0  0  0
 28 46  1  0  0  0  0
 28 47  1  0  0  0  0
 28 48  1  0  0  0  0
M  END
> <PUBCHEM_COMPOUND_CID>
11588815

> <PUBCHEM_CONFORMER_RMSD>
0.8

> <PUBCHEM_CONFORMER_DIVERSEORDER>
1
12
7
18
11
15
13
2
17
19
4
10
9
14
5
16
3
8
6

> <PUBCHEM_MMFF94_PARTIAL_CHARGES>
39
1 -0.57
10 -0.15
12 0.37
13 0.16
14 0.16
15 -0.15
16 -0.15
17 0.26
18 0.12
19 -0.15
2 0.31
20 -0.15
21 0.12
22 0.69
23 -0.14
24 -0.15
25 -0.15
26 -0.15
27 -0.15
28 0.14
29 0.15
3 -0.71
30 0.15
31 0.15
32 0.15
36 0.15
37 0.15
38 0.4
39 0.4
4 -0.62
40 0.37
41 0.37
42 0.15
43 0.15
44 0.15
45 0.15
5 -0.88
6 -0.55
7 -0.55

> <PUBCHEM_EFFECTIVE_ROTOR_COUNT>
5

> <PUBCHEM_PHARMACOPHORE_FEATURES>
10
1 1 acceptor
1 4 acceptor
1 5 donor
1 6 donor
1 7 donor
3 3 5 12 cation
5 2 3 8 10 12 rings
6 11 15 16 18 19 20 rings
6 21 23 24 25 26 27 rings
6 4 8 9 10 13 14 rings

> <PUBCHEM_HEAVY_ATOM_COUNT>
28

> <PUBCHEM_ATOM_DEF_STEREO_COUNT>
0

> <PUBCHEM_ATOM_UDEF_STEREO_COUNT>
0

> <PUBCHEM_BOND_DEF_STEREO_COUNT>
0

> <PUBCHEM_BOND_UDEF_STEREO_COUNT>
0

> <PUBCHEM_ISOTOPIC_ATOM_COUNT>
0

> <PUBCHEM_COMPONENT_COUNT>
1

> <PUBCHEM_CACTVS_TAUTO_COUNT>
12

> <PUBCHEM_CONFORMER_ID>
00B0D4CF00000001

> <PUBCHEM_MMFF94_ENERGY>
86.8791

> <PUBCHEM_FEATURE_SELFOVERLAP>
50.892

> <PUBCHEM_SHAPE_FINGERPRINT>
10 15 18343018886960964831
10299344 5 17458344152583891642
10319926 262 18337383941439615971
10411042 1 17976263753915553675
10554248 39 15410897397058413428
106641 1 16225774012465027369
11315181 36 17676206901186295107
12089408 11 17894630371033576722
12104220 1 16515687749529761317
12236239 1 17385725803099368867
125118 31 18342739646185244128
12838862 33 16558740201553117698
13403585 85 18410855464971729293
13668630 136 10953455215843957394
13911987 19 16774075142705122847
14028597 1 17313096402854320560
14251764 18 17313384543788442442
14849402 71 17459197425094569316
14856354 85 18187085100249358823
14933364 13 18411700989429345764
15183329 4 16805600391631088058
15328684 2 17677036950808816408
15419008 47 18131910460275295960
15716309 27 16298100982445802334
1577012 14 17748824116440710218
15849732 13 18060138760681970076
15927050 60 18202559601324788334
16989713 51 17844806082804157807
17780758 139 17603587448185237027
18335252 114 16056878036065482672
21033648 29 17916851504323571250
21130935 74 18114176424483028018
21150785 3 12895069622131344980
21792961 116 17775291526327693382
23522609 53 17096107821830353484
23559900 14 18267883687659312871
23576562 1 17202745121055286893
249057 3 16702302382688074070
2838139 119 15267063661756100714
3663271 9 17967808341180952258
4073 2 18040723562647125154
4093350 32 18339920425505142042
4339292 15 17916861452407715727
437795 83 16343428302262431409
44280117 145 17845366812448728087
504843 32 16415190234540001830
5758199 1 17458063772734216506
58083652 198 16226045643133746109
58260988 114 15141542367201360795
59521660 218 16773527560192270870
6081469 158 17704079469975324876
636775 72 18201158755218454761
6441014 3 16086466086821445955
6669772 16 16916797257432179718
6691757 9 18114187450075260547
9953998 17 18260548922778049169
9962374 69 14563100298617145822

> <PUBCHEM_SHAPE_MULTIPOLES>
540.47
26.81
1.67
1.3
35.58
0.31
0.02
7.76
2.45
-4.61
-0.03
1.91
-0.11
1.3

> <PUBCHEM_SHAPE_SELFOVERLAP>
1196.867

> <PUBCHEM_SHAPE_VOLUME>
290.9

> <PUBCHEM_COORDINATE_TYPE>
2
5
10

$$$$
