24905327
  -OEChem-10052115143D

 45 48  0     0  0  0  0  0  0999 V2000
   -5.6511   -2.2667   -0.4389 F   0  0  0  0  0  0  0  0  0  0  0  0
   -4.5168   -1.8034    2.0247 O   0  0  0  0  0  0  0  0  0  0  0  0
    1.4331    0.3656   -0.0428 N   0  0  0  0  0  0  0  0  0  0  0  0
    0.4456   -0.5450   -0.1284 N   0  0  0  0  0  0  0  0  0  0  0  0
    1.7318    2.7638    0.1059 N   0  0  0  0  0  0  0  0  0  0  0  0
   -0.4047    3.9408    0.1024 N   0  0  0  0  0  0  0  0  0  0  0  0
   -2.5013    2.8078   -0.0320 N   0  0  0  0  0  0  0  0  0  0  0  0
    2.8847   -0.0996   -0.0210 C   0  0  0  0  0  0  0  0  0  0  0  0
    3.2330   -0.7829   -1.3544 C   0  0  0  0  0  0  0  0  0  0  0  0
    3.1668   -0.9562    1.2298 C   0  0  0  0  0  0  0  0  0  0  0  0
    4.6747   -1.2783   -1.4749 C   0  0  0  0  0  0  0  0  0  0  0  0
    4.6582   -1.1026    1.5255 C   0  0  0  0  0  0  0  0  0  0  0  0
    4.9424   -2.5237   -0.6366 C   0  0  0  0  0  0  0  0  0  0  0  0
    5.3529   -2.2552    0.8075 C   0  0  0  0  0  0  0  0  0  0  0  0
    0.9851    1.6518    0.0166 C   0  0  0  0  0  0  0  0  0  0  0  0
   -0.3959    1.5777   -0.0340 C   0  0  0  0  0  0  0  0  0  0  0  0
   -0.6657    0.1994   -0.1226 C   0  0  0  0  0  0  0  0  0  0  0  0
   -1.0956    2.7790    0.0122 C   0  0  0  0  0  0  0  0  0  0  0  0
   -1.9555   -0.4386   -0.2029 C   0  0  0  0  0  0  0  0  0  0  0  0
    0.9468    3.8621    0.1431 C   0  0  0  0  0  0  0  0  0  0  0  0
   -2.6202   -0.8166    0.9637 C   0  0  0  0  0  0  0  0  0  0  0  0
   -2.5394   -0.6778   -1.4470 C   0  0  0  0  0  0  0  0  0  0  0  0
   -3.8687   -1.4336    0.8863 C   0  0  0  0  0  0  0  0  0  0  0  0
   -3.7878   -1.2948   -1.5244 C   0  0  0  0  0  0  0  0  0  0  0  0
   -4.4525   -1.6728   -0.3578 C   0  0  0  0  0  0  0  0  0  0  0  0
    3.4597    0.8325    0.0527 H   0  0  0  0  0  0  0  0  0  0  0  0
    3.0513   -0.0638   -2.1646 H   0  0  0  0  0  0  0  0  0  0  0  0
    2.5465   -1.6185   -1.5432 H   0  0  0  0  0  0  0  0  0  0  0  0
    2.6816   -1.9370    1.1559 H   0  0  0  0  0  0  0  0  0  0  0  0
    2.7074   -0.4556    2.0930 H   0  0  0  0  0  0  0  0  0  0  0  0
    5.3871   -0.4788   -1.2420 H   0  0  0  0  0  0  0  0  0  0  0  0
    4.8390   -1.5434   -2.5273 H   0  0  0  0  0  0  0  0  0  0  0  0
    4.7887   -1.2592    2.6040 H   0  0  0  0  0  0  0  0  0  0  0  0
    5.1769   -0.1628    1.2995 H   0  0  0  0  0  0  0  0  0  0  0  0
    5.7491   -3.0995   -1.1082 H   0  0  0  0  0  0  0  0  0  0  0  0
    4.0636   -3.1804   -0.6517 H   0  0  0  0  0  0  0  0  0  0  0  0
    5.1952   -3.1784    1.3800 H   0  0  0  0  0  0  0  0  0  0  0  0
    6.4343   -2.0697    0.8415 H   0  0  0  0  0  0  0  0  0  0  0  0
    1.4684    4.8104    0.2153 H   0  0  0  0  0  0  0  0  0  0  0  0
   -2.1675   -0.6309    1.9357 H   0  0  0  0  0  0  0  0  0  0  0  0
   -2.0344   -0.3888   -2.3657 H   0  0  0  0  0  0  0  0  0  0  0  0
   -3.0428    1.9588   -0.0996 H   0  0  0  0  0  0  0  0  0  0  0  0
   -2.9705    3.7028    0.0038 H   0  0  0  0  0  0  0  0  0  0  0  0
   -4.2426   -1.4814   -2.4928 H   0  0  0  0  0  0  0  0  0  0  0  0
   -3.9695   -1.5628    2.7919 H   0  0  0  0  0  0  0  0  0  0  0  0
  1 25  1  0  0  0  0
  2 23  1  0  0  0  0
  2 45  1  0  0  0  0
  3  4  1  0  0  0  0
  3  8  1  0  0  0  0
  3 15  1  0  0  0  0
  4 17  2  0  0  0  0
  5 15  2  0  0  0  0
  5 20  1  0  0  0  0
  6 18  1  0  0  0  0
  6 20  2  0  0  0  0
  7 18  1  0  0  0  0
  7 42  1  0  0  0  0
  7 43  1  0  0  0  0
  8  9  1  0  0  0  0
  8 10  1  0  0  0  0
  8 26  1  0  0  0  0
  9 11  1  0  0  0  0
  9 27  1  0  0  0  0
  9 28  1  0  0  0  0
 10 12  1  0  0  0  0
 10 29  1  0  0  0  0
 10 30  1  0  0  0  0
 11 13  1  0  0  0  0
 11 31  1  0  0  0  0
 11 32  1  0  0  0  0
 12 14  1  0  0  0  0
 12 33  1  0  0  0  0
 12 34  1  0  0  0  0
 13 14  1  0  0  0  0
 13 35  1  0  0  0  0
 13 36  1  0  0  0  0
 14 37  1  0  0  0  0
 14 38  1  0  0  0  0
 15 16  1  0  0  0  0
 16 17  1  0  0  0  0
 16 18  2  0  0  0  0
 17 19  1  0  0  0  0
 19 21  2  0  0  0  0
 19 22  1  0  0  0  0
 20 39  1  0  0  0  0
 21 23  1  0  0  0  0
 21 40  1  0  0  0  0
 22 24  2  0  0  0  0
 22 41  1  0  0  0  0
 23 25  2  0  0  0  0
 24 25  1  0  0  0  0
 24 44  1  0  0  0  0
M  END
> <PUBCHEM_COMPOUND_CID>
24905327

> <PUBCHEM_CONFORMER_RMSD>
0.6

> <PUBCHEM_CONFORMER_DIVERSEORDER>
1
31
43
40
30
14
34
13
17
29
27
8
15
42
33
24
16
11
23
35
36
32
20
41
39
10
19
37
28
18
9
26
7
38
12
4
25
46
47
44
45
3
5
21
22
6
2

> <PUBCHEM_MMFF94_PARTIAL_CHARGES>
25
1 -0.19
15 0.11
17 0.23
18 0.41
19 0.05
2 -0.53
20 0.47
21 -0.15
22 -0.15
23 0.08
24 -0.15
25 0.19
3 0.31
39 0.15
4 -0.71
40 0.15
41 0.15
42 0.4
43 0.4
44 0.15
45 0.45
5 -0.57
6 -0.62
7 -0.9
8 0.26

> <PUBCHEM_EFFECTIVE_ROTOR_COUNT>
3.4

> <PUBCHEM_PHARMACOPHORE_FEATURES>
10
1 2 donor
1 4 acceptor
1 7 cation
1 7 donor
3 3 5 15 cation
3 5 6 20 cation
5 3 4 15 16 17 rings
6 19 21 22 23 24 25 rings
6 5 6 15 16 18 20 rings
7 8 9 10 11 12 13 14 rings

> <PUBCHEM_HEAVY_ATOM_COUNT>
25

> <PUBCHEM_ATOM_DEF_STEREO_COUNT>
0

> <PUBCHEM_ATOM_UDEF_STEREO_COUNT>
0

> <PUBCHEM_BOND_DEF_STEREO_COUNT>
0

> <PUBCHEM_BOND_UDEF_STEREO_COUNT>
0

> <PUBCHEM_ISOTOPIC_ATOM_COUNT>
0

> <PUBCHEM_COMPONENT_COUNT>
1

> <PUBCHEM_CACTVS_TAUTO_COUNT>
15

> <PUBCHEM_CONFORMER_ID>
017C066F00000001

> <PUBCHEM_MMFF94_ENERGY>
58.855

> <PUBCHEM_FEATURE_SELFOVERLAP>
51.026

> <PUBCHEM_SHAPE_FINGERPRINT>
10254770 206 16029014946197104666
10411042 1 18411133640870244182
11578080 2 17416948677980881385
11796584 16 17313373552387351635
11991303 11 17827363172463408325
12107183 9 18271259265850131907
12363563 72 18410294709483164006
12403259 118 13038896737871164626
12422481 6 17774737359007522519
12553582 1 18412269445225340422
12623949 98 17539712587027473547
12707595 3 18335138730143023314
12760667 363 18334576815287516891
12788726 201 18334869285897301002
13052359 8 18048029675468583917
13140716 1 18340484474178789752
13533116 47 18193841681381258763
13544653 18 18408601470160802022
13583140 156 14979672144030214170
13757389 114 17833569898739066684
13782708 43 17968937634555940547
13955234 65 17981046632730335569
14844126 61 18267572512376971506
14866123 147 18265052419194206315
15042514 8 18267306417477680961
16752209 62 18261949640124943570
17492 89 18126006216115189903
1813 80 18272094906812552894
18222031 100 18343303690569101870
193927 3 18334862697217132226
20645477 70 18266452303528370055
20832881 197 18261108591323774139
21304303 282 17541350476657210700
21344244 78 17916864754851528641
22182313 1 18339907299277833700
23175994 123 18408038533345626559
23557571 272 18127963110530673464
23559900 14 17313940952317053943
23598288 3 18265342715559262092
3027735 51 18265332807186164027
312423 11 18334305244979650804
314173 85 18341613706863715570
3380486 145 17273103900729248748
3421961 26 18340484594252523392
44062 13 17909836427646261710
463206 1 18261668259295375827
5104073 3 18198893726909947858
513202 73 18198634224316614214
5309563 4 18411138030449029983
70251023 43 18339356465822338359
7288768 16 15259421179886203432
7970288 3 18411418414530720094
8863177 126 17897456218701602787
9841814 1 18336262448480442224

> <PUBCHEM_SHAPE_MULTIPOLES>
476.44
10.93
4.08
1.38
3.37
5.17
0.08
-13.45
0.59
-0.97
0.23
0.1
-0.97
0.21

> <PUBCHEM_SHAPE_SELFOVERLAP>
1039.879

> <PUBCHEM_SHAPE_VOLUME>
257.8

> <PUBCHEM_COORDINATE_TYPE>
2
5
10

$$$$
