42618144
  -OEChem-10062122023D

 43 46  0     0  0  0  0  0  0999 V2000
    0.9837    0.9815   -0.3582 O   0  0  0  0  0  0  0  0  0  0  0  0
    4.1457    2.6337   -0.0853 N   0  0  0  0  0  0  0  0  0  0  0  0
   -5.0685    1.2803    0.0218 N   0  0  0  0  0  0  0  0  0  0  0  0
    1.4109    1.8928    0.6519 C   0  0  0  0  0  0  0  0  0  0  0  0
    1.7509    3.2430    0.0211 C   0  0  0  0  0  0  0  0  0  0  0  0
    2.6340    1.3070    1.3556 C   0  0  0  0  0  0  0  0  0  0  0  0
    3.0107    3.1614   -0.8432 C   0  0  0  0  0  0  0  0  0  0  0  0
    3.8626    1.2993    0.4433 C   0  0  0  0  0  0  0  0  0  0  0  0
   -0.2828    0.4727   -0.2350 C   0  0  0  0  0  0  0  0  0  0  0  0
   -0.5024   -0.8977   -0.1155 C   0  0  0  0  0  0  0  0  0  0  0  0
   -1.3624    1.3557   -0.2307 C   0  0  0  0  0  0  0  0  0  0  0  0
   -2.6747    0.8701   -0.1058 C   0  0  0  0  0  0  0  0  0  0  0  0
   -1.8022   -1.3913    0.0089 C   0  0  0  0  0  0  0  0  0  0  0  0
   -2.9010   -0.5165    0.0152 C   0  0  0  0  0  0  0  0  0  0  0  0
    0.6074   -1.8299   -0.1179 C   0  0  0  0  0  0  0  0  0  0  0  0
   -4.2158   -0.9803    0.1382 C   0  0  0  0  0  0  0  0  0  0  0  0
   -3.7913    1.7084   -0.0955 C   0  0  0  0  0  0  0  0  0  0  0  0
    0.8242   -2.6588    0.9829 C   0  0  0  0  0  0  0  0  0  0  0  0
    1.4581   -1.8988   -1.2211 C   0  0  0  0  0  0  0  0  0  0  0  0
   -5.2468   -0.0532    0.1355 C   0  0  0  0  0  0  0  0  0  0  0  0
    1.8918   -3.5567    0.9804 C   0  0  0  0  0  0  0  0  0  0  0  0
    2.5255   -2.7969   -1.2237 C   0  0  0  0  0  0  0  0  0  0  0  0
    2.7423   -3.6257   -0.1229 C   0  0  0  0  0  0  0  0  0  0  0  0
    0.6277    2.0405    1.4075 H   0  0  0  0  0  0  0  0  0  0  0  0
    1.9039    3.9865    0.8136 H   0  0  0  0  0  0  0  0  0  0  0  0
    0.9211    3.5935   -0.6025 H   0  0  0  0  0  0  0  0  0  0  0  0
    2.4290    0.2809    1.6818 H   0  0  0  0  0  0  0  0  0  0  0  0
    2.8557    1.8987    2.2528 H   0  0  0  0  0  0  0  0  0  0  0  0
    2.8279    2.5420   -1.7297 H   0  0  0  0  0  0  0  0  0  0  0  0
    3.2624    4.1652   -1.2027 H   0  0  0  0  0  0  0  0  0  0  0  0
    4.7302    0.9549    1.0167 H   0  0  0  0  0  0  0  0  0  0  0  0
    3.7239    0.5887   -0.3806 H   0  0  0  0  0  0  0  0  0  0  0  0
    4.9635    2.5881   -0.6926 H   0  0  0  0  0  0  0  0  0  0  0  0
   -1.1950    2.4252   -0.3352 H   0  0  0  0  0  0  0  0  0  0  0  0
   -1.9748   -2.4635    0.0955 H   0  0  0  0  0  0  0  0  0  0  0  0
   -4.4383   -2.0386    0.2340 H   0  0  0  0  0  0  0  0  0  0  0  0
   -3.6875    2.7865   -0.1847 H   0  0  0  0  0  0  0  0  0  0  0  0
    0.1775   -2.6165    1.8561 H   0  0  0  0  0  0  0  0  0  0  0  0
    1.3030   -1.2688   -2.0937 H   0  0  0  0  0  0  0  0  0  0  0  0
   -6.2794   -0.3738    0.2284 H   0  0  0  0  0  0  0  0  0  0  0  0
    2.0618   -4.2009    1.8381 H   0  0  0  0  0  0  0  0  0  0  0  0
    3.1870   -2.8518   -2.0833 H   0  0  0  0  0  0  0  0  0  0  0  0
    3.5735   -4.3246   -0.1248 H   0  0  0  0  0  0  0  0  0  0  0  0
  1  4  1  0  0  0  0
  1  9  1  0  0  0  0
  2  7  1  0  0  0  0
  2  8  1  0  0  0  0
  2 33  1  0  0  0  0
  3 17  2  0  0  0  0
  3 20  1  0  0  0  0
  4  5  1  0  0  0  0
  4  6  1  0  0  0  0
  4 24  1  0  0  0  0
  5  7  1  0  0  0  0
  5 25  1  0  0  0  0
  5 26  1  0  0  0  0
  6  8  1  0  0  0  0
  6 27  1  0  0  0  0
  6 28  1  0  0  0  0
  7 29  1  0  0  0  0
  7 30  1  0  0  0  0
  8 31  1  0  0  0  0
  8 32  1  0  0  0  0
  9 10  2  0  0  0  0
  9 11  1  0  0  0  0
 10 13  1  0  0  0  0
 10 15  1  0  0  0  0
 11 12  2  0  0  0  0
 11 34  1  0  0  0  0
 12 14  1  0  0  0  0
 12 17  1  0  0  0  0
 13 14  2  0  0  0  0
 13 35  1  0  0  0  0
 14 16  1  0  0  0  0
 15 18  2  0  0  0  0
 15 19  1  0  0  0  0
 16 20  2  0  0  0  0
 16 36  1  0  0  0  0
 17 37  1  0  0  0  0
 18 21  1  0  0  0  0
 18 38  1  0  0  0  0
 19 22  2  0  0  0  0
 19 39  1  0  0  0  0
 20 40  1  0  0  0  0
 21 23  2  0  0  0  0
 21 41  1  0  0  0  0
 22 23  1  0  0  0  0
 22 42  1  0  0  0  0
 23 43  1  0  0  0  0
M  END
> <PUBCHEM_COMPOUND_CID>
42618144

> <PUBCHEM_CONFORMER_RMSD>
0.8

> <PUBCHEM_CONFORMER_DIVERSEORDER>
1
7
8
3
5
9
4
6
2

> <PUBCHEM_MMFF94_PARTIAL_CHARGES>
28
1 -0.36
11 -0.15
13 -0.15
16 -0.15
17 0.16
18 -0.15
19 -0.15
2 -0.9
20 0.16
21 -0.15
22 -0.15
23 -0.15
3 -0.62
33 0.36
34 0.15
35 0.15
36 0.15
37 0.15
38 0.15
39 0.15
4 0.28
40 0.15
41 0.15
42 0.15
43 0.15
7 0.27
8 0.27
9 0.08

> <PUBCHEM_EFFECTIVE_ROTOR_COUNT>
4.2

> <PUBCHEM_PHARMACOPHORE_FEATURES>
8
1 1 acceptor
1 2 cation
1 2 donor
1 3 acceptor
6 15 18 19 21 22 23 rings
6 2 4 5 6 7 8 rings
6 3 12 14 16 17 20 rings
6 9 10 11 12 13 14 rings

> <PUBCHEM_HEAVY_ATOM_COUNT>
23

> <PUBCHEM_ATOM_DEF_STEREO_COUNT>
0

> <PUBCHEM_ATOM_UDEF_STEREO_COUNT>
0

> <PUBCHEM_BOND_DEF_STEREO_COUNT>
0

> <PUBCHEM_BOND_UDEF_STEREO_COUNT>
0

> <PUBCHEM_ISOTOPIC_ATOM_COUNT>
0

> <PUBCHEM_COMPONENT_COUNT>
1

> <PUBCHEM_CACTVS_TAUTO_COUNT>
1

> <PUBCHEM_CONFORMER_ID>
028A4D2000000001

> <PUBCHEM_MMFF94_ENERGY>
68.3838

> <PUBCHEM_FEATURE_SELFOVERLAP>
40.624

> <PUBCHEM_SHAPE_FINGERPRINT>
10050765 1 18410292485613056325
10411042 1 17978228253452626043
107951 10 18122077652446699772
1100329 8 17620760487881191249
11578080 2 17387679523086284991
11680986 33 18409173190711865323
11963148 33 18121209051173363403
12160290 23 17327710290765516218
12173636 292 17979066416404492436
12422481 6 17908948108065586090
12553582 1 17834960772014863403
12592029 89 18410575119065048272
12788726 201 17325780175370838298
12839892 36 18266444593866953507
13140716 1 18267857470382274633
133893 2 18198083420308458360
138480 1 18194119620950732778
14466204 15 18341041999593856176
14790565 3 18192999433129588333
14955137 171 17548733710538911179
15230672 131 18191594254303405516
15475509 8 17196031245236223245
15536298 74 18341331102790478471
15664445 248 17983870985828570934
16752209 62 17909821377547339596
1813 80 17842279159853264223
18785283 64 18334856112931488610
19591789 44 18194682798347354338
20028762 73 17695069194854600207
20554085 129 17916567869205658000
20567600 347 18336547238940075802
20600515 1 17551508838921404104
20642791 35 18269562632802128572
20691752 17 17676490497676299035
20905425 154 18198626528019289716
21421861 104 18337675204757823929
21524375 3 18199468955240963567
22182313 1 17968365750885245573
22907989 373 17255119467963602406
23352939 185 17986960635499398330
23366157 5 18261112941613857303
23419403 2 17897988158299485406
23558518 356 17693079074407096484
23559900 14 18338513019996933395
23728640 28 17834949051349617986
25147074 1 18131344199302060415
283562 15 17837206348647809543
3091708 16 9257711421504888826
3298306 158 18340211889931425292
3411729 13 18411134727502271041
352729 6 17976261558073311555
43471831 8 18338510962390996627
474 4 18409727404358778729
5104073 3 18339373964141277065
5265222 85 18122073267449426004
532947 4 18412270536405197630
5385378 56 18341619213122715121
5895379 119 16412682047001805713
59755656 215 18410575093501200037
6138700 20 18412268307807781430
6443956 14 18337674105483455508
7364860 26 18342457010849496807
81228 2 17048233732140912792
81539 233 18410570720997431319
8272917 22 18411419513951702625
9709674 26 18409167710550009867
9841814 1 18265053522647834619
9981440 41 18264768951094155747

> <PUBCHEM_SHAPE_MULTIPOLES>
457.5
8.28
4.74
0.98
9.62
1.25
0.02
-3.24
0.2
-6.86
-0.06
-0.76
0.31
0.27

> <PUBCHEM_SHAPE_SELFOVERLAP>
1008.125

> <PUBCHEM_SHAPE_VOLUME>
244.9

> <PUBCHEM_COORDINATE_TYPE>
2
5
10

$$$$
