49830590
  -OEChem-10052120433D

 59 63  0     1  0  0  0  0  0999 V2000
   -7.0772    0.4056    0.1596 F   0  0  0  0  0  0  0  0  0  0  0  0
   -5.7707    2.0699    0.6607 F   0  0  0  0  0  0  0  0  0  0  0  0
   -5.9384    1.4082   -1.3979 F   0  0  0  0  0  0  0  0  0  0  0  0
    5.4594    0.1260    0.5510 O   0  0  0  0  0  0  0  0  0  0  0  0
    3.8271    3.0867    1.6682 O   0  0  0  0  0  0  0  0  0  0  0  0
    3.6676   -0.8708   -0.4877 N   0  0  0  0  0  0  0  0  0  0  0  0
   -3.0905    1.6030   -0.5514 N   0  0  0  0  0  0  0  0  0  0  0  0
   -1.7388   -2.7277    0.7248 N   0  0  0  0  0  0  0  0  0  0  0  0
    4.9654    2.4762   -0.2717 N   0  0  0  0  0  0  0  0  0  0  0  0
   -2.3962   -0.5720    0.0897 N   0  0  0  0  0  0  0  0  0  0  0  0
   -4.0243   -2.2201    0.7532 N   0  0  0  0  0  0  0  0  0  0  0  0
    2.5199   -0.9952   -1.3870 C   0  0  1  0  0  0  0  0  0  0  0  0
    3.8337   -2.2559   -0.0583 C   0  0  2  0  0  0  0  0  0  0  0  0
    3.1085   -2.0299   -2.3726 C   0  0  0  0  0  0  0  0  0  0  0  0
    4.0261   -2.9094   -1.4450 C   0  0  0  0  0  0  0  0  0  0  0  0
    1.5855   -1.7564   -0.4735 C   0  0  0  0  0  0  0  0  0  0  0  0
    2.4112   -2.5479    0.3615 C   0  0  0  0  0  0  0  0  0  0  0  0
    4.4626    0.1979   -0.1681 C   0  0  0  0  0  0  0  0  0  0  0  0
    0.2133   -1.7965   -0.3803 C   0  0  0  0  0  0  0  0  0  0  0  0
    1.8819   -3.3961    1.3066 C   0  0  0  0  0  0  0  0  0  0  0  0
   -0.3344   -2.6490    0.5827 C   0  0  0  0  0  0  0  0  0  0  0  0
   -1.7999    2.1247   -0.8253 C   0  0  0  0  0  0  0  0  0  0  0  0
    0.4888   -3.4382    1.4150 C   0  0  0  0  0  0  0  0  0  0  0  0
   -1.8057    3.6560   -1.0142 C   0  0  0  0  0  0  0  0  0  0  0  0
   -0.9713    2.3624    0.4542 C   0  0  0  0  0  0  0  0  0  0  0  0
    4.0347    1.5131   -0.7628 C   0  0  0  0  0  0  0  0  0  0  0  0
   -0.5037    3.6858   -0.1865 C   0  0  0  0  0  0  0  0  0  0  0  0
   -3.4099    0.2968   -0.1055 C   0  0  0  0  0  0  0  0  0  0  0  0
   -2.7694   -1.7948    0.5130 C   0  0  0  0  0  0  0  0  0  0  0  0
   -4.7377   -0.0147    0.1039 C   0  0  0  0  0  0  0  0  0  0  0  0
    4.7890    3.1925    0.9118 C   0  0  0  0  0  0  0  0  0  0  0  0
   -4.9880   -1.3006    0.5375 C   0  0  0  0  0  0  0  0  0  0  0  0
   -5.8516    0.9453   -0.1137 C   0  0  0  0  0  0  0  0  0  0  0  0
    5.9332    4.1249    1.2078 C   0  0  0  0  0  0  0  0  0  0  0  0
    2.1396   -0.0639   -1.8056 H   0  0  0  0  0  0  0  0  0  0  0  0
    4.6109   -2.4170    0.6895 H   0  0  0  0  0  0  0  0  0  0  0  0
    2.3452   -2.6302   -2.8788 H   0  0  0  0  0  0  0  0  0  0  0  0
    3.7290   -1.5382   -3.1309 H   0  0  0  0  0  0  0  0  0  0  0  0
    5.0664   -2.8199   -1.7787 H   0  0  0  0  0  0  0  0  0  0  0  0
    3.7391   -3.9659   -1.4707 H   0  0  0  0  0  0  0  0  0  0  0  0
   -0.3804   -1.2106   -1.0698 H   0  0  0  0  0  0  0  0  0  0  0  0
    2.5118   -4.0081    1.9408 H   0  0  0  0  0  0  0  0  0  0  0  0
   -1.2751    1.5825   -1.6202 H   0  0  0  0  0  0  0  0  0  0  0  0
    0.0405   -4.0972    2.1558 H   0  0  0  0  0  0  0  0  0  0  0  0
   -2.6385    4.1840   -0.5337 H   0  0  0  0  0  0  0  0  0  0  0  0
   -1.7128    4.0069   -2.0455 H   0  0  0  0  0  0  0  0  0  0  0  0
   -0.1796    1.6336    0.6492 H   0  0  0  0  0  0  0  0  0  0  0  0
   -1.5549    2.5062    1.3718 H   0  0  0  0  0  0  0  0  0  0  0  0
    0.4063    3.5864   -0.7895 H   0  0  0  0  0  0  0  0  0  0  0  0
   -0.3911    4.5320    0.4955 H   0  0  0  0  0  0  0  0  0  0  0  0
    4.1050    1.4800   -1.8530 H   0  0  0  0  0  0  0  0  0  0  0  0
    3.0194    1.7645   -0.4434 H   0  0  0  0  0  0  0  0  0  0  0  0
   -3.8546    2.0792   -1.0227 H   0  0  0  0  0  0  0  0  0  0  0  0
   -2.0666   -3.5801    1.1689 H   0  0  0  0  0  0  0  0  0  0  0  0
    5.8145    2.6270   -0.8092 H   0  0  0  0  0  0  0  0  0  0  0  0
   -5.9951   -1.6542    0.7339 H   0  0  0  0  0  0  0  0  0  0  0  0
    6.7756    3.5497    1.6011 H   0  0  0  0  0  0  0  0  0  0  0  0
    5.6215    4.8650    1.9498 H   0  0  0  0  0  0  0  0  0  0  0  0
    6.2435    4.6504    0.3002 H   0  0  0  0  0  0  0  0  0  0  0  0
  1 33  1  0  0  0  0
  2 33  1  0  0  0  0
  3 33  1  0  0  0  0
  4 18  2  0  0  0  0
  5 31  2  0  0  0  0
  6 12  1  0  0  0  0
  6 13  1  0  0  0  0
  6 18  1  0  0  0  0
  7 22  1  0  0  0  0
  7 28  1  0  0  0  0
  7 53  1  0  0  0  0
  8 21  1  0  0  0  0
  8 29  1  0  0  0  0
  8 54  1  0  0  0  0
  9 26  1  0  0  0  0
  9 31  1  0  0  0  0
  9 55  1  0  0  0  0
 10 28  2  0  0  0  0
 10 29  1  0  0  0  0
 11 29  2  0  0  0  0
 11 32  1  0  0  0  0
 12 14  1  0  0  0  0
 12 16  1  0  0  0  0
 12 35  1  0  0  0  0
 13 15  1  0  0  0  0
 13 17  1  0  0  0  0
 13 36  1  0  0  0  0
 14 15  1  0  0  0  0
 14 37  1  0  0  0  0
 14 38  1  0  0  0  0
 15 39  1  0  0  0  0
 15 40  1  0  0  0  0
 16 17  2  0  0  0  0
 16 19  1  0  0  0  0
 17 20  1  0  0  0  0
 18 26  1  0  0  0  0
 19 21  2  0  0  0  0
 19 41  1  0  0  0  0
 20 23  2  0  0  0  0
 20 42  1  0  0  0  0
 21 23  1  0  0  0  0
 22 24  1  0  0  0  0
 22 25  1  0  0  0  0
 22 43  1  0  0  0  0
 23 44  1  0  0  0  0
 24 27  1  0  0  0  0
 24 45  1  0  0  0  0
 24 46  1  0  0  0  0
 25 27  1  0  0  0  0
 25 47  1  0  0  0  0
 25 48  1  0  0  0  0
 26 51  1  0  0  0  0
 26 52  1  0  0  0  0
 27 49  1  0  0  0  0
 27 50  1  0  0  0  0
 28 30  1  0  0  0  0
 30 32  2  0  0  0  0
 30 33  1  0  0  0  0
 31 34  1  0  0  0  0
 32 56  1  0  0  0  0
 34 57  1  0  0  0  0
 34 58  1  0  0  0  0
 34 59  1  0  0  0  0
M  END
> <PUBCHEM_COMPOUND_CID>
49830590

> <PUBCHEM_CONFORMER_RMSD>
1

> <PUBCHEM_CONFORMER_DIVERSEORDER>
1
7
181
190
150
164
171
53
44
62
180
90
167
169
200
59
63
106
176
170
143
138
6
125
198
36
120
80
60
197
39
145
182
173
101
118
93
123
136
19
186
78
48
157
61
135
75
160
99
113
18
140
126
29
196
71
149
112
193
89
67
192
79
111
156
195
58
121
109
22
131
81
95
50
49
12
128
32
158
142
189
137
52
46
30
13
188
57
152
76
162
56
77
174
179
117
45
68
41
40
115
146
175
87
42
20
72
73
94
163
69
100
107
98
26
114
104
124
110
17
70
103
28
187
82
178
155
9
35
185
184
127
43
119
148
85
55
83
25
108
116
130
129
96
88
165
144
139
27
191
172
97
132
91
86
133
134
64
159
168
37
51
34
24
166
84
105
147
23
151
14
33
177
194
183
31
2
74
11
102
15
65
38
4
3
122
66
92
10
141
8
161
16
54
154
199
47
153
21
5

> <PUBCHEM_MMFF94_PARTIAL_CHARGES>
36
1 -0.34
10 -0.62
11 -0.62
12 0.44
13 0.44
16 -0.14
17 -0.14
18 0.57
19 -0.15
2 -0.34
20 -0.15
21 0.1
22 0.25
23 -0.15
26 0.36
28 0.41
29 0.72
3 -0.34
30 -0.14
31 0.57
32 0.16
33 1.16
34 0.06
4 -0.57
41 0.15
42 0.15
44 0.15
5 -0.57
53 0.4
54 0.4
55 0.37
56 0.15
6 -0.66
7 -0.75
8 -0.6
9 -0.73

> <PUBCHEM_EFFECTIVE_ROTOR_COUNT>
10.4

> <PUBCHEM_PHARMACOPHORE_FEATURES>
10
1 4 acceptor
1 5 acceptor
1 7 donor
1 8 donor
1 9 donor
4 22 24 25 27 rings
4 8 10 11 29 cation
6 10 11 28 29 30 32 rings
6 16 17 19 20 21 23 rings
7 6 12 13 14 15 16 17 rings

> <PUBCHEM_HEAVY_ATOM_COUNT>
34

> <PUBCHEM_ATOM_DEF_STEREO_COUNT>
0

> <PUBCHEM_ATOM_UDEF_STEREO_COUNT>
2

> <PUBCHEM_BOND_DEF_STEREO_COUNT>
0

> <PUBCHEM_BOND_UDEF_STEREO_COUNT>
0

> <PUBCHEM_ISOTOPIC_ATOM_COUNT>
0

> <PUBCHEM_COMPONENT_COUNT>
1

> <PUBCHEM_CACTVS_TAUTO_COUNT>
12

> <PUBCHEM_CONFORMER_ID>
02F85ABE00000001

> <PUBCHEM_MMFF94_ENERGY>
134.55

> <PUBCHEM_FEATURE_SELFOVERLAP>
50.769

> <PUBCHEM_SHAPE_FINGERPRINT>
10670039 82 17974303026985066903
10864689 126 18338804411641635356
11112241 14 17844801688799054993
12107698 1 18199751332519957902
12788726 201 18048318847738293131
13402501 40 18339361975996425432
13561361 72 18334850645649695416
1361 2 18408605893856635720
14394314 77 18264497174755875417
14725015 67 18335696084075662144
14739800 52 18260540095971897210
14790565 3 17905050253730960553
15264996 163 17692830189743286512
16067689 134 17334786284057833609
16067689 302 18341331202187124071
20642791 35 18338519643031526785
21315764 268 18336543798729287758
22393880 68 17975983063909568798
23559900 14 18334585619890969446
238918 7 18127130999446040820
2838139 119 18199184165177702670
3298306 158 18270116962540370208
34797466 226 18131641062851882255
392239 28 18408606946012008882
46194498 28 17987244339479805182
50150288 127 16700364973520991576
5104073 3 17895200952833362171
5223283 242 17268943198305844679
5265222 85 17907017631376871128
57307002 19 18194671790499922320
5776283 40 18337687360469871686
6176135 31 18262514917956485536

> <PUBCHEM_SHAPE_MULTIPOLES>
636.26
14.33
5.83
1.38
10.14
3.01
0.31
9.06
-0.84
-5.78
-1.43
-1.31
-0.34
3.44

> <PUBCHEM_SHAPE_SELFOVERLAP>
1391.164

> <PUBCHEM_SHAPE_VOLUME>
348.6

> <PUBCHEM_COORDINATE_TYPE>
2
5
10

$$$$
