49830767
  -OEChem-10052120443D

 40 43  0     0  0  0  0  0  0999 V2000
   -4.6365    2.5881   -0.9155 O   0  0  0  0  0  0  0  0  0  0  0  0
   -3.1082   -1.0052    2.1272 O   0  0  0  0  0  0  0  0  0  0  0  0
   -3.6129    0.2107    0.1968 N   0  0  0  0  0  0  0  0  0  0  0  0
    5.6001    1.0317    0.1604 N   0  0  0  0  0  0  0  0  0  0  0  0
    4.3805   -1.0394   -0.0011 N   0  0  0  0  0  0  0  0  0  0  0  0
   -3.3774    0.5338   -1.2157 C   0  0  0  0  0  0  0  0  0  0  0  0
   -4.7824    0.8668    0.7793 C   0  0  0  0  0  0  0  0  0  0  0  0
   -3.4167    2.0429   -1.4249 C   0  0  0  0  0  0  0  0  0  0  0  0
   -4.7515    2.3607    0.4918 C   0  0  0  0  0  0  0  0  0  0  0  0
   -2.8708   -0.6907    0.9619 C   0  0  0  0  0  0  0  0  0  0  0  0
   -1.7076   -1.3353    0.3377 C   0  0  0  0  0  0  0  0  0  0  0  0
    0.6541   -1.3499   -0.1719 C   0  0  0  0  0  0  0  0  0  0  0  0
   -0.4499   -0.7377    0.4215 C   0  0  0  0  0  0  0  0  0  0  0  0
    1.9590   -0.7311   -0.0841 C   0  0  0  0  0  0  0  0  0  0  0  0
   -1.8612   -2.5451   -0.3394 C   0  0  0  0  0  0  0  0  0  0  0  0
    3.3746    1.1955    0.0776 C   0  0  0  0  0  0  0  0  0  0  0  0
    2.0812    0.6550   -0.0044 C   0  0  0  0  0  0  0  0  0  0  0  0
    0.5005   -2.5598   -0.8490 C   0  0  0  0  0  0  0  0  0  0  0  0
    4.4429    0.3035    0.0737 C   0  0  0  0  0  0  0  0  0  0  0  0
   -0.7571   -3.1575   -0.9325 C   0  0  0  0  0  0  0  0  0  0  0  0
    3.1120   -1.5045   -0.0785 C   0  0  0  0  0  0  0  0  0  0  0  0
    3.9282    2.4998    0.1702 C   0  0  0  0  0  0  0  0  0  0  0  0
    5.2992    2.3678    0.2191 C   0  0  0  0  0  0  0  0  0  0  0  0
   -2.4312    0.1294   -1.5800 H   0  0  0  0  0  0  0  0  0  0  0  0
   -4.1883    0.0560   -1.7780 H   0  0  0  0  0  0  0  0  0  0  0  0
   -5.6609    0.4096    0.3090 H   0  0  0  0  0  0  0  0  0  0  0  0
   -4.8406    0.6853    1.8567 H   0  0  0  0  0  0  0  0  0  0  0  0
   -3.3648    2.2751   -2.4931 H   0  0  0  0  0  0  0  0  0  0  0  0
   -2.5687    2.5347   -0.9334 H   0  0  0  0  0  0  0  0  0  0  0  0
   -3.9171    2.8511    1.0072 H   0  0  0  0  0  0  0  0  0  0  0  0
   -5.6795    2.8292    0.8337 H   0  0  0  0  0  0  0  0  0  0  0  0
   -0.3610    0.1910    0.9801 H   0  0  0  0  0  0  0  0  0  0  0  0
   -2.8370   -3.0182   -0.4125 H   0  0  0  0  0  0  0  0  0  0  0  0
    1.2315    1.3289   -0.0305 H   0  0  0  0  0  0  0  0  0  0  0  0
    1.3257   -3.0578   -1.3507 H   0  0  0  0  0  0  0  0  0  0  0  0
   -0.8786   -4.0961   -1.4653 H   0  0  0  0  0  0  0  0  0  0  0  0
    3.0779   -2.5907   -0.1070 H   0  0  0  0  0  0  0  0  0  0  0  0
    3.3876    3.4359    0.1981 H   0  0  0  0  0  0  0  0  0  0  0  0
    6.5325    0.6425    0.1779 H   0  0  0  0  0  0  0  0  0  0  0  0
    6.0861    3.1053    0.2907 H   0  0  0  0  0  0  0  0  0  0  0  0
  1  8  1  0  0  0  0
  1  9  1  0  0  0  0
  2 10  2  0  0  0  0
  3  6  1  0  0  0  0
  3  7  1  0  0  0  0
  3 10  1  0  0  0  0
  4 19  1  0  0  0  0
  4 23  1  0  0  0  0
  4 39  1  0  0  0  0
  5 19  2  0  0  0  0
  5 21  1  0  0  0  0
  6  8  1  0  0  0  0
  6 24  1  0  0  0  0
  6 25  1  0  0  0  0
  7  9  1  0  0  0  0
  7 26  1  0  0  0  0
  7 27  1  0  0  0  0
  8 28  1  0  0  0  0
  8 29  1  0  0  0  0
  9 30  1  0  0  0  0
  9 31  1  0  0  0  0
 10 11  1  0  0  0  0
 11 13  1  0  0  0  0
 11 15  2  0  0  0  0
 12 13  2  0  0  0  0
 12 14  1  0  0  0  0
 12 18  1  0  0  0  0
 13 32  1  0  0  0  0
 14 17  1  0  0  0  0
 14 21  2  0  0  0  0
 15 20  1  0  0  0  0
 15 33  1  0  0  0  0
 16 17  2  0  0  0  0
 16 19  1  0  0  0  0
 16 22  1  0  0  0  0
 17 34  1  0  0  0  0
 18 20  2  0  0  0  0
 18 35  1  0  0  0  0
 20 36  1  0  0  0  0
 21 37  1  0  0  0  0
 22 23  2  0  0  0  0
 22 38  1  0  0  0  0
 23 40  1  0  0  0  0
M  END
> <PUBCHEM_COMPOUND_CID>
49830767

> <PUBCHEM_CONFORMER_RMSD>
0.8

> <PUBCHEM_CONFORMER_DIVERSEORDER>
1
14
6
12
4
10
16
17
19
13
15
5
7
9
11
18
8
3
2

> <PUBCHEM_MMFF94_PARTIAL_CHARGES>
29
1 -0.56
10 0.54
11 0.09
13 -0.15
15 -0.15
17 -0.15
18 -0.15
19 0.11
2 -0.57
20 -0.15
21 0.16
22 -0.15
23 -0.3
3 -0.66
32 0.15
33 0.15
34 0.15
35 0.15
36 0.15
37 0.15
38 0.15
39 0.27
4 0.03
40 0.15
5 -0.57
6 0.3
7 0.3
8 0.28
9 0.28

> <PUBCHEM_EFFECTIVE_ROTOR_COUNT>
4.2

> <PUBCHEM_PHARMACOPHORE_FEATURES>
8
1 1 acceptor
1 2 acceptor
1 4 donor
3 4 5 19 cation
5 4 16 19 22 23 rings
6 1 3 6 7 8 9 rings
6 11 12 13 15 18 20 rings
6 5 14 16 17 19 21 rings

> <PUBCHEM_HEAVY_ATOM_COUNT>
23

> <PUBCHEM_ATOM_DEF_STEREO_COUNT>
0

> <PUBCHEM_ATOM_UDEF_STEREO_COUNT>
0

> <PUBCHEM_BOND_DEF_STEREO_COUNT>
0

> <PUBCHEM_BOND_UDEF_STEREO_COUNT>
0

> <PUBCHEM_ISOTOPIC_ATOM_COUNT>
0

> <PUBCHEM_COMPONENT_COUNT>
1

> <PUBCHEM_CACTVS_TAUTO_COUNT>
2

> <PUBCHEM_CONFORMER_ID>
02F85B6F00000001

> <PUBCHEM_MMFF94_ENERGY>
64.6973

> <PUBCHEM_FEATURE_SELFOVERLAP>
40.71

> <PUBCHEM_SHAPE_FINGERPRINT>
105312 117 18342740740715530862
11370993 144 18333731286613495724
11595378 159 16588013585528985244
12107183 9 18337944585697784522
12403259 415 18338811038955637655
12769317 202 18271519793311321777
12788726 201 18049705601909833123
12892183 10 17822014232734947770
13103583 49 12108073215331867053
13402501 40 18335137557939088333
13544653 18 9367339349328151187
13583140 156 17458895011460641242
13675066 3 18186809110045780794
13941219 33 9367072211469064397
14251764 75 18412554218536734289
14508225 48 17480848054396155199
14848178 96 18342170033898562185
14957384 54 18408315579936833090
15188451 53 15285933523794337809
17834072 32 18412545400920668462
17868525 174 18263353708384553322
20645477 56 18340774839589629066
20715895 44 18269272370095912368
21033648 144 18261103046235944253
21033648 29 18412819209618581336
21315764 268 18333447642631152565
21401589 2 18334016073527196969
21421861 104 17968361361676439610
21713013 43 11815897829766292891
23227448 37 18340767138723674247
23559900 14 17917438627392683854
27216 239 18333452071206424539
283562 15 18194956568549485711
2838139 119 18263916662210955125
335352 9 18341333310767886830
350125 39 18199471150491881235
474 4 18270679736837585835
5104073 3 18261105309984591242
57724786 102 18269562645386402249
6327066 14 18409724063080451301
633830 44 17488484999736625687
636775 72 17619911004413988648
7808743 9 18339076102862290944
7970288 3 8070021151699549097
90127 26 18334304175337842714

> <PUBCHEM_SHAPE_MULTIPOLES>
446.65
12.01
3.46
1.12
4.97
0.27
-0.11
-11.07
-0.96
-0.93
0.87
-1.52
0
0.95

> <PUBCHEM_SHAPE_SELFOVERLAP>
990.254

> <PUBCHEM_SHAPE_VOLUME>
237.7

> <PUBCHEM_COORDINATE_TYPE>
2
5
10

$$$$
