49830650
  -OEChem-10052115183D

 61 64  0     0  0  0  0  0  0999 V2000
    2.5125   -3.7199   -0.1854 O   0  0  0  0  0  0  0  0  0  0  0  0
   -2.5682    3.2699    0.8616 O   0  0  0  0  0  0  0  0  0  0  0  0
   -0.1015    3.7013    2.1285 O   0  0  0  0  0  0  0  0  0  0  0  0
    4.8731   -4.4794    0.8486 O   0  0  0  0  0  0  0  0  0  0  0  0
   -2.3390   -1.0370   -0.0118 N   0  0  0  0  0  0  0  0  0  0  0  0
   -3.4786   -1.7131   -0.2362 N   0  0  0  0  0  0  0  0  0  0  0  0
   -1.4754    1.1963    0.5126 N   0  0  0  0  0  0  0  0  0  0  0  0
    6.0334   -2.8467   -0.2846 N   0  0  0  0  0  0  0  0  0  0  0  0
   -5.8365   -1.1269   -0.2930 C   0  0  0  0  0  0  0  0  0  0  0  0
   -4.4184   -0.7718   -0.1154 C   0  0  0  0  0  0  0  0  0  0  0  0
   -6.4970   -0.3254   -1.4667 C   0  0  0  0  0  0  0  0  0  0  0  0
   -6.6800   -0.8270    0.9932 C   0  0  0  0  0  0  0  0  0  0  0  0
   -6.1341   -2.6359   -0.6227 C   0  0  0  0  0  0  0  0  0  0  0  0
   -3.8832    0.4954    0.1837 C   0  0  0  0  0  0  0  0  0  0  0  0
   -2.5266    0.2895    0.2448 C   0  0  0  0  0  0  0  0  0  0  0  0
   -1.1175   -1.7113   -0.0547 C   0  0  0  0  0  0  0  0  0  0  0  0
   -0.1388   -1.3245   -0.9703 C   0  0  0  0  0  0  0  0  0  0  0  0
   -0.8760   -2.7731    0.8173 C   0  0  0  0  0  0  0  0  0  0  0  0
   -1.5923    2.5425    0.7857 C   0  0  0  0  0  0  0  0  0  0  0  0
    0.7893    3.1544   -0.0098 C   0  0  0  0  0  0  0  0  0  0  0  0
   -0.2465    3.1814    1.0194 C   0  0  0  0  0  0  0  0  0  0  0  0
    2.0426    2.5555    0.1972 C   0  0  0  0  0  0  0  0  0  0  0  0
    1.0810   -1.9994   -1.0143 C   0  0  0  0  0  0  0  0  0  0  0  0
    0.3438   -3.4480    0.7733 C   0  0  0  0  0  0  0  0  0  0  0  0
    1.3223   -3.0612   -0.1425 C   0  0  0  0  0  0  0  0  0  0  0  0
    2.9969    2.5687   -0.8477 C   0  0  0  0  0  0  0  0  0  0  0  0
    0.4814    3.7577   -1.2296 C   0  0  0  0  0  0  0  0  0  0  0  0
    2.3696    1.9438    1.4184 C   0  0  0  0  0  0  0  0  0  0  0  0
    2.6699    3.1803   -2.0688 C   0  0  0  0  0  0  0  0  0  0  0  0
    1.4199    3.7705   -2.2571 C   0  0  0  0  0  0  0  0  0  0  0  0
    4.2503    1.9698   -0.6406 C   0  0  0  0  0  0  0  0  0  0  0  0
    3.6196    1.3536    1.6067 C   0  0  0  0  0  0  0  0  0  0  0  0
    4.5582    1.3665    0.5792 C   0  0  0  0  0  0  0  0  0  0  0  0
    3.6555   -2.9692   -0.5934 C   0  0  0  0  0  0  0  0  0  0  0  0
    4.8903   -3.5270    0.0743 C   0  0  0  0  0  0  0  0  0  0  0  0
   -7.5522   -0.5924   -1.5938 H   0  0  0  0  0  0  0  0  0  0  0  0
   -6.4474    0.7542   -1.2841 H   0  0  0  0  0  0  0  0  0  0  0  0
   -5.9786   -0.5250   -2.4118 H   0  0  0  0  0  0  0  0  0  0  0  0
   -7.7344   -1.0918    0.8550 H   0  0  0  0  0  0  0  0  0  0  0  0
   -6.2954   -1.3936    1.8493 H   0  0  0  0  0  0  0  0  0  0  0  0
   -6.6364    0.2366    1.2544 H   0  0  0  0  0  0  0  0  0  0  0  0
   -7.2080   -2.8205   -0.7401 H   0  0  0  0  0  0  0  0  0  0  0  0
   -5.6380   -2.9365   -1.5529 H   0  0  0  0  0  0  0  0  0  0  0  0
   -5.7666   -3.2891    0.1774 H   0  0  0  0  0  0  0  0  0  0  0  0
   -4.4151    1.4237    0.3335 H   0  0  0  0  0  0  0  0  0  0  0  0
   -0.5435    0.7913    0.5204 H   0  0  0  0  0  0  0  0  0  0  0  0
   -0.3134   -0.5092   -1.6684 H   0  0  0  0  0  0  0  0  0  0  0  0
   -1.6258   -3.0853    1.5402 H   0  0  0  0  0  0  0  0  0  0  0  0
    1.8047   -1.6851   -1.7605 H   0  0  0  0  0  0  0  0  0  0  0  0
    0.5268   -4.2737    1.4556 H   0  0  0  0  0  0  0  0  0  0  0  0
   -0.4860    4.2260   -1.3938 H   0  0  0  0  0  0  0  0  0  0  0  0
    1.6673    1.8951    2.2460 H   0  0  0  0  0  0  0  0  0  0  0  0
    3.3881    3.2022   -2.8859 H   0  0  0  0  0  0  0  0  0  0  0  0
    1.1800    4.2408   -3.2063 H   0  0  0  0  0  0  0  0  0  0  0  0
    4.9990    1.9671   -1.4301 H   0  0  0  0  0  0  0  0  0  0  0  0
    3.8588    0.8798    2.5543 H   0  0  0  0  0  0  0  0  0  0  0  0
    5.5302    0.9045    0.7255 H   0  0  0  0  0  0  0  0  0  0  0  0
    3.5842   -1.9165   -0.2898 H   0  0  0  0  0  0  0  0  0  0  0  0
    3.7735   -3.0472   -1.6798 H   0  0  0  0  0  0  0  0  0  0  0  0
    6.9384   -3.1133    0.0887 H   0  0  0  0  0  0  0  0  0  0  0  0
    6.0182   -2.0605   -0.9265 H   0  0  0  0  0  0  0  0  0  0  0  0
  1 25  1  0  0  0  0
  1 34  1  0  0  0  0
  2 19  2  0  0  0  0
  3 21  2  0  0  0  0
  4 35  2  0  0  0  0
  5  6  1  0  0  0  0
  5 15  1  0  0  0  0
  5 16  1  0  0  0  0
  6 10  2  0  0  0  0
  7 15  1  0  0  0  0
  7 19  1  0  0  0  0
  7 46  1  0  0  0  0
  8 35  1  0  0  0  0
  8 60  1  0  0  0  0
  8 61  1  0  0  0  0
  9 10  1  0  0  0  0
  9 11  1  0  0  0  0
  9 12  1  0  0  0  0
  9 13  1  0  0  0  0
 10 14  1  0  0  0  0
 11 36  1  0  0  0  0
 11 37  1  0  0  0  0
 11 38  1  0  0  0  0
 12 39  1  0  0  0  0
 12 40  1  0  0  0  0
 12 41  1  0  0  0  0
 13 42  1  0  0  0  0
 13 43  1  0  0  0  0
 13 44  1  0  0  0  0
 14 15  2  0  0  0  0
 14 45  1  0  0  0  0
 16 17  2  0  0  0  0
 16 18  1  0  0  0  0
 17 23  1  0  0  0  0
 17 47  1  0  0  0  0
 18 24  2  0  0  0  0
 18 48  1  0  0  0  0
 19 21  1  0  0  0  0
 20 21  1  0  0  0  0
 20 22  1  0  0  0  0
 20 27  2  0  0  0  0
 22 26  1  0  0  0  0
 22 28  2  0  0  0  0
 23 25  2  0  0  0  0
 23 49  1  0  0  0  0
 24 25  1  0  0  0  0
 24 50  1  0  0  0  0
 26 29  1  0  0  0  0
 26 31  2  0  0  0  0
 27 30  1  0  0  0  0
 27 51  1  0  0  0  0
 28 32  1  0  0  0  0
 28 52  1  0  0  0  0
 29 30  2  0  0  0  0
 29 53  1  0  0  0  0
 30 54  1  0  0  0  0
 31 33  1  0  0  0  0
 31 55  1  0  0  0  0
 32 33  2  0  0  0  0
 32 56  1  0  0  0  0
 33 57  1  0  0  0  0
 34 35  1  0  0  0  0
 34 58  1  0  0  0  0
 34 59  1  0  0  0  0
M  END
> <PUBCHEM_COMPOUND_CID>
49830650

> <PUBCHEM_CONFORMER_RMSD>
1

> <PUBCHEM_CONFORMER_DIVERSEORDER>
1
43
48
50
9
93
59
105
53
98
29
47
89
65
101
30
2
111
57
36
114
87
15
112
52
19
71
45
32
28
26
94
115
24
70
38
42
97
16
49
82
90
34
35
54
81
88
68
100
83
113
107
21
66
92
74
73
86
12
85
37
55
44
95
40
91
108
64
8
23
96
46
5
13
61
103
56
67
104
106
63
99
102
17
110
3
80
41
31
79
77
69
18
6
60
109
84
62
75
78
27
4
51
76
58
72
20
39
10
11
7
14
22
25
33

> <PUBCHEM_MMFF94_PARTIAL_CHARGES>
45
1 -0.36
10 0.11
14 -0.15
15 -0.09
16 -0.02
17 -0.15
18 -0.15
19 0.63
2 -0.57
20 0.09
21 0.48
23 -0.15
24 -0.15
25 0.08
27 -0.15
28 -0.15
29 -0.15
3 -0.57
30 -0.15
31 -0.15
32 -0.15
33 -0.15
34 0.34
35 0.57
4 -0.57
45 0.15
46 0.37
47 0.15
48 0.15
49 0.15
5 0.59
50 0.15
51 0.15
52 0.15
53 0.15
54 0.15
55 0.15
56 0.15
57 0.15
6 -0.71
60 0.37
61 0.37
7 -0.49
8 -0.8
9 0.18

> <PUBCHEM_EFFECTIVE_ROTOR_COUNT>
9

> <PUBCHEM_PHARMACOPHORE_FEATURES>
12
1 1 acceptor
1 2 acceptor
1 3 acceptor
1 4 acceptor
1 6 acceptor
1 7 donor
1 8 donor
4 9 11 12 13 hydrophobe
5 5 6 10 14 15 rings
6 16 17 18 23 24 25 rings
6 20 22 26 27 29 30 rings
6 22 26 28 31 32 33 rings

> <PUBCHEM_HEAVY_ATOM_COUNT>
35

> <PUBCHEM_ATOM_DEF_STEREO_COUNT>
0

> <PUBCHEM_ATOM_UDEF_STEREO_COUNT>
0

> <PUBCHEM_BOND_DEF_STEREO_COUNT>
0

> <PUBCHEM_BOND_UDEF_STEREO_COUNT>
0

> <PUBCHEM_ISOTOPIC_ATOM_COUNT>
0

> <PUBCHEM_COMPONENT_COUNT>
1

> <PUBCHEM_CACTVS_TAUTO_COUNT>
8

> <PUBCHEM_CONFORMER_ID>
02F85AFA00000001

> <PUBCHEM_MMFF94_ENERGY>
120.8978

> <PUBCHEM_FEATURE_SELFOVERLAP>
60.935

> <PUBCHEM_SHAPE_FINGERPRINT>
10290309 65 17688047713461725438
10675989 125 18268156542072378204
1100329 8 17981332183873875897
11578080 2 17896299378197610119
12677640 9 17912927180095686273
12788726 201 18056779829853325673
13560911 43 18261108531273632818
14068700 675 18341050696738586494
15420108 30 17270081279383628137
15781502 237 18342182116032092681
16664035 1 18341048626892144905
20721686 56 18410858754938407666
20764821 26 18193849145622689556
20771845 171 18115030839400938935
21344244 246 18339352085124833183
21781051 124 17828767588694665195
23559900 14 18411409627602047851
25019877 29 17203316772169677326
3004659 81 18190458461720809788
3298306 158 18196370540675852751
340366 18 17826508061586182277
373842 8 18410011048531721218
4573279 73 17909259527375825911
469060 322 17900833639317067394
5265222 85 17758126173237037812

> <PUBCHEM_SHAPE_MULTIPOLES>
676.88
12.6
6.95
1.52
16.41
2.36
-0.18
8.22
-1.25
-9.66
-0.18
-0.61
-1.58
-1.21

> <PUBCHEM_SHAPE_SELFOVERLAP>
1477.467

> <PUBCHEM_SHAPE_VOLUME>
366.3

> <PUBCHEM_COORDINATE_TYPE>
2
5
10

$$$$
