9948405
  -OEChem-10062122003D

 39 42  0     0  0  0  0  0  0999 V2000
   -1.4815    2.8424    0.8788 O   0  0  0  0  0  0  0  0  0  0  0  0
    2.0882    0.2893   -0.2845 N   0  0  0  0  0  0  0  0  0  0  0  0
    4.0878   -0.4740   -0.7713 N   0  0  0  0  0  0  0  0  0  0  0  0
    3.5175    0.0005   -1.9355 N   0  0  0  0  0  0  0  0  0  0  0  0
   -3.3499    1.6243    1.2530 N   0  0  0  0  0  0  0  0  0  0  0  0
    3.4104   -0.6565    1.6201 C   0  0  0  0  0  0  0  0  0  0  0  0
    3.2230   -0.2949    0.2021 C   0  0  0  0  0  0  0  0  0  0  0  0
    2.3195    0.4564   -1.6380 C   0  0  0  0  0  0  0  0  0  0  0  0
    0.9150    0.6651    0.3591 C   0  0  0  0  0  0  0  0  0  0  0  0
   -0.0837    1.2364   -0.3524 C   0  0  0  0  0  0  0  0  0  0  0  0
    2.8817   -2.0699    1.9591 C   0  0  0  0  0  0  0  0  0  0  0  0
    4.8808   -0.5395    2.0850 C   0  0  0  0  0  0  0  0  0  0  0  0
    1.2835    1.0505   -2.4046 C   0  0  0  0  0  0  0  0  0  0  0  0
   -1.2940    1.6071    0.3271 C   0  0  0  0  0  0  0  0  0  0  0  0
    0.1400    1.4210   -1.7965 C   0  0  0  0  0  0  0  0  0  0  0  0
   -2.4357    0.8731    0.5598 C   0  0  0  0  0  0  0  0  0  0  0  0
   -2.6681   -0.4794    0.1525 C   0  0  0  0  0  0  0  0  0  0  0  0
   -2.7320    2.7729    1.4118 C   0  0  0  0  0  0  0  0  0  0  0  0
   -2.3162   -1.5366    0.9953 C   0  0  0  0  0  0  0  0  0  0  0  0
   -3.2481   -0.7484   -1.0899 C   0  0  0  0  0  0  0  0  0  0  0  0
   -2.5424   -2.8545    0.5983 C   0  0  0  0  0  0  0  0  0  0  0  0
   -3.4744   -2.0663   -1.4868 C   0  0  0  0  0  0  0  0  0  0  0  0
   -3.1215   -3.1192   -0.6426 C   0  0  0  0  0  0  0  0  0  0  0  0
    2.8567    0.0522    2.2488 H   0  0  0  0  0  0  0  0  0  0  0  0
    0.8379    0.4793    1.4243 H   0  0  0  0  0  0  0  0  0  0  0  0
    1.8184   -2.1581    1.7104 H   0  0  0  0  0  0  0  0  0  0  0  0
    2.9990   -2.2842    3.0264 H   0  0  0  0  0  0  0  0  0  0  0  0
    3.4217   -2.8367    1.3925 H   0  0  0  0  0  0  0  0  0  0  0  0
    5.5231   -1.2482    1.5505 H   0  0  0  0  0  0  0  0  0  0  0  0
    4.9666   -0.7435    3.1576 H   0  0  0  0  0  0  0  0  0  0  0  0
    5.2664    0.4692    1.8993 H   0  0  0  0  0  0  0  0  0  0  0  0
    1.4221    1.1981   -3.4697 H   0  0  0  0  0  0  0  0  0  0  0  0
   -0.6598    1.8746   -2.3744 H   0  0  0  0  0  0  0  0  0  0  0  0
   -3.0934    3.6601    1.9094 H   0  0  0  0  0  0  0  0  0  0  0  0
   -1.8631   -1.3479    1.9659 H   0  0  0  0  0  0  0  0  0  0  0  0
   -3.5289    0.0608   -1.7603 H   0  0  0  0  0  0  0  0  0  0  0  0
   -2.2673   -3.6744    1.2551 H   0  0  0  0  0  0  0  0  0  0  0  0
   -3.9249   -2.2728   -2.4531 H   0  0  0  0  0  0  0  0  0  0  0  0
   -3.2974   -4.1454   -0.9519 H   0  0  0  0  0  0  0  0  0  0  0  0
  1 14  1  0  0  0  0
  1 18  1  0  0  0  0
  2  7  1  0  0  0  0
  2  8  1  0  0  0  0
  2  9  1  0  0  0  0
  3  4  1  0  0  0  0
  3  7  2  0  0  0  0
  4  8  2  0  0  0  0
  5 16  1  0  0  0  0
  5 18  2  0  0  0  0
  6  7  1  0  0  0  0
  6 11  1  0  0  0  0
  6 12  1  0  0  0  0
  6 24  1  0  0  0  0
  8 13  1  0  0  0  0
  9 10  2  0  0  0  0
  9 25  1  0  0  0  0
 10 14  1  0  0  0  0
 10 15  1  0  0  0  0
 11 26  1  0  0  0  0
 11 27  1  0  0  0  0
 11 28  1  0  0  0  0
 12 29  1  0  0  0  0
 12 30  1  0  0  0  0
 12 31  1  0  0  0  0
 13 15  2  0  0  0  0
 13 32  1  0  0  0  0
 14 16  2  0  0  0  0
 15 33  1  0  0  0  0
 16 17  1  0  0  0  0
 17 19  2  0  0  0  0
 17 20  1  0  0  0  0
 18 34  1  0  0  0  0
 19 21  1  0  0  0  0
 19 35  1  0  0  0  0
 20 22  2  0  0  0  0
 20 36  1  0  0  0  0
 21 23  2  0  0  0  0
 21 37  1  0  0  0  0
 22 23  1  0  0  0  0
 22 38  1  0  0  0  0
 23 39  1  0  0  0  0
M  END
> <PUBCHEM_COMPOUND_CID>
9948405

> <PUBCHEM_CONFORMER_RMSD>
0.6

> <PUBCHEM_CONFORMER_DIVERSEORDER>
1
13
5
3
16
2
12
15
4
10
14
8
6
9
11
7

> <PUBCHEM_MMFF94_PARTIAL_CHARGES>
30
1 -0.28
10 0.05
13 -0.11
14 0.09
15 -0.15
16 0.17
17 0.05
18 0.33
19 -0.15
2 0.33
20 -0.15
21 -0.15
22 -0.15
23 -0.15
25 0.15
3 -0.34
32 0.15
33 0.15
34 0.15
35 0.15
36 0.15
37 0.15
38 0.15
39 0.15
4 -0.34
5 -0.57
6 0.18
7 0.01
8 0.14
9 -0.18

> <PUBCHEM_EFFECTIVE_ROTOR_COUNT>
3

> <PUBCHEM_PHARMACOPHORE_FEATURES>
7
3 2 3 7 cation
3 2 4 8 cation
3 6 11 12 hydrophobe
5 1 5 14 16 18 rings
5 2 3 4 7 8 rings
6 17 19 20 21 22 23 rings
6 2 8 9 10 13 15 rings

> <PUBCHEM_HEAVY_ATOM_COUNT>
23

> <PUBCHEM_ATOM_DEF_STEREO_COUNT>
0

> <PUBCHEM_ATOM_UDEF_STEREO_COUNT>
0

> <PUBCHEM_BOND_DEF_STEREO_COUNT>
0

> <PUBCHEM_BOND_UDEF_STEREO_COUNT>
0

> <PUBCHEM_ISOTOPIC_ATOM_COUNT>
0

> <PUBCHEM_COMPONENT_COUNT>
1

> <PUBCHEM_CACTVS_TAUTO_COUNT>
1

> <PUBCHEM_CONFORMER_ID>
0097CCF500000001

> <PUBCHEM_MMFF94_ENERGY>
52.4445

> <PUBCHEM_FEATURE_SELFOVERLAP>
38.107

> <PUBCHEM_SHAPE_FINGERPRINT>
10305334 12 14026368839752493342
10366900 7 16844177744443872916
11370993 144 16343161146189479402
114674 6 16389876462050125011
11578080 2 18043227184672280964
11582403 64 16551390888858910168
12363563 72 18057605567438060503
12403259 327 17986659386239666456
12539773 59 17972309612603895305
12553582 1 18269567202748071323
12596599 1 18113621170683537506
12633257 1 18200590294067008096
12788726 201 18340502144100785713
12824470 246 18188493604761551999
13009979 54 18261112993317183866
13083527 12 17487037119306660733
13583140 156 17060334081380880190
14081887 123 18130503063362244570
14178342 30 18342738468683255006
14289901 80 17989209256894508804
14468879 13 16271065017863189017
14787075 74 17761780967457783740
15484559 13 14572052174276588516
15842332 3 18187378626803776660
16752209 62 18412553089619068553
18186145 218 13334730224212369764
20554085 129 17770222648711857737
20645477 70 16370725924668233666
212916 134 17984428429960894833
21452121 199 18054508281721217797
21731516 1 17983877841091441631
23114952 82 13768799844284166630
23184049 29 18270685393072391289
23419403 2 17762573599023826220
23557571 272 17775577432924845385
23559900 14 17916597427534306196
23598288 3 18046096902094719601
23728640 28 18341063921480798971
238 59 16009589242707175778
3729539 64 11677932098350172041
49207404 50 16917062274489511704
5283178 26 17259895226889885774
602551 16 18272938193803152670
613672 6 17915731188318124367
81228 2 17987818366369932545

> <PUBCHEM_SHAPE_MULTIPOLES>
447.54
8.14
3.11
2.22
5.5
0.63
0.5
4.26
-1.62
-3.73
-0.91
1.4
-0.35
-2.91

> <PUBCHEM_SHAPE_SELFOVERLAP>
993.475

> <PUBCHEM_SHAPE_VOLUME>
243.6

> <PUBCHEM_COORDINATE_TYPE>
2
5
10

$$$$
