45269554
  -OEChem-10062122033D

 36 38  0     0  0  0  0  0  0999 V2000
    8.1626   -0.5416    0.0063 O   0  0  0  0  0  0  0  0  0  0  0  0
   -1.6939    1.2449   -0.0013 O   0  0  0  0  0  0  0  0  0  0  0  0
    7.6455    1.6719    0.0033 O   0  0  0  0  0  0  0  0  0  0  0  0
   -0.4785   -0.7582   -0.0021 N   0  0  0  0  0  0  0  0  0  0  0  0
   -2.7874   -0.8223   -0.0009 N   0  0  0  0  0  0  0  0  0  0  0  0
   -4.4860    0.8554   -0.0003 N   0  0  0  0  0  0  0  0  0  0  0  0
   -6.4240   -1.1721    0.0021 N   0  0  0  0  0  0  0  0  0  0  0  0
   -9.2907    0.6445    0.0020 N   0  0  0  0  0  0  0  0  0  0  0  0
    3.2261   -0.8341   -0.0015 C   0  0  0  0  0  0  0  0  0  0  0  0
    3.5162    0.5511   -0.0017 C   0  0  0  0  0  0  0  0  0  0  0  0
    0.8475   -0.3240   -0.0028 C   0  0  0  0  0  0  0  0  0  0  0  0
    1.8863   -1.2553   -0.0021 C   0  0  0  0  0  0  0  0  0  0  0  0
    2.4579    1.4744   -0.0024 C   0  0  0  0  0  0  0  0  0  0  0  0
    4.8560    0.9722   -0.0011 C   0  0  0  0  0  0  0  0  0  0  0  0
    4.2844   -1.7573   -0.0008 C   0  0  0  0  0  0  0  0  0  0  0  0
    1.1327    1.0381   -0.0031 C   0  0  0  0  0  0  0  0  0  0  0  0
    5.8948    0.0410   -0.0003 C   0  0  0  0  0  0  0  0  0  0  0  0
    5.6096   -1.3212   -0.0002 C   0  0  0  0  0  0  0  0  0  0  0  0
   -1.6629    0.0184   -0.0015 C   0  0  0  0  0  0  0  0  0  0  0  0
    7.2774    0.4926    0.0030 C   0  0  0  0  0  0  0  0  0  0  0  0
   -4.1526   -0.4505    0.0002 C   0  0  0  0  0  0  0  0  0  0  0  0
   -5.1045   -1.4463    0.0014 C   0  0  0  0  0  0  0  0  0  0  0  0
   -5.8057    1.1296    0.0005 C   0  0  0  0  0  0  0  0  0  0  0  0
   -6.7576    0.1338    0.0017 C   0  0  0  0  0  0  0  0  0  0  0  0
   -8.1530    0.4150    0.0018 C   0  0  0  0  0  0  0  0  0  0  0  0
    1.6546   -2.3194   -0.0018 H   0  0  0  0  0  0  0  0  0  0  0  0
    2.6587    2.5439   -0.0026 H   0  0  0  0  0  0  0  0  0  0  0  0
    5.0812    2.0375   -0.0008 H   0  0  0  0  0  0  0  0  0  0  0  0
    4.0843   -2.8269   -0.0006 H   0  0  0  0  0  0  0  0  0  0  0  0
    0.3872    1.8202   -0.0038 H   0  0  0  0  0  0  0  0  0  0  0  0
    6.3870   -2.0800    0.0006 H   0  0  0  0  0  0  0  0  0  0  0  0
   -0.6080   -1.7669   -0.0018 H   0  0  0  0  0  0  0  0  0  0  0  0
   -2.6065   -1.8230   -0.0010 H   0  0  0  0  0  0  0  0  0  0  0  0
   -4.8500   -2.5000    0.0017 H   0  0  0  0  0  0  0  0  0  0  0  0
   -6.0626    2.1829    0.0000 H   0  0  0  0  0  0  0  0  0  0  0  0
    9.0917   -0.2266    0.0087 H   0  0  0  0  0  0  0  0  0  0  0  0
  1 20  1  0  0  0  0
  1 36  1  0  0  0  0
  2 19  2  0  0  0  0
  3 20  2  0  0  0  0
  4 11  1  0  0  0  0
  4 19  1  0  0  0  0
  4 32  1  0  0  0  0
  5 19  1  0  0  0  0
  5 21  1  0  0  0  0
  5 33  1  0  0  0  0
  6 21  2  0  0  0  0
  6 23  1  0  0  0  0
  7 22  2  0  0  0  0
  7 24  1  0  0  0  0
  8 25  3  0  0  0  0
  9 10  2  0  0  0  0
  9 12  1  0  0  0  0
  9 15  1  0  0  0  0
 10 13  1  0  0  0  0
 10 14  1  0  0  0  0
 11 12  2  0  0  0  0
 11 16  1  0  0  0  0
 12 26  1  0  0  0  0
 13 16  2  0  0  0  0
 13 27  1  0  0  0  0
 14 17  2  0  0  0  0
 14 28  1  0  0  0  0
 15 18  2  0  0  0  0
 15 29  1  0  0  0  0
 16 30  1  0  0  0  0
 17 18  1  0  0  0  0
 17 20  1  0  0  0  0
 18 31  1  0  0  0  0
 21 22  1  0  0  0  0
 22 34  1  0  0  0  0
 23 24  2  0  0  0  0
 23 35  1  0  0  0  0
 24 25  1  0  0  0  0
M  END
> <PUBCHEM_COMPOUND_CID>
45269554

> <PUBCHEM_CONFORMER_RMSD>
0.8

> <PUBCHEM_CONFORMER_DIVERSEORDER>
1
6
18
10
13
12
9
11
3
17
19
14
23
8
22
21
15
2
20
7
16
5
4

> <PUBCHEM_MMFF94_PARTIAL_CHARGES>
34
1 -0.65
11 0.12
12 -0.15
13 -0.15
14 -0.15
15 -0.15
16 -0.15
17 0.09
18 -0.15
19 0.69
2 -0.57
20 0.63
21 0.43
22 0.16
23 0.16
24 0.38
25 0.48
26 0.15
27 0.15
28 0.15
29 0.15
3 -0.57
30 0.15
31 0.15
32 0.37
33 0.37
34 0.15
35 0.15
36 0.5
4 -0.55
5 -0.55
6 -0.62
7 -0.62
8 -0.56

> <PUBCHEM_EFFECTIVE_ROTOR_COUNT>
5

> <PUBCHEM_PHARMACOPHORE_FEATURES>
11
1 1 acceptor
1 2 acceptor
1 3 acceptor
1 4 donor
1 5 donor
1 7 acceptor
1 8 acceptor
3 1 3 20 anion
6 6 7 21 22 23 24 rings
6 9 10 11 12 13 16 rings
6 9 10 14 15 17 18 rings

> <PUBCHEM_HEAVY_ATOM_COUNT>
25

> <PUBCHEM_ATOM_DEF_STEREO_COUNT>
0

> <PUBCHEM_ATOM_UDEF_STEREO_COUNT>
0

> <PUBCHEM_BOND_DEF_STEREO_COUNT>
0

> <PUBCHEM_BOND_UDEF_STEREO_COUNT>
0

> <PUBCHEM_ISOTOPIC_ATOM_COUNT>
0

> <PUBCHEM_COMPONENT_COUNT>
1

> <PUBCHEM_CACTVS_TAUTO_COUNT>
17

> <PUBCHEM_CONFORMER_ID>
02B2C23200000001

> <PUBCHEM_MMFF94_ENERGY>
74.9791

> <PUBCHEM_FEATURE_SELFOVERLAP>
55.955

> <PUBCHEM_SHAPE_FINGERPRINT>
10050765 1 18122344571425919528
10299344 5 18410575084673654439
10411042 1 17978510833502248998
11135609 127 18264488558940671340
11315181 36 18202567281331519323
11524674 6 16702300170432232127
11638347 137 16298381341200443666
11719270 70 18131349683169007638
12236239 1 18273215291854825714
12516196 113 18341894090902973744
12838862 33 18338781382005751819
13533116 47 13901639489515357348
13885169 127 18410575059632130181
14123256 10 18410856559639796065
14170010 4 18408603678180453276
14251764 18 18410573989446418444
14251764 46 18410011035213867087
14933364 13 18410856563950587637
15183329 4 18412545396989665945
15419008 47 17385716994327733013
15461852 350 16845286168851039717
15510794 2 18113340817336687955
15840311 113 18335424595589277900
15849732 13 18131633395970697092
16087824 20 18338798919492222085
16120349 18 18409164445879265692
18681886 176 18343013436631395427
21150785 3 17203609285058447253
21267235 1 18411423907650290996
21792934 111 18343575253942903288
22224240 67 17312821593497599834
232437 2 18410012130457239107
23521765 1 18341894090849881831
23559900 14 18339636845840864785
249057 3 18411418432194716751
3004659 81 18333730225698791736
335352 9 18411701006171469365
33684 2 18410573976566804323
34797466 226 16988848293972741576
350125 39 18412261735627097112
3545911 37 18410854364916782560
4073 2 18041284373442790043
4325135 7 18410856559671503261
4339292 15 15913031172514826245
4340502 62 16515682248214875314
5758199 1 18040716965281432922
59755656 520 17458621254778175355
67123 10 18410855473018338447
8209 1 18410856559639789573

> <PUBCHEM_SHAPE_MULTIPOLES>
471.98
26.61
1.54
0.59
22.31
0.09
0
-3.27
0.04
-0.99
0
-0.03
0.01
0

> <PUBCHEM_SHAPE_SELFOVERLAP>
1038.089

> <PUBCHEM_SHAPE_VOLUME>
250

> <PUBCHEM_COORDINATE_TYPE>
2
5
10

$$$$
