44328637
  -OEChem-10062121583D

 43 45  0     0  0  0  0  0  0999 V2000
   -2.5379    3.2444   -0.0785 O   0  0  0  0  0  0  0  0  0  0  0  0
    2.0418    3.2322   -0.0029 O   0  0  0  0  0  0  0  0  0  0  0  0
    1.3330    0.4615   -0.0739 N   0  0  0  0  0  0  0  0  0  0  0  0
   -3.0454    0.4127    0.4446 N   0  0  0  0  0  0  0  0  0  0  0  0
   -0.2483    3.6384   -0.0166 N   0  0  0  0  0  0  0  0  0  0  0  0
    7.9342   -2.8973    0.1419 N   0  0  0  0  0  0  0  0  0  0  0  0
    3.4907   -0.6592    0.0055 C   0  0  0  0  0  0  0  0  0  0  0  0
    5.0053   -0.4647    0.0839 C   0  0  0  0  0  0  0  0  0  0  0  0
    2.7585    0.6790   -0.0097 C   0  0  0  0  0  0  0  0  0  0  0  0
   -0.9216    1.4620   -0.1032 C   0  0  0  0  0  0  0  0  0  0  0  0
    0.4210    1.4614   -0.0786 C   0  0  0  0  0  0  0  0  0  0  0  0
   -1.8115    0.3002   -0.1377 C   0  0  0  0  0  0  0  0  0  0  0  0
    5.7413   -1.8061    0.0598 C   0  0  0  0  0  0  0  0  0  0  0  0
   -3.7402   -0.7690    0.3170 C   0  0  0  0  0  0  0  0  0  0  0  0
   -2.9136   -1.6594   -0.3715 C   0  0  0  0  0  0  0  0  0  0  0  0
   -1.7001   -0.9711   -0.6517 C   0  0  0  0  0  0  0  0  0  0  0  0
   -1.3766    2.8733   -0.0611 C   0  0  0  0  0  0  0  0  0  0  0  0
    0.8778    2.8697   -0.0288 C   0  0  0  0  0  0  0  0  0  0  0  0
    7.2518   -1.6091    0.1753 C   0  0  0  0  0  0  0  0  0  0  0  0
   -5.0241   -1.1141    0.7538 C   0  0  0  0  0  0  0  0  0  0  0  0
   -3.3896   -2.9585   -0.6385 C   0  0  0  0  0  0  0  0  0  0  0  0
   -5.4747   -2.4083    0.4781 C   0  0  0  0  0  0  0  0  0  0  0  0
   -4.6716   -3.3179   -0.2072 C   0  0  0  0  0  0  0  0  0  0  0  0
    3.1506   -1.2584    0.8598 H   0  0  0  0  0  0  0  0  0  0  0  0
    3.2366   -1.2279   -0.8981 H   0  0  0  0  0  0  0  0  0  0  0  0
    5.3425    0.1519   -0.7583 H   0  0  0  0  0  0  0  0  0  0  0  0
    5.2577    0.0775    1.0033 H   0  0  0  0  0  0  0  0  0  0  0  0
    3.0993    1.2459   -0.8841 H   0  0  0  0  0  0  0  0  0  0  0  0
    3.0229    1.2220    0.9054 H   0  0  0  0  0  0  0  0  0  0  0  0
    5.5048   -2.3360   -0.8715 H   0  0  0  0  0  0  0  0  0  0  0  0
    5.3845   -2.4327    0.8871 H   0  0  0  0  0  0  0  0  0  0  0  0
    0.9829   -0.4902   -0.0795 H   0  0  0  0  0  0  0  0  0  0  0  0
   -3.4039    1.2373    0.9072 H   0  0  0  0  0  0  0  0  0  0  0  0
   -0.8458   -1.3712   -1.1811 H   0  0  0  0  0  0  0  0  0  0  0  0
    7.4968   -1.0930    1.1100 H   0  0  0  0  0  0  0  0  0  0  0  0
    7.6155   -0.9911   -0.6525 H   0  0  0  0  0  0  0  0  0  0  0  0
   -0.2472    4.6516    0.0153 H   0  0  0  0  0  0  0  0  0  0  0  0
   -5.6500   -0.4066    1.2872 H   0  0  0  0  0  0  0  0  0  0  0  0
   -2.7741   -3.6774   -1.1717 H   0  0  0  0  0  0  0  0  0  0  0  0
   -6.4674   -2.7085    0.8038 H   0  0  0  0  0  0  0  0  0  0  0  0
   -5.0439   -4.3186   -0.4101 H   0  0  0  0  0  0  0  0  0  0  0  0
    7.6242   -3.4706    0.9254 H   0  0  0  0  0  0  0  0  0  0  0  0
    8.9348   -2.7530    0.2718 H   0  0  0  0  0  0  0  0  0  0  0  0
  1 17  2  0  0  0  0
  2 18  2  0  0  0  0
  3  9  1  0  0  0  0
  3 11  1  0  0  0  0
  3 32  1  0  0  0  0
  4 12  1  0  0  0  0
  4 14  1  0  0  0  0
  4 33  1  0  0  0  0
  5 17  1  0  0  0  0
  5 18  1  0  0  0  0
  5 37  1  0  0  0  0
  6 19  1  0  0  0  0
  6 42  1  0  0  0  0
  6 43  1  0  0  0  0
  7  8  1  0  0  0  0
  7  9  1  0  0  0  0
  7 24  1  0  0  0  0
  7 25  1  0  0  0  0
  8 13  1  0  0  0  0
  8 26  1  0  0  0  0
  8 27  1  0  0  0  0
  9 28  1  0  0  0  0
  9 29  1  0  0  0  0
 10 11  2  0  0  0  0
 10 12  1  0  0  0  0
 10 17  1  0  0  0  0
 11 18  1  0  0  0  0
 12 16  2  0  0  0  0
 13 19  1  0  0  0  0
 13 30  1  0  0  0  0
 13 31  1  0  0  0  0
 14 15  1  0  0  0  0
 14 20  2  0  0  0  0
 15 16  1  0  0  0  0
 15 21  2  0  0  0  0
 16 34  1  0  0  0  0
 19 35  1  0  0  0  0
 19 36  1  0  0  0  0
 20 22  1  0  0  0  0
 20 38  1  0  0  0  0
 21 23  1  0  0  0  0
 21 39  1  0  0  0  0
 22 23  2  0  0  0  0
 22 40  1  0  0  0  0
 23 41  1  0  0  0  0
M  END
> <PUBCHEM_COMPOUND_CID>
44328637

> <PUBCHEM_CONFORMER_RMSD>
0.8

> <PUBCHEM_CONFORMER_DIVERSEORDER>
1
181
34
104
4
61
101
91
14
77
57
103
129
18
124
191
180
30
43
49
134
116
201
120
10
36
63
166
66
94
6
54
132
52
170
108
73
199
188
53
112
205
92
152
194
2
161
106
90
51
13
158
50
88
163
55
123
80
71
7
176
149
48
19
143
198
15
117
81
82
182
40
162
60
42
67
47
79
115
100
146
31
177
133
44
26
186
121
64
169
130
102
157
76
65
195
155
33
172
139
126
135
62
107
174
147
83
192
193
145
119
87
93
164
179
45
183
141
95
74
111
204
150
171
70
203
202
22
32
11
189
200
85
17
68
136
127
167
35
185
151
165
25
125
178
138
113
114
23
168
142
140
109
110
28
58
184
173
39
128
84
131
38
137
175
144
86
69
190
153
41
156
98
96
29
160
21
196
105
8
148
37
56
197
118
99
46
27
75
16
187
122
24
97
159
3
72
154
12
5
20
9
89
59
78

> <PUBCHEM_MMFF94_PARTIAL_CHARGES>
29
1 -0.57
10 0.06
11 0.11
12 -0.2
14 -0.15
16 -0.15
17 0.62
18 0.62
19 0.27
2 -0.57
20 -0.15
21 -0.15
22 -0.15
23 -0.15
3 -0.87
32 0.4
33 0.27
34 0.15
37 0.37
38 0.15
39 0.15
4 0.03
40 0.15
41 0.15
42 0.36
43 0.36
5 -0.49
6 -0.99
9 0.37

> <PUBCHEM_EFFECTIVE_ROTOR_COUNT>
7.2

> <PUBCHEM_PHARMACOPHORE_FEATURES>
12
1 1 acceptor
1 2 acceptor
1 3 cation
1 3 donor
1 4 cation
1 4 donor
1 5 donor
1 6 cation
1 6 donor
5 4 12 14 15 16 rings
5 5 10 11 17 18 rings
6 14 15 20 21 22 23 rings

> <PUBCHEM_HEAVY_ATOM_COUNT>
23

> <PUBCHEM_ATOM_DEF_STEREO_COUNT>
0

> <PUBCHEM_ATOM_UDEF_STEREO_COUNT>
0

> <PUBCHEM_BOND_DEF_STEREO_COUNT>
0

> <PUBCHEM_BOND_UDEF_STEREO_COUNT>
0

> <PUBCHEM_ISOTOPIC_ATOM_COUNT>
0

> <PUBCHEM_COMPONENT_COUNT>
1

> <PUBCHEM_CACTVS_TAUTO_COUNT>
8

> <PUBCHEM_CONFORMER_ID>
02A466BD00000001

> <PUBCHEM_MMFF94_ENERGY>
34.4876

> <PUBCHEM_FEATURE_SELFOVERLAP>
60.988

> <PUBCHEM_SHAPE_FINGERPRINT>
10050765 1 18410293618852342196
10411042 1 18410293639793376333
10622 236 17678722455068781354
11809386 21 18187921721482117362
12107183 9 18341907290175868169
12166972 35 17749392585590955926
12553582 1 18336814373000042267
12643181 29 18336820880065042270
12760667 363 18412820283333862431
13140716 1 18342461469479614065
13533116 47 17979073018555372139
13540713 4 18338779196031974336
13540713 5 18263946426282432772
13631057 29 18335981978995856458
13911852 28 18339640169676033775
13955234 65 17765437934473260649
14117953 113 18343302557204372383
14420673 8 18409733971670405115
14429380 30 18408325510260242274
14844126 61 18337392621631850648
14866123 147 18339646646834700561
15042514 8 18339362963548934884
15250474 111 17971743377744810370
15352361 1 18410855498920355342
16110190 28 18201719600215264262
16120349 21 18342186526941828449
16992752 21 18411149039324987524
17492 89 18050850219774430579
17780758 139 17988926643355845714
19246450 95 18197518255085531171
20832881 197 18262238932242638035
21478907 32 18410575123719204941
22950370 63 18338521940353798478
23522609 53 18122098435630855964
23559900 14 18339352097682401345
3004659 81 17967810570237550638
335352 9 18410572864998794413
3421961 26 18268147750031158544
397830 11 18201422668400095290
4409770 3 18190737540786050269
484985 159 18263637386056981415
5104073 3 17914068740054001243
559249 180 18410575076717112339
56633871 153 18271529788117502975
6058803 2 17768541834987727855
77188 2 18338234972083099268
7970288 3 18410008870915249794
9709674 26 17831299772310088571

> <PUBCHEM_SHAPE_MULTIPOLES>
441.67
15.27
4.8
0.69
28.3
2.57
0
-22.33
2.08
-0.79
-0.24
-0.36
-0.16
-0.34

> <PUBCHEM_SHAPE_SELFOVERLAP>
951.944

> <PUBCHEM_SHAPE_VOLUME>
245.2

> <PUBCHEM_COORDINATE_TYPE>
2
5
10

$$$$
