5213561
  -OEChem-10062121543D

 48 52  0     0  0  0  0  0  0999 V2000
   -8.1401   -0.6294   -1.1342 Cl  0  0  0  0  0  0  0  0  0  0  0  0
   -8.4624   -0.7043    2.0842 Cl  0  0  0  0  0  0  0  0  0  0  0  0
    2.8912    2.4299    0.1475 O   0  0  0  0  0  0  0  0  0  0  0  0
   -1.8827    0.9017    1.5031 O   0  0  0  0  0  0  0  0  0  0  0  0
    3.6851    0.3072    0.1141 N   0  0  0  0  0  0  0  0  0  0  0  0
   -3.2497    0.5838   -0.3924 N   0  0  0  0  0  0  0  0  0  0  0  0
   -2.9694    0.6509   -1.7339 N   0  0  0  0  0  0  0  0  0  0  0  0
    4.7018   -1.6824    0.1353 N   0  0  0  0  0  0  0  0  0  0  0  0
    2.0863   -4.1853   -0.5930 N   0  0  0  0  0  0  0  0  0  0  0  0
    1.3252    0.6421   -0.3199 C   0  0  0  0  0  0  0  0  0  0  0  0
    3.5483   -1.0651   -0.0346 C   0  0  0  0  0  0  0  0  0  0  0  0
    1.1909   -0.8120   -0.4735 C   0  0  0  0  0  0  0  0  0  0  0  0
    5.0220    0.5524    0.3978 C   0  0  0  0  0  0  0  0  0  0  0  0
    2.6544    1.2425   -0.0046 C   0  0  0  0  0  0  0  0  0  0  0  0
   -1.0248    1.1597   -0.7416 C   0  0  0  0  0  0  0  0  0  0  0  0
    2.2691   -1.6164   -0.3328 C   0  0  0  0  0  0  0  0  0  0  0  0
    0.3234    1.5300   -0.4415 C   0  0  0  0  0  0  0  0  0  0  0  0
    5.6203   -0.7047    0.4017 C   0  0  0  0  0  0  0  0  0  0  0  0
   -1.6597    1.0179   -1.9165 C   0  0  0  0  0  0  0  0  0  0  0  0
   -2.0723    0.8771    0.2979 C   0  0  0  0  0  0  0  0  0  0  0  0
   -0.1916   -1.3434   -0.7902 C   0  0  0  0  0  0  0  0  0  0  0  0
    5.7572    1.7203    0.6468 C   0  0  0  0  0  0  0  0  0  0  0  0
   -4.4727    0.2814    0.1716 C   0  0  0  0  0  0  0  0  0  0  0  0
    6.9971   -0.8248    0.6593 C   0  0  0  0  0  0  0  0  0  0  0  0
   -1.1361    1.2281   -3.2941 C   0  0  0  0  0  0  0  0  0  0  0  0
    7.1265    1.5848    0.9019 C   0  0  0  0  0  0  0  0  0  0  0  0
    7.7387    0.3335    0.9084 C   0  0  0  0  0  0  0  0  0  0  0  0
   -5.5827    0.0048   -0.6396 C   0  0  0  0  0  0  0  0  0  0  0  0
   -4.6251    0.2461    1.5653 C   0  0  0  0  0  0  0  0  0  0  0  0
    2.1682   -3.0340   -0.4765 C   0  0  0  0  0  0  0  0  0  0  0  0
   -6.8184   -0.3007   -0.0695 C   0  0  0  0  0  0  0  0  0  0  0  0
   -5.8608   -0.0593    2.1354 C   0  0  0  0  0  0  0  0  0  0  0  0
   -6.9574   -0.3328    1.3181 C   0  0  0  0  0  0  0  0  0  0  0  0
    0.4767    2.5948   -0.2871 H   0  0  0  0  0  0  0  0  0  0  0  0
   -3.6748    0.8599   -2.4272 H   0  0  0  0  0  0  0  0  0  0  0  0
   -0.5183   -1.0871   -1.7958 H   0  0  0  0  0  0  0  0  0  0  0  0
   -0.9052   -1.1861    0.0154 H   0  0  0  0  0  0  0  0  0  0  0  0
   -0.1783   -2.4399   -0.8440 H   0  0  0  0  0  0  0  0  0  0  0  0
    5.3003    2.7031    0.6461 H   0  0  0  0  0  0  0  0  0  0  0  0
    7.4798   -1.7971    0.6660 H   0  0  0  0  0  0  0  0  0  0  0  0
   -1.2316    0.3106   -3.8837 H   0  0  0  0  0  0  0  0  0  0  0  0
   -0.0801    1.5155   -3.2921 H   0  0  0  0  0  0  0  0  0  0  0  0
   -1.6975    2.0212   -3.7985 H   0  0  0  0  0  0  0  0  0  0  0  0
    7.7219    2.4731    1.0983 H   0  0  0  0  0  0  0  0  0  0  0  0
    8.8038    0.2557    1.1093 H   0  0  0  0  0  0  0  0  0  0  0  0
   -5.4960    0.0196   -1.7234 H   0  0  0  0  0  0  0  0  0  0  0  0
   -3.8325    0.4459    2.2722 H   0  0  0  0  0  0  0  0  0  0  0  0
   -5.9530   -0.0797    3.2187 H   0  0  0  0  0  0  0  0  0  0  0  0
  1 31  1  0  0  0  0
  2 33  1  0  0  0  0
  3 14  2  0  0  0  0
  4 20  2  0  0  0  0
  5 11  1  0  0  0  0
  5 13  1  0  0  0  0
  5 14  1  0  0  0  0
  6  7  1  0  0  0  0
  6 20  1  0  0  0  0
  6 23  1  0  0  0  0
  7 19  1  0  0  0  0
  7 35  1  0  0  0  0
  8 11  2  0  0  0  0
  8 18  1  0  0  0  0
  9 30  3  0  0  0  0
 10 12  1  0  0  0  0
 10 14  1  0  0  0  0
 10 17  2  3  0  0  0
 11 16  1  0  0  0  0
 12 16  2  0  0  0  0
 12 21  1  0  0  0  0
 13 18  1  0  0  0  0
 13 22  2  0  0  0  0
 15 17  1  0  0  0  0
 15 19  2  0  0  0  0
 15 20  1  0  0  0  0
 16 30  1  0  0  0  0
 17 34  1  0  0  0  0
 18 24  2  0  0  0  0
 19 25  1  0  0  0  0
 21 36  1  0  0  0  0
 21 37  1  0  0  0  0
 21 38  1  0  0  0  0
 22 26  1  0  0  0  0
 22 39  1  0  0  0  0
 23 28  2  0  0  0  0
 23 29  1  0  0  0  0
 24 27  1  0  0  0  0
 24 40  1  0  0  0  0
 25 41  1  0  0  0  0
 25 42  1  0  0  0  0
 25 43  1  0  0  0  0
 26 27  2  0  0  0  0
 26 44  1  0  0  0  0
 27 45  1  0  0  0  0
 28 31  1  0  0  0  0
 28 46  1  0  0  0  0
 29 32  2  0  0  0  0
 29 47  1  0  0  0  0
 31 33  2  0  0  0  0
 32 33  1  0  0  0  0
 32 48  1  0  0  0  0
M  END
> <PUBCHEM_COMPOUND_CID>
5213561

> <PUBCHEM_CONFORMER_RMSD>
0.8

> <PUBCHEM_CONFORMER_DIVERSEORDER>
1
3
6
8
2
4
7
5

> <PUBCHEM_MMFF94_PARTIAL_CHARGES>
42
1 -0.18
10 0.01
11 0.14
12 -0.14
13 -0.15
14 0.56
15 0.01
16 0.11
17 -0.15
18 0.23
19 -0.04
2 -0.18
20 0.62
21 0.14
22 -0.15
23 0.12
24 -0.15
25 0.14
26 -0.15
27 -0.15
28 -0.15
29 -0.15
3 -0.57
30 0.49
31 0.18
32 -0.15
33 0.18
34 0.15
35 0.4
39 0.15
4 -0.57
40 0.15
44 0.15
45 0.15
46 0.15
47 0.15
48 0.15
5 0.29
6 -0.16
7 -0.52
8 -0.57
9 -0.56

> <PUBCHEM_EFFECTIVE_ROTOR_COUNT>
2

> <PUBCHEM_PHARMACOPHORE_FEATURES>
9
1 3 acceptor
1 4 acceptor
1 7 donor
1 9 acceptor
5 5 8 11 13 18 rings
5 6 7 15 19 20 rings
6 13 18 22 24 26 27 rings
6 23 28 29 31 32 33 rings
6 5 10 11 12 14 16 rings

> <PUBCHEM_HEAVY_ATOM_COUNT>
33

> <PUBCHEM_ATOM_DEF_STEREO_COUNT>
0

> <PUBCHEM_ATOM_UDEF_STEREO_COUNT>
0

> <PUBCHEM_BOND_DEF_STEREO_COUNT>
0

> <PUBCHEM_BOND_UDEF_STEREO_COUNT>
1

> <PUBCHEM_ISOTOPIC_ATOM_COUNT>
0

> <PUBCHEM_COMPONENT_COUNT>
1

> <PUBCHEM_CACTVS_TAUTO_COUNT>
6

> <PUBCHEM_CONFORMER_ID>
004F8D7900000001

> <PUBCHEM_MMFF94_ENERGY>
117.0548

> <PUBCHEM_FEATURE_SELFOVERLAP>
45.887

> <PUBCHEM_SHAPE_FINGERPRINT>
10 15 18040992973635090136
106641 1 18335984246411417848
10930396 42 17313652867343795104
11421498 54 17560520595511090610
11607047 141 16413536431707908935
11719270 70 18410291415369842010
11963148 33 17022615399082660835
12035758 1 18335128818102179496
12202916 173 17822008718255370315
12236239 1 17489869327846715685
12596602 18 17561369452699843507
12741549 16 18114175332902399781
12857493 111 17530681013659203213
13402501 40 18113902654001918970
13540713 4 18045496417873329870
13782708 43 17823135618894964554
13811026 1 18113614564733114275
13914758 101 12685084865593980823
14028597 1 17632582617264648842
14251764 18 17703790340491140769
14294032 229 15482665754913370845
14394314 77 18060425682199640457
14849402 71 17917708071522700256
14856354 85 16487250015628769181
15188451 53 15430034357714917218
15419008 91 17023448867841448629
15510800 12 17749406862194233715
15849732 13 13551190000362077186
19303781 99 16952263251587263979
19315958 150 18341900654467667779
19319366 153 18060414703619821878
20105231 36 18341335501507559086
2026 5 17458346351818775075
20505436 4 16988841679069004926
20554085 129 13758076264392001005
21267235 1 18340486678392960164
21521721 280 18272647987437478464
21623969 137 18408603643403730214
21781051 124 18187377519525302738
22149856 69 18338248063200855305
22224240 67 18342736338527175890
22956985 138 17680702619813240794
23559900 14 15792023332332819765
23576562 1 9150588211170882690
3004659 81 14201399412920051005
3178227 256 18411702106052505104
3383291 50 17240773908582253355
350125 39 18339636854240589788
4093350 32 16773803567580914318
4340502 62 18272657852471039319
5104073 3 18191586354534039640
5758199 1 18060137661075240786
59682541 35 18335420200829723648
6009941 240 18114177476997947853
6126387 218 18408884019913311425
6703917 75 14045467782033562101
86090 222 18115045016993817275
9689198 14 14979956981887131506

> <PUBCHEM_SHAPE_MULTIPOLES>
646.22
22.81
2.31
1.84
14.62
2.06
-0.59
1.85
12.02
-3.52
-0.72
3.29
-0.49
1.59

> <PUBCHEM_SHAPE_SELFOVERLAP>
1438.698

> <PUBCHEM_SHAPE_VOLUME>
347

> <PUBCHEM_COORDINATE_TYPE>
2
5
10

$$$$
