18516203
  -OEChem-10062121533D

 36 39  0     0  0  0  0  0  0999 V2000
   -3.4222    1.6037   -0.9056 S   0  0  0  0  0  0  0  0  0  0  0  0
    6.7952   -1.2433    0.2728 F   0  0  0  0  0  0  0  0  0  0  0  0
    5.6929   -2.6008   -1.0101 F   0  0  0  0  0  0  0  0  0  0  0  0
    6.1764   -0.5995   -1.7100 F   0  0  0  0  0  0  0  0  0  0  0  0
    0.8826    0.6811    1.4870 O   0  0  0  0  0  0  0  0  0  0  0  0
   -5.4808   -0.6236   -0.5612 O   0  0  0  0  0  0  0  0  0  0  0  0
    0.0416    3.6113   -0.5171 N   0  0  0  0  0  0  0  0  0  0  0  0
   -4.1858   -1.9162    0.7260 N   0  0  0  0  0  0  0  0  0  0  0  0
   -5.3970   -2.5603    0.5554 N   0  0  0  0  0  0  0  0  0  0  0  0
   -1.1648    1.2197    0.2942 C   0  0  0  0  0  0  0  0  0  0  0  0
   -1.8337    2.1434   -0.5143 C   0  0  0  0  0  0  0  0  0  0  0  0
    0.1495    1.5219    0.6988 C   0  0  0  0  0  0  0  0  0  0  0  0
   -1.9910    0.0794    0.5714 C   0  0  0  0  0  0  0  0  0  0  0  0
   -3.2310    0.1618   -0.0163 C   0  0  0  0  0  0  0  0  0  0  0  0
   -1.2201    3.3330   -0.9120 C   0  0  0  0  0  0  0  0  0  0  0  0
    2.0724    0.1992    0.9733 C   0  0  0  0  0  0  0  0  0  0  0  0
   -4.2798   -0.7908    0.0571 C   0  0  0  0  0  0  0  0  0  0  0  0
    0.6869    2.7219    0.2622 C   0  0  0  0  0  0  0  0  0  0  0  0
    4.4728   -0.7759   -0.0606 C   0  0  0  0  0  0  0  0  0  0  0  0
    3.2200    0.1889    1.7660 C   0  0  0  0  0  0  0  0  0  0  0  0
    2.1248   -0.2781   -0.3362 C   0  0  0  0  0  0  0  0  0  0  0  0
    4.4204   -0.2987    1.2490 C   0  0  0  0  0  0  0  0  0  0  0  0
    3.3251   -0.7655   -0.8532 C   0  0  0  0  0  0  0  0  0  0  0  0
    5.7569   -1.2955   -0.6133 C   0  0  0  0  0  0  0  0  0  0  0  0
   -6.1211   -1.7697   -0.2019 C   0  0  0  0  0  0  0  0  0  0  0  0
   -7.4902   -1.9473   -0.7014 C   0  0  0  0  0  0  0  0  0  0  0  0
   -1.6704   -0.7588    1.1795 H   0  0  0  0  0  0  0  0  0  0  0  0
   -1.7083    4.0702   -1.5375 H   0  0  0  0  0  0  0  0  0  0  0  0
    1.6915    3.0238    0.5440 H   0  0  0  0  0  0  0  0  0  0  0  0
    3.1845    0.5596    2.7866 H   0  0  0  0  0  0  0  0  0  0  0  0
    1.2425   -0.2986   -0.9698 H   0  0  0  0  0  0  0  0  0  0  0  0
    5.3036   -0.2981    1.8818 H   0  0  0  0  0  0  0  0  0  0  0  0
    3.3556   -1.1387   -1.8735 H   0  0  0  0  0  0  0  0  0  0  0  0
   -8.1371   -1.1394   -0.3469 H   0  0  0  0  0  0  0  0  0  0  0  0
   -7.5037   -1.9476   -1.7954 H   0  0  0  0  0  0  0  0  0  0  0  0
   -7.9095   -2.8966   -0.3550 H   0  0  0  0  0  0  0  0  0  0  0  0
  1 11  1  0  0  0  0
  1 14  1  0  0  0  0
  2 24  1  0  0  0  0
  3 24  1  0  0  0  0
  4 24  1  0  0  0  0
  5 12  1  0  0  0  0
  5 16  1  0  0  0  0
  6 17  1  0  0  0  0
  6 25  1  0  0  0  0
  7 15  2  0  0  0  0
  7 18  1  0  0  0  0
  8  9  1  0  0  0  0
  8 17  2  0  0  0  0
  9 25  2  0  0  0  0
 10 11  2  0  0  0  0
 10 12  1  0  0  0  0
 10 13  1  0  0  0  0
 11 15  1  0  0  0  0
 12 18  2  0  0  0  0
 13 14  2  0  0  0  0
 13 27  1  0  0  0  0
 14 17  1  0  0  0  0
 15 28  1  0  0  0  0
 16 20  2  0  0  0  0
 16 21  1  0  0  0  0
 18 29  1  0  0  0  0
 19 22  2  0  0  0  0
 19 23  1  0  0  0  0
 19 24  1  0  0  0  0
 20 22  1  0  0  0  0
 20 30  1  0  0  0  0
 21 23  2  0  0  0  0
 21 31  1  0  0  0  0
 22 32  1  0  0  0  0
 23 33  1  0  0  0  0
 25 26  1  0  0  0  0
 26 34  1  0  0  0  0
 26 35  1  0  0  0  0
 26 36  1  0  0  0  0
M  END
> <PUBCHEM_COMPOUND_CID>
18516203

> <PUBCHEM_CONFORMER_RMSD>
0.8

> <PUBCHEM_CONFORMER_DIVERSEORDER>
1
8
9
13
21
12
19
22
14
5
20
11
6
10
4
7
18
3
17
2
16
15

> <PUBCHEM_MMFF94_PARTIAL_CHARGES>
32
1 -0.08
11 0.04
12 0.08
13 -0.15
14 0.04
15 0.16
16 0.08
17 0.48
18 0.16
19 -0.14
2 -0.34
20 -0.15
21 -0.15
22 -0.15
23 -0.15
24 1.16
25 0.3
26 0.18
27 0.15
28 0.15
29 0.15
3 -0.34
30 0.15
31 0.15
32 0.15
33 0.15
4 -0.34
5 -0.17
6 -0.28
7 -0.62
8 -0.34
9 -0.34

> <PUBCHEM_EFFECTIVE_ROTOR_COUNT>
4

> <PUBCHEM_PHARMACOPHORE_FEATURES>
6
1 5 acceptor
1 7 acceptor
5 1 10 11 13 14 rings
5 6 8 9 17 25 rings
6 16 19 20 21 22 23 rings
6 7 10 11 12 15 18 rings

> <PUBCHEM_HEAVY_ATOM_COUNT>
26

> <PUBCHEM_ATOM_DEF_STEREO_COUNT>
0

> <PUBCHEM_ATOM_UDEF_STEREO_COUNT>
0

> <PUBCHEM_BOND_DEF_STEREO_COUNT>
0

> <PUBCHEM_BOND_UDEF_STEREO_COUNT>
0

> <PUBCHEM_ISOTOPIC_ATOM_COUNT>
0

> <PUBCHEM_COMPONENT_COUNT>
1

> <PUBCHEM_CACTVS_TAUTO_COUNT>
1

> <PUBCHEM_CONFORMER_ID>
011A88EB00000001

> <PUBCHEM_MMFF94_ENERGY>
55.0122

> <PUBCHEM_FEATURE_SELFOVERLAP>
30.513

> <PUBCHEM_SHAPE_FINGERPRINT>
10076449 9 17704081698862845926
10622 236 17388234768127470450
10692045 39 10231493873529005100
11796584 16 17979635633480102426
12166972 35 17749112201060775582
12342043 65 17988640753759221042
12623949 98 17846789502921830454
12633257 1 15697993050596093788
12760667 363 18413390947644561675
12895836 83 13190334691379611707
13009979 54 18342749541747793953
13103583 49 15051723209696662156
13402501 40 18272653449940280519
13533116 47 18058165214920171577
13540713 4 18267562715615254097
1361 87 17749959993815668579
13631057 29 18409167671652379826
13673619 4 18131351912361892656
13690498 29 18113334211486887813
13757389 114 18119532033868742765
13782708 43 18131349670579238294
14117953 113 18412539930135154023
14123256 34 18409171043260093251
14216079 64 18272368681345918615
14251764 30 18413670214206346007
14347332 77 18262514767748109858
14556957 393 17095533854779155941
14739800 52 8934735361382032575
14790565 3 17615960012010059853
14931854 50 17749100080969618635
14950920 106 15841261640631076435
14951699 99 10159110863052256954
15183329 4 16732976527509011463
15324884 4 17984949697304369608
15461852 350 18334862668096295030
16994733 274 13623798420272907327
17138139 8 17531521074601258106
1813 80 18409447016225474497
18222031 100 18409728490916965617
18335252 98 18272370880711688670
18643901 69 18340496573011478567
193927 3 18410855508042767401
19784866 240 18342178899428115721
20771845 65 18201440332994428937
20775438 99 17903628923596608546
21054139 6 17967814904265871130
21267235 1 18334575781218074987
21307412 95 18267859498260726173
21344244 246 18116443724870646620
21623969 137 17418094304334631070
21682296 61 18343302596133163087
23379529 103 18264210399430455459
23559900 14 18338226060489878352
255183 451 18336265764575119941
2838139 119 14273734032253496014
3004659 81 17967811678090978871
329604 57 18408047316495549468
335352 9 18334569128429947133
3421961 26 18266173014790538601
437815 12 18342453755876222697
465052 167 18270965760153118647
54076057 255 14201657773036818879
636775 8 17916597428215321342
6669772 16 17906744952988918876
6700243 42 17912955810948535988
7237137 82 17677042456724345589
77188 2 18343018938991975713
7970288 3 18410575097743952239
8217 86 18411141333620979468
86090 222 17346053211503435598

> <PUBCHEM_SHAPE_MULTIPOLES>
490.41
16.63
3.29
1.24
1.35
2.24
-0.11
-19.01
4.04
2.36
0.82
-1.37
-0.04
1.43

> <PUBCHEM_SHAPE_SELFOVERLAP>
1083.132

> <PUBCHEM_SHAPE_VOLUME>
267.9

> <PUBCHEM_COORDINATE_TYPE>
2
5
10

$$$$
