71552696
  -OEChem-10052120443D

 75 78  0     0  0  0  0  0  0999 V2000
   -8.6023   -0.6452    1.0731 O   0  0  0  0  0  0  0  0  0  0  0  0
   -2.8262    1.8641   -2.3886 O   0  0  0  0  0  0  0  0  0  0  0  0
    5.6091   -2.6990   -0.6138 O   0  0  0  0  0  0  0  0  0  0  0  0
    8.1230   -1.9886    0.3356 O   0  0  0  0  0  0  0  0  0  0  0  0
   -0.7924    0.1245   -1.0282 N   0  0  0  0  0  0  0  0  0  0  0  0
   -6.2978   -1.0649    0.8385 N   0  0  0  0  0  0  0  0  0  0  0  0
    0.6889    1.5161    0.1359 N   0  0  0  0  0  0  0  0  0  0  0  0
   -3.8954    2.3605   -0.3918 N   0  0  0  0  0  0  0  0  0  0  0  0
    0.0524    3.7816    0.6553 N   0  0  0  0  0  0  0  0  0  0  0  0
    2.1455    2.9398    1.3006 N   0  0  0  0  0  0  0  0  0  0  0  0
    0.1257   -0.9943   -1.0126 C   0  0  0  0  0  0  0  0  0  0  0  0
    0.0259   -1.7554    0.3036 C   0  0  0  0  0  0  0  0  0  0  0  0
   -0.2852   -2.0434   -2.0386 C   0  0  0  0  0  0  0  0  0  0  0  0
   -1.1984   -2.6541    0.1443 C   0  0  0  0  0  0  0  0  0  0  0  0
   -1.3943   -2.8442   -1.3597 C   0  0  0  0  0  0  0  0  0  0  0  0
   -0.5100    1.3556   -0.4619 C   0  0  0  0  0  0  0  0  0  0  0  0
   -5.4521   -2.2242    0.6803 C   0  0  0  0  0  0  0  0  0  0  0  0
   -6.3054   -3.3499    1.2294 C   0  0  0  0  0  0  0  0  0  0  0  0
   -5.7733    0.2781    0.7178 C   0  0  0  0  0  0  0  0  0  0  0  0
   -7.7328   -2.9040    0.9358 C   0  0  0  0  0  0  0  0  0  0  0  0
   -1.4665    2.3471   -0.5403 C   0  0  0  0  0  0  0  0  0  0  0  0
   -7.6433   -1.3965    0.9790 C   0  0  0  0  0  0  0  0  0  0  0  0
   -5.7656    0.7770   -0.7256 C   0  0  0  0  0  0  0  0  0  0  0  0
   -5.2463    2.2047   -0.8817 C   0  0  0  0  0  0  0  0  0  0  0  0
   -2.7580    2.1778   -1.1869 C   0  0  0  0  0  0  0  0  0  0  0  0
   -1.1270    3.5515    0.0416 C   0  0  0  0  0  0  0  0  0  0  0  0
    0.9008    2.7358    0.6658 C   0  0  0  0  0  0  0  0  0  0  0  0
    3.1459    1.9229    1.3899 C   0  0  0  0  0  0  0  0  0  0  0  0
    3.9782    1.8610    0.1100 C   0  0  0  0  0  0  0  0  0  0  0  0
    5.0809    0.8321    0.1697 C   0  0  0  0  0  0  0  0  0  0  0  0
    4.8384   -0.4753   -0.2514 C   0  0  0  0  0  0  0  0  0  0  0  0
    6.3426    1.1890    0.6452 C   0  0  0  0  0  0  0  0  0  0  0  0
    5.8578   -1.4260   -0.1972 C   0  0  0  0  0  0  0  0  0  0  0  0
    7.3620    0.2383    0.6997 C   0  0  0  0  0  0  0  0  0  0  0  0
    7.1196   -1.0692    0.2784 C   0  0  0  0  0  0  0  0  0  0  0  0
    4.2929   -2.9807   -1.0856 C   0  0  0  0  0  0  0  0  0  0  0  0
    9.3828   -1.5427    0.8343 C   0  0  0  0  0  0  0  0  0  0  0  0
    1.1486   -0.6567   -1.2150 H   0  0  0  0  0  0  0  0  0  0  0  0
   -0.0559   -1.1128    1.1858 H   0  0  0  0  0  0  0  0  0  0  0  0
    0.9168   -2.3828    0.4317 H   0  0  0  0  0  0  0  0  0  0  0  0
    0.5626   -2.7080   -2.2466 H   0  0  0  0  0  0  0  0  0  0  0  0
   -0.6167   -1.6146   -2.9898 H   0  0  0  0  0  0  0  0  0  0  0  0
   -1.0620   -3.6090    0.6618 H   0  0  0  0  0  0  0  0  0  0  0  0
   -2.0825   -2.1711    0.5753 H   0  0  0  0  0  0  0  0  0  0  0  0
   -2.3792   -2.4660   -1.6574 H   0  0  0  0  0  0  0  0  0  0  0  0
   -1.3514   -3.9004   -1.6444 H   0  0  0  0  0  0  0  0  0  0  0  0
   -1.7703   -0.0931   -1.1904 H   0  0  0  0  0  0  0  0  0  0  0  0
   -5.2359   -2.3561   -0.3847 H   0  0  0  0  0  0  0  0  0  0  0  0
   -4.5210   -2.1053    1.2408 H   0  0  0  0  0  0  0  0  0  0  0  0
   -6.1644   -3.4265    2.3149 H   0  0  0  0  0  0  0  0  0  0  0  0
   -6.0622   -4.3213    0.7902 H   0  0  0  0  0  0  0  0  0  0  0  0
   -4.7704    0.2947    1.1574 H   0  0  0  0  0  0  0  0  0  0  0  0
   -6.4112    0.9392    1.3159 H   0  0  0  0  0  0  0  0  0  0  0  0
   -8.4377   -3.2772    1.6825 H   0  0  0  0  0  0  0  0  0  0  0  0
   -8.0490   -3.2088   -0.0667 H   0  0  0  0  0  0  0  0  0  0  0  0
   -5.1510    0.1009   -1.3338 H   0  0  0  0  0  0  0  0  0  0  0  0
   -6.7813    0.7240   -1.1368 H   0  0  0  0  0  0  0  0  0  0  0  0
   -5.8763    2.9011   -0.3183 H   0  0  0  0  0  0  0  0  0  0  0  0
   -5.2799    2.4968   -1.9367 H   0  0  0  0  0  0  0  0  0  0  0  0
   -3.7755    2.6001    0.5883 H   0  0  0  0  0  0  0  0  0  0  0  0
   -1.8041    4.4002    0.0330 H   0  0  0  0  0  0  0  0  0  0  0  0
    2.3220    3.8617    1.6818 H   0  0  0  0  0  0  0  0  0  0  0  0
    2.7103    0.9448    1.6304 H   0  0  0  0  0  0  0  0  0  0  0  0
    3.8060    2.1653    2.2322 H   0  0  0  0  0  0  0  0  0  0  0  0
    3.3382    1.6495   -0.7566 H   0  0  0  0  0  0  0  0  0  0  0  0
    4.4162    2.8470   -0.0970 H   0  0  0  0  0  0  0  0  0  0  0  0
    3.8374   -0.6938   -0.6082 H   0  0  0  0  0  0  0  0  0  0  0  0
    6.5419    2.2045    0.9775 H   0  0  0  0  0  0  0  0  0  0  0  0
    8.3158    0.5866    1.0806 H   0  0  0  0  0  0  0  0  0  0  0  0
    4.2736   -4.0367   -1.3748 H   0  0  0  0  0  0  0  0  0  0  0  0
    4.0525   -2.4016   -1.9838 H   0  0  0  0  0  0  0  0  0  0  0  0
    3.5448   -2.8548   -0.2955 H   0  0  0  0  0  0  0  0  0  0  0  0
   10.0613   -2.4019    0.8098 H   0  0  0  0  0  0  0  0  0  0  0  0
    9.3127   -1.2229    1.8796 H   0  0  0  0  0  0  0  0  0  0  0  0
    9.8219   -0.7726    0.1910 H   0  0  0  0  0  0  0  0  0  0  0  0
  1 22  2  0  0  0  0
  2 25  2  0  0  0  0
  3 33  1  0  0  0  0
  3 36  1  0  0  0  0
  4 35  1  0  0  0  0
  4 37  1  0  0  0  0
  5 11  1  0  0  0  0
  5 16  1  0  0  0  0
  5 47  1  0  0  0  0
  6 17  1  0  0  0  0
  6 19  1  0  0  0  0
  6 22  1  0  0  0  0
  7 16  2  0  0  0  0
  7 27  1  0  0  0  0
  8 24  1  0  0  0  0
  8 25  1  0  0  0  0
  8 60  1  0  0  0  0
  9 26  1  0  0  0  0
  9 27  2  0  0  0  0
 10 27  1  0  0  0  0
 10 28  1  0  0  0  0
 10 62  1  0  0  0  0
 11 12  1  0  0  0  0
 11 13  1  0  0  0  0
 11 38  1  0  0  0  0
 12 14  1  0  0  0  0
 12 39  1  0  0  0  0
 12 40  1  0  0  0  0
 13 15  1  0  0  0  0
 13 41  1  0  0  0  0
 13 42  1  0  0  0  0
 14 15  1  0  0  0  0
 14 43  1  0  0  0  0
 14 44  1  0  0  0  0
 15 45  1  0  0  0  0
 15 46  1  0  0  0  0
 16 21  1  0  0  0  0
 17 18  1  0  0  0  0
 17 48  1  0  0  0  0
 17 49  1  0  0  0  0
 18 20  1  0  0  0  0
 18 50  1  0  0  0  0
 18 51  1  0  0  0  0
 19 23  1  0  0  0  0
 19 52  1  0  0  0  0
 19 53  1  0  0  0  0
 20 22  1  0  0  0  0
 20 54  1  0  0  0  0
 20 55  1  0  0  0  0
 21 25  1  0  0  0  0
 21 26  2  0  0  0  0
 23 24  1  0  0  0  0
 23 56  1  0  0  0  0
 23 57  1  0  0  0  0
 24 58  1  0  0  0  0
 24 59  1  0  0  0  0
 26 61  1  0  0  0  0
 28 29  1  0  0  0  0
 28 63  1  0  0  0  0
 28 64  1  0  0  0  0
 29 30  1  0  0  0  0
 29 65  1  0  0  0  0
 29 66  1  0  0  0  0
 30 31  2  0  0  0  0
 30 32  1  0  0  0  0
 31 33  1  0  0  0  0
 31 67  1  0  0  0  0
 32 34  2  0  0  0  0
 32 68  1  0  0  0  0
 33 35  2  0  0  0  0
 34 35  1  0  0  0  0
 34 69  1  0  0  0  0
 36 70  1  0  0  0  0
 36 71  1  0  0  0  0
 36 72  1  0  0  0  0
 37 73  1  0  0  0  0
 37 74  1  0  0  0  0
 37 75  1  0  0  0  0
M  END
> <PUBCHEM_COMPOUND_CID>
71552696

> <PUBCHEM_CONFORMER_RMSD>
1.6

> <PUBCHEM_CONFORMER_DIVERSEORDER>
1
137
100
53
138
118
99
134
33
68
67
114
95
62
88
83
71
44
110
107
81
56
132
12
74
4
15
104
140
142
105
22
98
117
26
124
23
66
115
126
64
75
40
73
79
82
116
39
25
113
129
19
108
109
9
58
112
128
69
127
7
144
36
48
131
111
32
29
16
47
78
136
20
77
27
61
2
143
141
38
18
72
97
63
37
57
90
31
65
49
133
41
106
52
13
10
80
139
59
122
101
17
45
86
50
21
93
8
42
130
34
5
87
92
96
125
91
70
6
54
28
120
35
55
94
11
3
14
85
135
43
60
119
51
84
24
121
89
30
46
102
103
76
123

> <PUBCHEM_MMFF94_PARTIAL_CHARGES>
38
1 -0.57
10 -0.87
11 0.37
16 0.41
17 0.3
19 0.3
2 -0.57
20 0.06
21 0.09
22 0.57
24 0.3
25 0.54
26 0.16
27 0.72
28 0.37
29 0.14
3 -0.36
30 -0.14
31 -0.15
32 -0.15
33 0.08
34 -0.15
35 0.08
36 0.28
37 0.28
4 -0.36
47 0.4
5 -0.87
6 -0.66
60 0.37
61 0.15
62 0.4
67 0.15
68 0.15
69 0.15
7 -0.62
8 -0.73
9 -0.62

> <PUBCHEM_EFFECTIVE_ROTOR_COUNT>
15.8

> <PUBCHEM_PHARMACOPHORE_FEATURES>
12
1 1 acceptor
1 10 donor
1 2 acceptor
1 3 acceptor
1 4 acceptor
1 5 donor
1 8 donor
4 7 9 10 27 cation
5 11 12 13 14 15 rings
5 6 17 18 20 22 rings
6 30 31 32 33 34 35 rings
6 7 9 16 21 26 27 rings

> <PUBCHEM_HEAVY_ATOM_COUNT>
37

> <PUBCHEM_ATOM_DEF_STEREO_COUNT>
0

> <PUBCHEM_ATOM_UDEF_STEREO_COUNT>
0

> <PUBCHEM_BOND_DEF_STEREO_COUNT>
0

> <PUBCHEM_BOND_UDEF_STEREO_COUNT>
0

> <PUBCHEM_ISOTOPIC_ATOM_COUNT>
0

> <PUBCHEM_COMPONENT_COUNT>
1

> <PUBCHEM_CACTVS_TAUTO_COUNT>
42

> <PUBCHEM_CONFORMER_ID>
0443CEB800000001

> <PUBCHEM_MMFF94_ENERGY>
109.7758

> <PUBCHEM_FEATURE_SELFOVERLAP>
60.902

> <PUBCHEM_SHAPE_FINGERPRINT>
10190108 129 18040998466534336659
10190206 1 10881391024473246839
10653451 467 18411703196948155735
11578080 2 16986014985055980968
117089 54 18411423903397547785
11756154 5 18411410696774312256
12035758 1 18130788996589030381
12106331 60 18335405877820971589
12422481 6 18198063793078139435
12522641 126 17823426078669063013
13383668 254 15266484275628119170
13383668 262 17676199157234005370
13383668 90 17241043193866946141
13751561 76 17988656163828066910
13811026 1 18409729547790357895
14415360 78 17758952624747381541
14556957 393 14345787219913305093
15064986 266 18200878375563574440
15324884 4 18047154653746018765
18608769 82 18408882928147573506
19611394 137 18409452491944526891
21304304 249 18188772894185458299
21781051 124 18410018749186432908
3178227 256 18273217508227041377
3383291 50 18270954666395212458
4149490 64 18334851737272983160
484989 97 18409168805460494384
563151 248 17131552851342444877
9896288 288 18059019363540990209
999808 66 18412541011712512085

> <PUBCHEM_SHAPE_MULTIPOLES>
708.08
24.79
4.85
1.42
8.06
0.79
-0.45
-19.16
10.31
-2.63
0.07
-1.12
-0.18
3.69

> <PUBCHEM_SHAPE_SELFOVERLAP>
1485.624

> <PUBCHEM_SHAPE_VOLUME>
398.8

> <PUBCHEM_COORDINATE_TYPE>
2
5
10

$$$$
