49830648
  -OEChem-10062121543D

 77 80  0     0  0  0  0  0  0999 V2000
    0.8957    4.3435   -1.9158 O   0  0  0  0  0  0  0  0  0  0  0  0
    0.3878   -3.5706   -0.1657 O   0  0  0  0  0  0  0  0  0  0  0  0
   -0.9753    3.5244   -0.7791 N   0  0  0  0  0  0  0  0  0  0  0  0
    3.1174   -0.2091    0.1920 N   0  0  0  0  0  0  0  0  0  0  0  0
    4.4310   -0.4374    0.0226 N   0  0  0  0  0  0  0  0  0  0  0  0
    0.9345   -1.3259    0.1964 N   0  0  0  0  0  0  0  0  0  0  0  0
   -2.4235    3.5405    3.9360 N   0  0  0  0  0  0  0  0  0  0  0  0
   -1.2725   -1.9839    0.2921 N   0  0  0  0  0  0  0  0  0  0  0  0
    5.7801   -2.3975   -0.4723 C   0  0  0  0  0  0  0  0  0  0  0  0
    4.4811   -1.7485   -0.2279 C   0  0  0  0  0  0  0  0  0  0  0  0
    5.8423   -3.0654   -1.8886 C   0  0  0  0  0  0  0  0  0  0  0  0
    6.0770   -3.5248    0.5752 C   0  0  0  0  0  0  0  0  0  0  0  0
    7.0415   -1.4594   -0.4174 C   0  0  0  0  0  0  0  0  0  0  0  0
   -1.9714    4.1497   -1.6464 C   0  0  0  0  0  0  0  0  0  0  0  0
    3.2094   -2.3525   -0.2185 C   0  0  0  0  0  0  0  0  0  0  0  0
    2.3426   -1.3236    0.0580 C   0  0  0  0  0  0  0  0  0  0  0  0
   -1.5060    2.7315    0.3211 C   0  0  0  0  0  0  0  0  0  0  0  0
    2.6738    1.0830    0.4788 C   0  0  0  0  0  0  0  0  0  0  0  0
   -1.7195    3.5553    1.5877 C   0  0  0  0  0  0  0  0  0  0  0  0
    0.4068    3.6784   -0.9930 C   0  0  0  0  0  0  0  0  0  0  0  0
    1.3369    3.0120   -0.0953 C   0  0  0  0  0  0  0  0  0  0  0  0
    1.7812    1.7212   -0.3824 C   0  0  0  0  0  0  0  0  0  0  0  0
   -1.8422    5.6671   -1.6018 C   0  0  0  0  0  0  0  0  0  0  0  0
   -1.8370    3.6259   -3.0704 C   0  0  0  0  0  0  0  0  0  0  0  0
    3.1223    1.7357    1.6272 C   0  0  0  0  0  0  0  0  0  0  0  0
   -2.2534    2.7126    2.7472 C   0  0  0  0  0  0  0  0  0  0  0  0
    1.7854    3.6646    1.0531 C   0  0  0  0  0  0  0  0  0  0  0  0
    2.6779    3.0264    1.9145 C   0  0  0  0  0  0  0  0  0  0  0  0
    0.0564   -2.4155    0.0810 C   0  0  0  0  0  0  0  0  0  0  0  0
   -2.4489   -2.7430    0.2673 C   0  0  0  0  0  0  0  0  0  0  0  0
   -3.6799   -2.1876   -0.1182 C   0  0  0  0  0  0  0  0  0  0  0  0
   -4.8361   -3.0039   -0.1235 C   0  0  0  0  0  0  0  0  0  0  0  0
   -2.3591   -4.0839    0.6421 C   0  0  0  0  0  0  0  0  0  0  0  0
   -3.7889   -0.8401   -0.4984 C   0  0  0  0  0  0  0  0  0  0  0  0
   -4.7272   -4.3514    0.2567 C   0  0  0  0  0  0  0  0  0  0  0  0
   -3.4961   -4.8865    0.6367 C   0  0  0  0  0  0  0  0  0  0  0  0
   -6.0670   -2.4485   -0.5089 C   0  0  0  0  0  0  0  0  0  0  0  0
   -5.0200   -0.3049   -0.8784 C   0  0  0  0  0  0  0  0  0  0  0  0
   -6.1569   -1.1076   -0.8837 C   0  0  0  0  0  0  0  0  0  0  0  0
    6.8104   -3.5478   -2.0649 H   0  0  0  0  0  0  0  0  0  0  0  0
    5.0653   -3.8305   -1.9984 H   0  0  0  0  0  0  0  0  0  0  0  0
    5.6849   -2.3189   -2.6759 H   0  0  0  0  0  0  0  0  0  0  0  0
    5.3075   -4.3047    0.5441 H   0  0  0  0  0  0  0  0  0  0  0  0
    6.0912   -3.1147    1.5917 H   0  0  0  0  0  0  0  0  0  0  0  0
    7.0440   -4.0050    0.3878 H   0  0  0  0  0  0  0  0  0  0  0  0
    7.1317   -0.9851    0.5669 H   0  0  0  0  0  0  0  0  0  0  0  0
    6.9668   -0.6621   -1.1661 H   0  0  0  0  0  0  0  0  0  0  0  0
    7.9672   -2.0140   -0.6089 H   0  0  0  0  0  0  0  0  0  0  0  0
   -2.9731    3.8910   -1.2820 H   0  0  0  0  0  0  0  0  0  0  0  0
    2.9676   -3.3914   -0.3890 H   0  0  0  0  0  0  0  0  0  0  0  0
   -0.8335    1.8975    0.5425 H   0  0  0  0  0  0  0  0  0  0  0  0
   -2.4473    2.2670    0.0044 H   0  0  0  0  0  0  0  0  0  0  0  0
   -2.4290    4.3647    1.3710 H   0  0  0  0  0  0  0  0  0  0  0  0
   -0.7893    4.0449    1.8907 H   0  0  0  0  0  0  0  0  0  0  0  0
    1.4335    1.2241   -1.2860 H   0  0  0  0  0  0  0  0  0  0  0  0
   -2.6641    6.1346   -2.1552 H   0  0  0  0  0  0  0  0  0  0  0  0
   -1.8841    6.0335   -0.5704 H   0  0  0  0  0  0  0  0  0  0  0  0
   -0.9089    6.0279   -2.0439 H   0  0  0  0  0  0  0  0  0  0  0  0
   -2.6585    3.9997   -3.6916 H   0  0  0  0  0  0  0  0  0  0  0  0
   -1.8777    2.5311   -3.0875 H   0  0  0  0  0  0  0  0  0  0  0  0
   -0.9035    3.9315   -3.5517 H   0  0  0  0  0  0  0  0  0  0  0  0
    0.5169   -0.4294    0.4268 H   0  0  0  0  0  0  0  0  0  0  0  0
    3.8149    1.2519    2.3118 H   0  0  0  0  0  0  0  0  0  0  0  0
   -3.2136    2.2606    2.4755 H   0  0  0  0  0  0  0  0  0  0  0  0
   -1.5535    1.9013    2.9741 H   0  0  0  0  0  0  0  0  0  0  0  0
    1.4553    4.6745    1.2823 H   0  0  0  0  0  0  0  0  0  0  0  0
    3.0277    3.5350    2.8080 H   0  0  0  0  0  0  0  0  0  0  0  0
   -2.8271    2.9782    4.6840 H   0  0  0  0  0  0  0  0  0  0  0  0
   -3.0939    4.2837    3.7436 H   0  0  0  0  0  0  0  0  0  0  0  0
   -1.3834   -0.9758    0.2940 H   0  0  0  0  0  0  0  0  0  0  0  0
   -1.4334   -4.5341    0.9855 H   0  0  0  0  0  0  0  0  0  0  0  0
   -2.9380   -0.1670   -0.5276 H   0  0  0  0  0  0  0  0  0  0  0  0
   -5.6031   -4.9969    0.2621 H   0  0  0  0  0  0  0  0  0  0  0  0
   -3.4280   -5.9280    0.9378 H   0  0  0  0  0  0  0  0  0  0  0  0
   -6.9688   -3.0573   -0.5206 H   0  0  0  0  0  0  0  0  0  0  0  0
   -5.0902    0.7383   -1.1730 H   0  0  0  0  0  0  0  0  0  0  0  0
   -7.1149   -0.6905   -1.1803 H   0  0  0  0  0  0  0  0  0  0  0  0
  1 20  2  0  0  0  0
  2 29  2  0  0  0  0
  3 14  1  0  0  0  0
  3 17  1  0  0  0  0
  3 20  1  0  0  0  0
  4  5  1  0  0  0  0
  4 16  1  0  0  0  0
  4 18  1  0  0  0  0
  5 10  2  0  0  0  0
  6 16  1  0  0  0  0
  6 29  1  0  0  0  0
  6 62  1  0  0  0  0
  7 26  1  0  0  0  0
  7 68  1  0  0  0  0
  7 69  1  0  0  0  0
  8 29  1  0  0  0  0
  8 30  1  0  0  0  0
  8 70  1  0  0  0  0
  9 10  1  0  0  0  0
  9 11  1  0  0  0  0
  9 12  1  0  0  0  0
  9 13  1  0  0  0  0
 10 15  1  0  0  0  0
 11 40  1  0  0  0  0
 11 41  1  0  0  0  0
 11 42  1  0  0  0  0
 12 43  1  0  0  0  0
 12 44  1  0  0  0  0
 12 45  1  0  0  0  0
 13 46  1  0  0  0  0
 13 47  1  0  0  0  0
 13 48  1  0  0  0  0
 14 23  1  0  0  0  0
 14 24  1  0  0  0  0
 14 49  1  0  0  0  0
 15 16  2  0  0  0  0
 15 50  1  0  0  0  0
 17 19  1  0  0  0  0
 17 51  1  0  0  0  0
 17 52  1  0  0  0  0
 18 22  1  0  0  0  0
 18 25  2  0  0  0  0
 19 26  1  0  0  0  0
 19 53  1  0  0  0  0
 19 54  1  0  0  0  0
 20 21  1  0  0  0  0
 21 22  2  0  0  0  0
 21 27  1  0  0  0  0
 22 55  1  0  0  0  0
 23 56  1  0  0  0  0
 23 57  1  0  0  0  0
 23 58  1  0  0  0  0
 24 59  1  0  0  0  0
 24 60  1  0  0  0  0
 24 61  1  0  0  0  0
 25 28  1  0  0  0  0
 25 63  1  0  0  0  0
 26 64  1  0  0  0  0
 26 65  1  0  0  0  0
 27 28  2  0  0  0  0
 27 66  1  0  0  0  0
 28 67  1  0  0  0  0
 30 31  1  0  0  0  0
 30 33  2  0  0  0  0
 31 32  1  0  0  0  0
 31 34  2  0  0  0  0
 32 35  1  0  0  0  0
 32 37  2  0  0  0  0
 33 36  1  0  0  0  0
 33 71  1  0  0  0  0
 34 38  1  0  0  0  0
 34 72  1  0  0  0  0
 35 36  2  0  0  0  0
 35 73  1  0  0  0  0
 36 74  1  0  0  0  0
 37 39  1  0  0  0  0
 37 75  1  0  0  0  0
 38 39  2  0  0  0  0
 38 76  1  0  0  0  0
 39 77  1  0  0  0  0
M  END
> <PUBCHEM_COMPOUND_CID>
49830648

> <PUBCHEM_CONFORMER_RMSD>
1.2

> <PUBCHEM_CONFORMER_DIVERSEORDER>
2
105
83
51
55
103
15
106
28
82
87
93
60
21
33
16
80
99
89
37
24
85
48
75
72
100
42
78
8
71
40
91
108
62
53
41
76
39
47
66
57
81
44
30
46
104
63
12
36
65
52
18
74
95
86
107
94
102
59
101
92
64
88
22
5
19
56
97
84
3
7
26
14
23
70
58
77
109
96
13
61
90
34
43
98
38
45
49
35
31
10
73
68
54
4
27
11
50
20
79
67
29
32
17
6
110
25
9
69
1

> <PUBCHEM_MMFF94_PARTIAL_CHARGES>
47
1 -0.57
10 0.11
14 0.3
15 -0.15
16 -0.09
17 0.3
18 -0.02
2 -0.57
20 0.54
21 0.09
22 -0.15
25 -0.15
26 0.27
27 -0.15
28 -0.15
29 0.69
3 -0.66
30 0.12
33 -0.15
34 -0.15
35 -0.15
36 -0.15
37 -0.15
38 -0.15
39 -0.15
4 0.59
5 -0.71
50 0.15
55 0.15
6 -0.49
62 0.37
63 0.15
66 0.15
67 0.15
68 0.36
69 0.36
7 -0.99
70 0.37
71 0.15
72 0.15
73 0.15
74 0.15
75 0.15
76 0.15
77 0.15
8 -0.55
9 0.18

> <PUBCHEM_EFFECTIVE_ROTOR_COUNT>
12

> <PUBCHEM_PHARMACOPHORE_FEATURES>
13
1 1 acceptor
1 2 acceptor
1 5 acceptor
1 6 donor
1 7 cation
1 7 donor
1 8 donor
3 14 23 24 hydrophobe
4 9 11 12 13 hydrophobe
5 4 5 10 15 16 rings
6 18 21 22 25 27 28 rings
6 30 31 32 33 35 36 rings
6 31 32 34 37 38 39 rings

> <PUBCHEM_HEAVY_ATOM_COUNT>
39

> <PUBCHEM_ATOM_DEF_STEREO_COUNT>
0

> <PUBCHEM_ATOM_UDEF_STEREO_COUNT>
0

> <PUBCHEM_BOND_DEF_STEREO_COUNT>
0

> <PUBCHEM_BOND_UDEF_STEREO_COUNT>
0

> <PUBCHEM_ISOTOPIC_ATOM_COUNT>
0

> <PUBCHEM_COMPONENT_COUNT>
1

> <PUBCHEM_CACTVS_TAUTO_COUNT>
7

> <PUBCHEM_CONFORMER_ID>
02F85AF800000002

> <PUBCHEM_MMFF94_ENERGY>
128.3777

> <PUBCHEM_FEATURE_SELFOVERLAP>
66.047

> <PUBCHEM_SHAPE_FINGERPRINT>
10815517 723 18269286681063917275
10864689 126 18190162526448277703
11093857 5 18193536905568923640
11093857 51 17183056389389788821
11991303 11 17756444668540950726
12925494 130 18337383946832101423
13692115 27 18342179947490631586
14068700 675 18201436969517512419
14725015 67 18337379462211128343
150020 26 17907007740572434385
15320467 1 18263917744806340949
15400415 2 16823059824869592509
15911013 46 18342740749506231032
16993438 75 17972322806759232585
19311894 1 17982736272954356490
19319366 153 17257350961251137420
21049683 271 18195538202211024550
21133410 127 17392468201806796509
22223350 30 18053368921867132738
23559900 14 18339075007656979059
3103668 31 18262518070266503655
4144715 1 18118685654559426067
46939830 39 17895197709562711685
50150288 127 17268325256107987349
6691757 9 17763735496228295146
9961470 85 18340760533940120929

> <PUBCHEM_SHAPE_MULTIPOLES>
760.98
13.33
9.33
2.12
6.86
5.56
0.93
-20.1
-2.7
-5.06
-1.06
-1
4.04
1.91

> <PUBCHEM_SHAPE_SELFOVERLAP>
1627.06

> <PUBCHEM_SHAPE_VOLUME>
421.8

> <PUBCHEM_COORDINATE_TYPE>
2
5
10

$$$$
