24905329
  -OEChem-10052115143D

 39 41  0     0  0  0  0  0  0999 V2000
    5.6774    2.5497    0.2207 F   0  0  0  0  0  0  0  0  0  0  0  0
    4.0491    2.5405   -1.9971 O   0  0  0  0  0  0  0  0  0  0  0  0
   -1.2224   -0.5247    0.6851 N   0  0  0  0  0  0  0  0  0  0  0  0
   -0.2736    0.4259    0.7752 N   0  0  0  0  0  0  0  0  0  0  0  0
   -1.4591   -2.8493    0.0507 N   0  0  0  0  0  0  0  0  0  0  0  0
    0.6680   -3.8130   -0.6545 N   0  0  0  0  0  0  0  0  0  0  0  0
    2.7013   -2.5633   -0.6910 N   0  0  0  0  0  0  0  0  0  0  0  0
   -8.0374    2.1046   -0.1341 N   0  0  0  0  0  0  0  0  0  0  0  0
   -2.6434   -0.1948    1.0643 C   0  0  0  0  0  0  0  0  0  0  0  0
   -3.3496    0.6072   -0.0308 C   0  0  0  0  0  0  0  0  0  0  0  0
   -0.7516   -1.7242    0.2399 C   0  0  0  0  0  0  0  0  0  0  0  0
    0.6034   -1.5459    0.0228 C   0  0  0  0  0  0  0  0  0  0  0  0
    0.8359   -0.2022    0.3705 C   0  0  0  0  0  0  0  0  0  0  0  0
   -4.8033    0.8993    0.3455 C   0  0  0  0  0  0  0  0  0  0  0  0
    2.0880    0.5103    0.3303 C   0  0  0  0  0  0  0  0  0  0  0  0
    1.3194   -2.6444   -0.4414 C   0  0  0  0  0  0  0  0  0  0  0  0
   -5.5228    1.6655   -0.7640 C   0  0  0  0  0  0  0  0  0  0  0  0
    2.4671    1.1891   -0.8277 C   0  0  0  0  0  0  0  0  0  0  0  0
    2.9206    0.5213    1.4494 C   0  0  0  0  0  0  0  0  0  0  0  0
   -0.6617   -3.8424   -0.3989 C   0  0  0  0  0  0  0  0  0  0  0  0
    3.6787    1.8790   -0.8667 C   0  0  0  0  0  0  0  0  0  0  0  0
    4.1323    1.2112    1.4106 C   0  0  0  0  0  0  0  0  0  0  0  0
    4.5113    1.8901    0.2524 C   0  0  0  0  0  0  0  0  0  0  0  0
   -6.9275    1.9105   -0.4113 C   0  0  0  0  0  0  0  0  0  0  0  0
   -2.5739    0.3652    2.0036 H   0  0  0  0  0  0  0  0  0  0  0  0
   -3.1418   -1.1504    1.2570 H   0  0  0  0  0  0  0  0  0  0  0  0
   -2.8147    1.5487   -0.2061 H   0  0  0  0  0  0  0  0  0  0  0  0
   -3.3154    0.0463   -0.9732 H   0  0  0  0  0  0  0  0  0  0  0  0
   -4.8334    1.4771    1.2782 H   0  0  0  0  0  0  0  0  0  0  0  0
   -5.3271   -0.0450    0.5428 H   0  0  0  0  0  0  0  0  0  0  0  0
   -5.4772    1.0962   -1.6996 H   0  0  0  0  0  0  0  0  0  0  0  0
   -5.0175    2.6213   -0.9437 H   0  0  0  0  0  0  0  0  0  0  0  0
    1.8201    1.1818   -1.7025 H   0  0  0  0  0  0  0  0  0  0  0  0
    2.6400   -0.0034    2.3597 H   0  0  0  0  0  0  0  0  0  0  0  0
   -1.1518   -4.7929   -0.5802 H   0  0  0  0  0  0  0  0  0  0  0  0
    4.7811    1.2196    2.2814 H   0  0  0  0  0  0  0  0  0  0  0  0
    3.2132   -1.7064   -0.5418 H   0  0  0  0  0  0  0  0  0  0  0  0
    3.1834   -3.3858   -1.0281 H   0  0  0  0  0  0  0  0  0  0  0  0
    3.3566    2.4269   -2.6706 H   0  0  0  0  0  0  0  0  0  0  0  0
  1 23  1  0  0  0  0
  2 21  1  0  0  0  0
  2 39  1  0  0  0  0
  3  4  1  0  0  0  0
  3  9  1  0  0  0  0
  3 11  1  0  0  0  0
  4 13  2  0  0  0  0
  5 11  2  0  0  0  0
  5 20  1  0  0  0  0
  6 16  1  0  0  0  0
  6 20  2  0  0  0  0
  7 16  1  0  0  0  0
  7 37  1  0  0  0  0
  7 38  1  0  0  0  0
  8 24  3  0  0  0  0
  9 10  1  0  0  0  0
  9 25  1  0  0  0  0
  9 26  1  0  0  0  0
 10 14  1  0  0  0  0
 10 27  1  0  0  0  0
 10 28  1  0  0  0  0
 11 12  1  0  0  0  0
 12 13  1  0  0  0  0
 12 16  2  0  0  0  0
 13 15  1  0  0  0  0
 14 17  1  0  0  0  0
 14 29  1  0  0  0  0
 14 30  1  0  0  0  0
 15 18  2  0  0  0  0
 15 19  1  0  0  0  0
 17 24  1  0  0  0  0
 17 31  1  0  0  0  0
 17 32  1  0  0  0  0
 18 21  1  0  0  0  0
 18 33  1  0  0  0  0
 19 22  2  0  0  0  0
 19 34  1  0  0  0  0
 20 35  1  0  0  0  0
 21 23  2  0  0  0  0
 22 23  1  0  0  0  0
 22 36  1  0  0  0  0
M  END
> <PUBCHEM_COMPOUND_CID>
24905329

> <PUBCHEM_CONFORMER_RMSD>
0.8

> <PUBCHEM_CONFORMER_DIVERSEORDER>
1
24
29
19
39
52
49
51
40
22
55
47
27
4
46
10
23
25
15
37
3
45
17
34
16
38
2
42
36
35
33
50
56
48
58
54
41
32
6
53
18
14
57
21
12
44
5
43
28
8
20
13
9
11
7
31
30
26

> <PUBCHEM_MMFF94_PARTIAL_CHARGES>
28
1 -0.19
11 0.11
13 0.23
15 0.05
16 0.41
17 0.2
18 -0.15
19 -0.15
2 -0.53
20 0.47
21 0.08
22 -0.15
23 0.19
24 0.36
3 0.31
33 0.15
34 0.15
35 0.15
36 0.15
37 0.4
38 0.4
39 0.45
4 -0.71
5 -0.57
6 -0.62
7 -0.9
8 -0.56
9 0.26

> <PUBCHEM_EFFECTIVE_ROTOR_COUNT>
5

> <PUBCHEM_PHARMACOPHORE_FEATURES>
10
1 2 donor
1 4 acceptor
1 7 cation
1 7 donor
1 8 acceptor
3 3 5 11 cation
3 5 6 20 cation
5 3 4 11 12 13 rings
6 15 18 19 21 22 23 rings
6 5 6 11 12 16 20 rings

> <PUBCHEM_HEAVY_ATOM_COUNT>
24

> <PUBCHEM_ATOM_DEF_STEREO_COUNT>
0

> <PUBCHEM_ATOM_UDEF_STEREO_COUNT>
0

> <PUBCHEM_BOND_DEF_STEREO_COUNT>
0

> <PUBCHEM_BOND_UDEF_STEREO_COUNT>
0

> <PUBCHEM_ISOTOPIC_ATOM_COUNT>
0

> <PUBCHEM_COMPONENT_COUNT>
1

> <PUBCHEM_CACTVS_TAUTO_COUNT>
15

> <PUBCHEM_CONFORMER_ID>
017C067100000001

> <PUBCHEM_MMFF94_ENERGY>
47.2274

> <PUBCHEM_FEATURE_SELFOVERLAP>
51.025

> <PUBCHEM_SHAPE_FINGERPRINT>
10411042 1 17547852949732884871
105312 117 18338797934830835932
12236239 1 17682388497518218138
12293681 160 17846499244599856121
12403259 118 17896320392512934745
12730499 353 18411986819782528187
12788726 201 17903065982423260354
13140716 1 18341626901162102506
13540713 4 18337690671167808195
14294032 229 18268157633547634475
14461889 52 18260834800555058027
15439362 3 18412262805421990150
15475509 35 11383827147999599717
16752209 62 17982447397907399674
167882 2 18411702045585709914
17980427 23 17603870057075265383
18222031 100 11097854120653402337
19427546 62 18409448047392204403
20157964 124 18338795612034406225
20554085 129 17845917603048755634
20612939 158 18271527473345680779
20715895 44 18410573994000381336
22149856 69 18266198175552867601
22182313 1 18268170784120628179
23559900 14 18340770317079114203
335352 9 18341333293530131582
4073 2 18408605830691986691
46194498 28 18193838137964096495
495365 180 18341327795333500819
53917941 68 18200868612126438191
57527295 17 16414101611266307856
59682541 52 17131841923441166293
6025842 7 18270677555157833839
6327066 14 18337389443293345357
7970288 3 9079124362229754377

> <PUBCHEM_SHAPE_MULTIPOLES>
450.88
13.53
4.24
1.16
26.87
4.45
-0.06
-18.89
-1.52
-1.69
-1.47
-1.12
-0.53
0.29

> <PUBCHEM_SHAPE_SELFOVERLAP>
975.131

> <PUBCHEM_SHAPE_VOLUME>
245.9

> <PUBCHEM_COORDINATE_TYPE>
2
5
10

$$$$
