25164469
  -OEChem-10052115143D

 36 39  0     0  0  0  0  0  0999 V2000
   -1.8620   -1.0087   -0.8216 N   0  0  0  0  0  0  0  0  0  0  0  0
    5.5503    0.0954    0.4133 N   0  0  0  0  0  0  0  0  0  0  0  0
   -0.5167   -2.1024    0.4519 N   0  0  0  0  0  0  0  0  0  0  0  0
   -1.7811   -2.0258    0.0517 N   0  0  0  0  0  0  0  0  0  0  0  0
    5.6102    1.4199    0.1966 N   0  0  0  0  0  0  0  0  0  0  0  0
    3.8919    3.0015   -0.3298 N   0  0  0  0  0  0  0  0  0  0  0  0
    1.5922   -0.8747   -0.0159 C   0  0  0  0  0  0  0  0  0  0  0  0
    3.4660    0.6430    0.0072 C   0  0  0  0  0  0  0  0  0  0  0  0
    4.2914   -0.4331    0.3140 C   0  0  0  0  0  0  0  0  0  0  0  0
    0.1862   -1.1180   -0.1857 C   0  0  0  0  0  0  0  0  0  0  0  0
    2.0883    0.4268   -0.1627 C   0  0  0  0  0  0  0  0  0  0  0  0
   -3.1179   -0.6695   -1.4406 C   0  0  0  0  0  0  0  0  0  0  0  0
    2.4437   -1.9372    0.2924 C   0  0  0  0  0  0  0  0  0  0  0  0
   -0.6549   -0.4073   -1.0046 C   0  0  0  0  0  0  0  0  0  0  0  0
    3.8174   -1.7380    0.4649 C   0  0  0  0  0  0  0  0  0  0  0  0
    4.3403    1.7495   -0.0497 C   0  0  0  0  0  0  0  0  0  0  0  0
   -4.0394    0.1096   -0.5350 C   0  0  0  0  0  0  0  0  0  0  0  0
   -4.7592   -0.5498    0.4617 C   0  0  0  0  0  0  0  0  0  0  0  0
   -4.1711    1.4892   -0.6934 C   0  0  0  0  0  0  0  0  0  0  0  0
   -5.6107    0.1704    1.2995 C   0  0  0  0  0  0  0  0  0  0  0  0
   -5.0225    2.2093    0.1446 C   0  0  0  0  0  0  0  0  0  0  0  0
   -5.7423    1.5498    1.1410 C   0  0  0  0  0  0  0  0  0  0  0  0
    1.4390    1.2668   -0.3915 H   0  0  0  0  0  0  0  0  0  0  0  0
   -3.5985   -1.6027   -1.7598 H   0  0  0  0  0  0  0  0  0  0  0  0
   -2.9025   -0.1048   -2.3558 H   0  0  0  0  0  0  0  0  0  0  0  0
    2.0556   -2.9483    0.4020 H   0  0  0  0  0  0  0  0  0  0  0  0
   -0.5162    0.4298   -1.6752 H   0  0  0  0  0  0  0  0  0  0  0  0
    4.4806   -2.5620    0.7037 H   0  0  0  0  0  0  0  0  0  0  0  0
    6.4109   -0.3934    0.6257 H   0  0  0  0  0  0  0  0  0  0  0  0
   -4.6708   -1.6248    0.5935 H   0  0  0  0  0  0  0  0  0  0  0  0
   -3.6146    2.0155   -1.4643 H   0  0  0  0  0  0  0  0  0  0  0  0
   -6.1721   -0.3431    2.0746 H   0  0  0  0  0  0  0  0  0  0  0  0
   -5.1248    3.2835    0.0217 H   0  0  0  0  0  0  0  0  0  0  0  0
    2.9158    3.2131   -0.5126 H   0  0  0  0  0  0  0  0  0  0  0  0
    4.5204    3.7977   -0.3713 H   0  0  0  0  0  0  0  0  0  0  0  0
   -6.4053    2.1105    1.7933 H   0  0  0  0  0  0  0  0  0  0  0  0
  1  4  1  0  0  0  0
  1 12  1  0  0  0  0
  1 14  1  0  0  0  0
  2  5  1  0  0  0  0
  2  9  1  0  0  0  0
  2 29  1  0  0  0  0
  3  4  2  0  0  0  0
  3 10  1  0  0  0  0
  5 16  2  0  0  0  0
  6 16  1  0  0  0  0
  6 34  1  0  0  0  0
  6 35  1  0  0  0  0
  7 10  1  0  0  0  0
  7 11  2  0  0  0  0
  7 13  1  0  0  0  0
  8  9  2  0  0  0  0
  8 11  1  0  0  0  0
  8 16  1  0  0  0  0
  9 15  1  0  0  0  0
 10 14  2  0  0  0  0
 11 23  1  0  0  0  0
 12 17  1  0  0  0  0
 12 24  1  0  0  0  0
 12 25  1  0  0  0  0
 13 15  2  0  0  0  0
 13 26  1  0  0  0  0
 14 27  1  0  0  0  0
 15 28  1  0  0  0  0
 17 18  2  0  0  0  0
 17 19  1  0  0  0  0
 18 20  1  0  0  0  0
 18 30  1  0  0  0  0
 19 21  2  0  0  0  0
 19 31  1  0  0  0  0
 20 22  2  0  0  0  0
 20 32  1  0  0  0  0
 21 22  1  0  0  0  0
 21 33  1  0  0  0  0
 22 36  1  0  0  0  0
M  END
> <PUBCHEM_COMPOUND_CID>
25164469

> <PUBCHEM_CONFORMER_RMSD>
0.6

> <PUBCHEM_CONFORMER_DIVERSEORDER>
1
43
45
33
53
58
47
37
30
20
17
11
13
9
34
49
18
28
19
22
57
40
56
32
27
35
8
29
55
42
48
38
50
10
39
54
3
7
6
24
12
16
31
21
26
41
2
51
44
36
52
23
14
46
5
4
15
25

> <PUBCHEM_MMFF94_PARTIAL_CHARGES>
33
1 0.31
10 0.17
11 -0.15
12 0.4
13 -0.15
14 -0.3
15 -0.15
16 0.37
17 -0.14
18 -0.15
19 -0.15
2 0.3
20 -0.15
21 -0.15
22 -0.15
23 0.15
26 0.15
27 0.15
28 0.15
29 0.27
3 -0.23
30 0.15
31 0.15
32 0.15
33 0.15
34 0.4
35 0.4
36 0.15
4 -0.42
5 -0.71
6 -0.88
7 0.05
9 -0.15

> <PUBCHEM_EFFECTIVE_ROTOR_COUNT>
3

> <PUBCHEM_PHARMACOPHORE_FEATURES>
7
1 2 donor
1 6 donor
3 5 6 16 cation
5 1 3 4 10 14 rings
5 2 5 8 9 16 rings
6 17 18 19 20 21 22 rings
6 7 8 9 11 13 15 rings

> <PUBCHEM_HEAVY_ATOM_COUNT>
22

> <PUBCHEM_ATOM_DEF_STEREO_COUNT>
0

> <PUBCHEM_ATOM_UDEF_STEREO_COUNT>
0

> <PUBCHEM_BOND_DEF_STEREO_COUNT>
0

> <PUBCHEM_BOND_UDEF_STEREO_COUNT>
0

> <PUBCHEM_ISOTOPIC_ATOM_COUNT>
0

> <PUBCHEM_COMPONENT_COUNT>
1

> <PUBCHEM_CACTVS_TAUTO_COUNT>
5

> <PUBCHEM_CONFORMER_ID>
017FFAB500000001

> <PUBCHEM_MMFF94_ENERGY>
44.1211

> <PUBCHEM_FEATURE_SELFOVERLAP>
35.614

> <PUBCHEM_SHAPE_FINGERPRINT>
10 15 18041001739325620729
105312 117 16343982516220333981
10595046 47 18270390710981802327
11089746 13 17632285800902068144
11370993 144 18115308869782424267
11405975 8 18261104210383539042
12107183 9 18123462783115014547
12236239 1 18131911563764768362
12596602 18 18113901537848245777
12616971 3 18341605993028676958
12788726 201 17489315135358264985
12839892 36 13190333561149351641
13167372 99 18342457015434523728
13398642 44 17461455898681050516
13785724 45 17836084468746785082
14251764 75 18118974830518064892
14341114 176 18261118430951222793
14790565 3 18411702088466492741
14848178 5 10737283567332858573
15081414 286 18334574629676404972
15163728 17 17346330267121503357
15183329 4 10663826243975046531
15188451 53 15864362384863486155
15348495 7 18113623374017162923
1601671 61 17704069586173985992
16760501 71 18335988652873965225
17349148 13 11819281014239061689
1768 23 17630912455166175937
17844677 252 18338802212897999783
17857418 61 8862948272805581388
17959699 21 18342455967320065648
18785283 64 17024042620904320644
20645477 56 18040426715802672014
21033648 29 17313368020648432853
21120745 212 17698435865378472887
21421861 104 17969206868716965890
21756936 100 18343016718413969495
22061861 79 11239997841388713201
22224240 67 18113903754500107371
22393880 68 11887666239788527085
22956985 138 13336114431963663240
23559900 14 17346321440774559822
2838139 119 17632290160125399937
312425 54 17168151083773391361
3680242 22 18261662706571607360
465052 167 11241974763200398704
5104073 3 18115016519953776058
5283173 99 11743849027774787979
542803 24 18131068242403809287
543358 83 18412541003512571214
57724786 102 17771352968281582027
602551 16 15502665909274968971
633830 44 18341326700175220255
7495541 125 12829492558302048294
76465 3 8286201651789896559
8272917 22 18271807891745288206
90127 26 18337963302790499139
960060 61 12103843475329651210
9996256 80 18342737446934985703

> <PUBCHEM_SHAPE_MULTIPOLES>
422.86
15.03
2.47
1
4.24
0.87
0.05
8.4
-3.8
-1.27
-0.08
1.26
-0.04
-0.79

> <PUBCHEM_SHAPE_SELFOVERLAP>
947.037

> <PUBCHEM_SHAPE_VOLUME>
225

> <PUBCHEM_COORDINATE_TYPE>
2
5
10

$$$$
