4369491
  -OEChem-10052120443D

 37 41  0     0  0  0  0  0  0999 V2000
    1.6261    3.0033   -0.0012 O   0  0  0  0  0  0  0  0  0  0  0  0
   -2.9241    2.3198    0.0006 O   0  0  0  0  0  0  0  0  0  0  0  0
    6.1191    0.8588    0.0031 O   0  0  0  0  0  0  0  0  0  0  0  0
    1.6195   -2.2656   -0.0019 N   0  0  0  0  0  0  0  0  0  0  0  0
   -0.7044    3.0356   -0.0007 N   0  0  0  0  0  0  0  0  0  0  0  0
    1.1976   -0.0700   -0.0010 C   0  0  0  0  0  0  0  0  0  0  0  0
    0.3073    1.0106   -0.0009 C   0  0  0  0  0  0  0  0  0  0  0  0
    0.6031   -1.3418   -0.0014 C   0  0  0  0  0  0  0  0  0  0  0  0
    2.6191   -0.2677   -0.0005 C   0  0  0  0  0  0  0  0  0  0  0  0
   -1.0724    0.8101   -0.0005 C   0  0  0  0  0  0  0  0  0  0  0  0
   -1.6449   -0.4420   -0.0006 C   0  0  0  0  0  0  0  0  0  0  0  0
    2.8451   -1.6468   -0.0010 C   0  0  0  0  0  0  0  0  0  0  0  0
   -0.7941   -1.5505   -0.0009 C   0  0  0  0  0  0  0  0  0  0  0  0
    0.5423    2.4538   -0.0012 C   0  0  0  0  0  0  0  0  0  0  0  0
   -1.7247    2.1182    0.0002 C   0  0  0  0  0  0  0  0  0  0  0  0
    3.7476    0.5815    0.0008 C   0  0  0  0  0  0  0  0  0  0  0  0
   -3.0764   -0.6477   -0.0002 C   0  0  0  0  0  0  0  0  0  0  0  0
    4.1265   -2.2121   -0.0003 C   0  0  0  0  0  0  0  0  0  0  0  0
    5.0359    0.0317    0.0015 C   0  0  0  0  0  0  0  0  0  0  0  0
    5.2207   -1.3463    0.0011 C   0  0  0  0  0  0  0  0  0  0  0  0
   -3.7665   -0.7472    1.2083 C   0  0  0  0  0  0  0  0  0  0  0  0
   -3.7682   -0.7475   -1.2076 C   0  0  0  0  0  0  0  0  0  0  0  0
   -5.1471   -0.9461    1.2093 C   0  0  0  0  0  0  0  0  0  0  0  0
   -5.1488   -0.9464   -1.2066 C   0  0  0  0  0  0  0  0  0  0  0  0
   -5.8383   -1.0457    0.0018 C   0  0  0  0  0  0  0  0  0  0  0  0
   -1.1879   -2.5641   -0.0011 H   0  0  0  0  0  0  0  0  0  0  0  0
    1.4832   -3.2670   -0.0024 H   0  0  0  0  0  0  0  0  0  0  0  0
    3.6285    1.6592    0.0014 H   0  0  0  0  0  0  0  0  0  0  0  0
   -0.8532    4.0385   -0.0006 H   0  0  0  0  0  0  0  0  0  0  0  0
    4.2682   -3.2879   -0.0006 H   0  0  0  0  0  0  0  0  0  0  0  0
    6.2256   -1.7615    0.0018 H   0  0  0  0  0  0  0  0  0  0  0  0
   -3.2432   -0.6711    2.1586 H   0  0  0  0  0  0  0  0  0  0  0  0
   -3.2462   -0.6717   -2.1587 H   0  0  0  0  0  0  0  0  0  0  0  0
   -5.6841   -1.0232    2.1501 H   0  0  0  0  0  0  0  0  0  0  0  0
   -5.6871   -1.0237   -2.1467 H   0  0  0  0  0  0  0  0  0  0  0  0
   -6.9133   -1.2004    0.0026 H   0  0  0  0  0  0  0  0  0  0  0  0
    5.8125    1.7819    0.0031 H   0  0  0  0  0  0  0  0  0  0  0  0
  1 14  2  0  0  0  0
  2 15  2  0  0  0  0
  3 19  1  0  0  0  0
  3 37  1  0  0  0  0
  4  8  1  0  0  0  0
  4 12  1  0  0  0  0
  4 27  1  0  0  0  0
  5 14  1  0  0  0  0
  5 15  1  0  0  0  0
  5 29  1  0  0  0  0
  6  7  1  0  0  0  0
  6  8  2  0  0  0  0
  6  9  1  0  0  0  0
  7 10  2  0  0  0  0
  7 14  1  0  0  0  0
  8 13  1  0  0  0  0
  9 12  2  0  0  0  0
  9 16  1  0  0  0  0
 10 11  1  0  0  0  0
 10 15  1  0  0  0  0
 11 13  2  0  0  0  0
 11 17  1  0  0  0  0
 12 18  1  0  0  0  0
 13 26  1  0  0  0  0
 16 19  2  0  0  0  0
 16 28  1  0  0  0  0
 17 21  2  0  0  0  0
 17 22  1  0  0  0  0
 18 20  2  0  0  0  0
 18 30  1  0  0  0  0
 19 20  1  0  0  0  0
 20 31  1  0  0  0  0
 21 23  1  0  0  0  0
 21 32  1  0  0  0  0
 22 24  2  0  0  0  0
 22 33  1  0  0  0  0
 23 25  2  0  0  0  0
 23 34  1  0  0  0  0
 24 25  1  0  0  0  0
 24 35  1  0  0  0  0
 25 36  1  0  0  0  0
M  END
> <PUBCHEM_COMPOUND_CID>
4369491

> <PUBCHEM_CONFORMER_RMSD>
0.6

> <PUBCHEM_CONFORMER_DIVERSEORDER>
1

> <PUBCHEM_MMFF94_PARTIAL_CHARGES>
33
1 -0.57
10 0.09
12 -0.15
13 -0.15
14 0.54
15 0.54
16 -0.15
18 -0.15
19 0.08
2 -0.57
20 -0.15
21 -0.15
22 -0.15
23 -0.15
24 -0.15
25 -0.15
26 0.15
27 0.27
28 0.15
29 0.37
3 -0.53
30 0.15
31 0.15
32 0.15
33 0.15
34 0.15
35 0.15
36 0.15
37 0.45
4 0.03
5 -0.49
7 0.09
8 -0.15

> <PUBCHEM_EFFECTIVE_ROTOR_COUNT>
1.2

> <PUBCHEM_PHARMACOPHORE_FEATURES>
11
1 1 acceptor
1 2 acceptor
1 3 donor
1 4 cation
1 4 donor
1 5 donor
5 4 6 8 9 12 rings
5 5 7 10 14 15 rings
6 17 21 22 23 24 25 rings
6 6 7 8 10 11 13 rings
6 9 12 16 18 19 20 rings

> <PUBCHEM_HEAVY_ATOM_COUNT>
25

> <PUBCHEM_ATOM_DEF_STEREO_COUNT>
0

> <PUBCHEM_ATOM_UDEF_STEREO_COUNT>
0

> <PUBCHEM_BOND_DEF_STEREO_COUNT>
0

> <PUBCHEM_BOND_UDEF_STEREO_COUNT>
0

> <PUBCHEM_ISOTOPIC_ATOM_COUNT>
0

> <PUBCHEM_COMPONENT_COUNT>
1

> <PUBCHEM_CACTVS_TAUTO_COUNT>
66

> <PUBCHEM_CONFORMER_ID>
0042AC5300000001

> <PUBCHEM_MMFF94_ENERGY>
73.493

> <PUBCHEM_FEATURE_SELFOVERLAP>
56.088

> <PUBCHEM_SHAPE_FINGERPRINT>
10411042 1 18410575067615247431
10670039 82 18262253131821042740
10688039 33 18113901550237599909
10906281 52 18338537294803943763
10967382 1 18338797939252552836
1100329 8 18266459999835594042
11796584 16 17022901276585218771
12166972 35 17749112184181736150
12236239 1 17775287192537126955
12403259 226 18268706105165865792
12516196 113 18411981377515826827
12553582 1 18411691097777219947
12788726 201 18334288734613578090
12838862 33 18266724957143810644
13140716 1 18122629619504288338
13544653 18 18408045100065688151
13583140 156 14333124122863447139
13862211 1 18411133645281743214
14347332 77 18126853699072508430
14787075 74 18334016103227892834
14790565 3 18339371836956812097
14840074 17 18131349734539271214
15196674 1 18338516335774807524
15927050 60 17621040189320822980
16087824 20 18194682559022475149
17349148 13 17968101889041848970
17357779 13 18335409167491347733
17492 89 18194399983816529930
1813 80 18200609028798502255
18222031 100 18342164588164808923
19319366 153 18114178666371722210
19427546 62 17474392370441943121
200 152 18411978053279679111
20028762 73 18130784611581117015
21029758 11 18410852170188500809
21236236 1 18340206293657778993
21267235 1 18410863135915656534
21641784 216 18114760251892381476
21792934 111 18339910537519008272
22182313 1 18264744684318702701
23175994 123 18333453153643671623
23352939 185 18272936028823176856
23402539 116 18341609291785138815
23557571 272 18200881677786230926
23559900 14 18261949764636725561
23569914 152 17186978914233651991
23845131 108 17261888649950397785
24771293 8 18129935814764115424
25147074 1 18340785796447320761
283562 15 18337108964785347249
2871803 45 18334573516905354378
314194 84 18412544331579845947
329604 57 18261115170754560126
335352 9 18410854348760508037
34934 24 18192711146835250113
350125 39 18412266133911219057
5104073 3 18339638915872482258
5283173 99 17968929778432417869
57527295 17 17970040341776028127
8863177 126 17824557489841924627
9709674 26 17838335181721877662
9849439 229 15334661478414520579

> <PUBCHEM_SHAPE_MULTIPOLES>
486.92
12.02
2.81
0.85
0.9
2.12
0
-5.38
0.01
0.81
0
-1.11
-0.21
0

> <PUBCHEM_SHAPE_SELFOVERLAP>
1133.899

> <PUBCHEM_SHAPE_VOLUME>
250.7

> <PUBCHEM_COORDINATE_TYPE>
2
5
10

$$$$
