49830501
  -OEChem-10052115183D

 30 32  0     0  0  0  0  0  0999 V2000
   -5.4656   -0.2757   -0.1625 F   0  0  0  0  0  0  0  0  0  0  0  0
    5.1498   -0.9700    0.3104 O   0  0  0  0  0  0  0  0  0  0  0  0
    4.4524    1.2076   -0.2459 N   0  0  0  0  0  0  0  0  0  0  0  0
    2.1998    0.8099   -0.2094 C   0  0  0  0  0  0  0  0  0  0  0  0
    2.8521   -0.3838    0.1029 C   0  0  0  0  0  0  0  0  0  0  0  0
    3.1913    1.8950   -0.4501 C   0  0  0  0  0  0  0  0  0  0  0  0
    0.1093   -0.3170    0.0112 C   0  0  0  0  0  0  0  0  0  0  0  0
    0.8196    0.8576   -0.2590 C   0  0  0  0  0  0  0  0  0  0  0  0
    4.2964   -0.1337    0.0808 C   0  0  0  0  0  0  0  0  0  0  0  0
   -1.3377   -0.3035   -0.0333 C   0  0  0  0  0  0  0  0  0  0  0  0
    2.1756   -1.5569    0.3737 C   0  0  0  0  0  0  0  0  0  0  0  0
    0.7815   -1.5131    0.3247 C   0  0  0  0  0  0  0  0  0  0  0  0
   -2.0345    0.8629    0.2825 C   0  0  0  0  0  0  0  0  0  0  0  0
   -2.0352   -1.4572   -0.3916 C   0  0  0  0  0  0  0  0  0  0  0  0
   -3.4285    0.8758    0.2397 C   0  0  0  0  0  0  0  0  0  0  0  0
   -3.4293   -1.4444   -0.4344 C   0  0  0  0  0  0  0  0  0  0  0  0
   -4.1259   -0.2779   -0.1188 C   0  0  0  0  0  0  0  0  0  0  0  0
   -4.1709    2.1243    0.5791 C   0  0  0  0  0  0  0  0  0  0  0  0
    3.1579    2.2724   -1.4752 H   0  0  0  0  0  0  0  0  0  0  0  0
    3.1099    2.7053    0.2786 H   0  0  0  0  0  0  0  0  0  0  0  0
    0.3416    1.7919   -0.5339 H   0  0  0  0  0  0  0  0  0  0  0  0
    5.3571    1.6595   -0.3327 H   0  0  0  0  0  0  0  0  0  0  0  0
    2.6964   -2.4743    0.6217 H   0  0  0  0  0  0  0  0  0  0  0  0
    0.2498   -2.4290    0.5701 H   0  0  0  0  0  0  0  0  0  0  0  0
   -1.5219    1.7692    0.5946 H   0  0  0  0  0  0  0  0  0  0  0  0
   -1.5364   -2.3792   -0.6771 H   0  0  0  0  0  0  0  0  0  0  0  0
   -3.9730   -2.3401   -0.7201 H   0  0  0  0  0  0  0  0  0  0  0  0
   -4.5261    2.6102   -0.3352 H   0  0  0  0  0  0  0  0  0  0  0  0
   -5.0306    1.9009    1.2198 H   0  0  0  0  0  0  0  0  0  0  0  0
   -3.5409    2.8356    1.1238 H   0  0  0  0  0  0  0  0  0  0  0  0
  1 17  1  0  0  0  0
  2  9  2  0  0  0  0
  3  6  1  0  0  0  0
  3  9  1  0  0  0  0
  3 22  1  0  0  0  0
  4  5  2  0  0  0  0
  4  6  1  0  0  0  0
  4  8  1  0  0  0  0
  5  9  1  0  0  0  0
  5 11  1  0  0  0  0
  6 19  1  0  0  0  0
  6 20  1  0  0  0  0
  7  8  2  0  0  0  0
  7 10  1  0  0  0  0
  7 12  1  0  0  0  0
  8 21  1  0  0  0  0
 10 13  2  0  0  0  0
 10 14  1  0  0  0  0
 11 12  2  0  0  0  0
 11 23  1  0  0  0  0
 12 24  1  0  0  0  0
 13 15  1  0  0  0  0
 13 25  1  0  0  0  0
 14 16  2  0  0  0  0
 14 26  1  0  0  0  0
 15 17  2  0  0  0  0
 15 18  1  0  0  0  0
 16 17  1  0  0  0  0
 16 27  1  0  0  0  0
 18 28  1  0  0  0  0
 18 29  1  0  0  0  0
 18 30  1  0  0  0  0
M  END
> <PUBCHEM_COMPOUND_CID>
49830501

> <PUBCHEM_CONFORMER_RMSD>
0.6

> <PUBCHEM_CONFORMER_DIVERSEORDER>
1
3
2

> <PUBCHEM_MMFF94_PARTIAL_CHARGES>
23
1 -0.19
11 -0.15
12 -0.15
13 -0.15
14 -0.15
15 -0.14
16 -0.15
17 0.19
18 0.14
2 -0.57
21 0.15
22 0.37
23 0.15
24 0.15
25 0.15
26 0.15
27 0.15
3 -0.73
4 -0.14
5 0.09
6 0.44
8 -0.15
9 0.54

> <PUBCHEM_EFFECTIVE_ROTOR_COUNT>
1.4

> <PUBCHEM_PHARMACOPHORE_FEATURES>
5
1 2 acceptor
1 3 donor
5 3 4 5 6 9 rings
6 10 13 14 15 16 17 rings
6 4 5 7 8 11 12 rings

> <PUBCHEM_HEAVY_ATOM_COUNT>
18

> <PUBCHEM_ATOM_DEF_STEREO_COUNT>
0

> <PUBCHEM_ATOM_UDEF_STEREO_COUNT>
0

> <PUBCHEM_BOND_DEF_STEREO_COUNT>
0

> <PUBCHEM_BOND_UDEF_STEREO_COUNT>
0

> <PUBCHEM_ISOTOPIC_ATOM_COUNT>
0

> <PUBCHEM_COMPONENT_COUNT>
1

> <PUBCHEM_CACTVS_TAUTO_COUNT>
2

> <PUBCHEM_CONFORMER_ID>
02F85A6500000001

> <PUBCHEM_MMFF94_ENERGY>
55.4476

> <PUBCHEM_FEATURE_SELFOVERLAP>
25.46

> <PUBCHEM_SHAPE_FINGERPRINT>
10062212 137 18412256250990724946
10616163 171 18341612659097937007
11471102 20 18334011705402739364
12107183 9 17834394514799227963
12236239 1 18410854369633834039
12644460 14 17822286838957282442
13167823 11 18410854377838900062
13675066 3 18131910468716698610
13760787 5 17603869996813931974
15196674 1 18410575093422019944
15442244 35 18266458694070382730
15536298 74 18412826889199090382
17802600 8 18410006641494283613
17834072 33 18411980286419930607
18186145 218 17967808366782008926
19050596 39 18409167709800644257
200 152 18342453772734202023
20279233 1 15863789491522723531
20612939 158 18114185254792733236
20645477 70 18410292489053871270
21033648 29 16298652967041859957
21267235 1 18410582785792973035
21421861 104 17752199483872723074
21709351 56 18408036295324793932
23402539 116 18131344207486021133
23402655 69 18411983572312505116
23557571 272 17775570822948941505
23559900 14 18201717375659302488
29717793 49 18130785642319493981
335352 9 18337673014741117230
34797466 226 17131840923098887988
3545911 37 18409730664392021607
4214541 1 18411699868179306325
474 4 17968099775796672132
4990 188 18131078121303123158
5104073 3 18409166623237268176
573450 72 18412819183637429883
633830 44 18187085070279091638
7495541 125 16988275499141732443
77779 3 18411702097003458958
9709674 26 18412552015207935799
9981440 41 17327737804463931560

> <PUBCHEM_SHAPE_MULTIPOLES>
352.31
10.47
1.9
0.69
0.56
0.34
0
1.53
-0.14
0.31
-0.04
0.06
0.02
-1

> <PUBCHEM_SHAPE_SELFOVERLAP>
787.866

> <PUBCHEM_SHAPE_VOLUME>
190.4

> <PUBCHEM_COORDINATE_TYPE>
2
5
10

$$$$
