11539329
  -OEChem-10062121563D

 52 53  0     0  0  0  0  0  0999 V2000
    6.3856   -0.0655    0.9211 S   0  0  0  0  0  0  0  0  0  0  0  0
    1.8338    2.2060    1.1501 O   0  0  0  0  0  0  0  0  0  0  0  0
    5.1834   -1.2096   -1.5929 O   0  0  0  0  0  0  0  0  0  0  0  0
    7.3315    0.0064   -0.1821 O   0  0  0  0  0  0  0  0  0  0  0  0
    6.5827    0.7642    2.1007 O   0  0  0  0  0  0  0  0  0  0  0  0
    0.0813   -1.0889   -0.4015 O   0  0  0  0  0  0  0  0  0  0  0  0
   -6.0748    1.0109   -0.1746 O   0  0  0  0  0  0  0  0  0  0  0  0
   -1.4557    0.6474   -0.7707 N   0  0  0  0  0  0  0  0  0  0  0  0
   -3.7938    0.8296   -0.4685 N   0  0  0  0  0  0  0  0  0  0  0  0
   -3.8569   -3.1360    0.9385 N   0  0  0  0  0  0  0  0  0  0  0  0
   -7.3070   -2.0703    1.1052 N   0  0  0  0  0  0  0  0  0  0  0  0
    2.2327    0.7560   -0.7163 C   0  0  0  0  0  0  0  0  0  0  0  0
    4.7883    0.2412    0.2775 C   0  0  0  0  0  0  0  0  0  0  0  0
    2.6559    1.3611    0.4672 C   0  0  0  0  0  0  0  0  0  0  0  0
    4.3652   -0.3637   -0.9061 C   0  0  0  0  0  0  0  0  0  0  0  0
    0.8686    1.0200   -1.2626 C   0  0  0  0  0  0  0  0  0  0  0  0
    3.0875   -0.1064   -1.4028 C   0  0  0  0  0  0  0  0  0  0  0  0
    3.9336    1.1037    0.9640 C   0  0  0  0  0  0  0  0  0  0  0  0
   -0.1971    0.0513   -0.7585 C   0  0  0  0  0  0  0  0  0  0  0  0
    6.3177   -1.7527    1.4770 C   0  0  0  0  0  0  0  0  0  0  0  0
   -2.6867    0.0718   -0.3757 C   0  0  0  0  0  0  0  0  0  0  0  0
   -2.6510   -1.2298    0.0773 C   0  0  0  0  0  0  0  0  0  0  0  0
    0.9865    1.6262    2.1400 C   0  0  0  0  0  0  0  0  0  0  0  0
    4.6649   -1.7809   -2.7922 C   0  0  0  0  0  0  0  0  0  0  0  0
   -3.8557   -1.8033    0.4687 C   0  0  0  0  0  0  0  0  0  0  0  0
   -4.9457    0.2384   -0.0793 C   0  0  0  0  0  0  0  0  0  0  0  0
   -5.0296   -1.0619    0.3920 C   0  0  0  0  0  0  0  0  0  0  0  0
   -5.9042    2.3339   -0.6675 C   0  0  0  0  0  0  0  0  0  0  0  0
   -7.2527    3.0204   -0.7143 C   0  0  0  0  0  0  0  0  0  0  0  0
   -6.2883   -1.6192    0.7862 C   0  0  0  0  0  0  0  0  0  0  0  0
    0.5748    2.0547   -1.0464 H   0  0  0  0  0  0  0  0  0  0  0  0
    0.8789    0.9463   -2.3582 H   0  0  0  0  0  0  0  0  0  0  0  0
    2.7014   -0.5489   -2.3150 H   0  0  0  0  0  0  0  0  0  0  0  0
    4.2406    1.5852    1.8883 H   0  0  0  0  0  0  0  0  0  0  0  0
    5.5262   -1.8478    2.2230 H   0  0  0  0  0  0  0  0  0  0  0  0
    7.2821   -1.9970    1.9283 H   0  0  0  0  0  0  0  0  0  0  0  0
    6.1326   -2.4124    0.6283 H   0  0  0  0  0  0  0  0  0  0  0  0
   -1.5345    1.6060   -1.1011 H   0  0  0  0  0  0  0  0  0  0  0  0
   -1.7775   -1.8541    0.1606 H   0  0  0  0  0  0  0  0  0  0  0  0
    0.6856    0.6055    1.8852 H   0  0  0  0  0  0  0  0  0  0  0  0
    1.5093    1.6201    3.1011 H   0  0  0  0  0  0  0  0  0  0  0  0
    0.0901    2.2455    2.2316 H   0  0  0  0  0  0  0  0  0  0  0  0
    4.4542   -1.0156   -3.5472 H   0  0  0  0  0  0  0  0  0  0  0  0
    3.8007   -2.4241   -2.5934 H   0  0  0  0  0  0  0  0  0  0  0  0
    5.4486   -2.4244   -3.2056 H   0  0  0  0  0  0  0  0  0  0  0  0
   -5.4836    2.3107   -1.6801 H   0  0  0  0  0  0  0  0  0  0  0  0
   -5.2386    2.9015   -0.0061 H   0  0  0  0  0  0  0  0  0  0  0  0
   -4.7159   -3.5818    1.2302 H   0  0  0  0  0  0  0  0  0  0  0  0
   -2.9892   -3.6541    0.9839 H   0  0  0  0  0  0  0  0  0  0  0  0
   -7.1585    4.0432   -1.0897 H   0  0  0  0  0  0  0  0  0  0  0  0
   -7.9439    2.4691   -1.3604 H   0  0  0  0  0  0  0  0  0  0  0  0
   -7.7050    3.0503    0.2826 H   0  0  0  0  0  0  0  0  0  0  0  0
  1  4  2  0  0  0  0
  1  5  2  0  0  0  0
  1 13  1  0  0  0  0
  1 20  1  0  0  0  0
  2 14  1  0  0  0  0
  2 23  1  0  0  0  0
  3 15  1  0  0  0  0
  3 24  1  0  0  0  0
  6 19  2  0  0  0  0
  7 26  1  0  0  0  0
  7 28  1  0  0  0  0
  8 19  1  0  0  0  0
  8 21  1  0  0  0  0
  8 38  1  0  0  0  0
  9 21  2  0  0  0  0
  9 26  1  0  0  0  0
 10 25  1  0  0  0  0
 10 48  1  0  0  0  0
 10 49  1  0  0  0  0
 11 30  3  0  0  0  0
 12 14  1  0  0  0  0
 12 16  1  0  0  0  0
 12 17  2  0  0  0  0
 13 15  2  0  0  0  0
 13 18  1  0  0  0  0
 14 18  2  0  0  0  0
 15 17  1  0  0  0  0
 16 19  1  0  0  0  0
 16 31  1  0  0  0  0
 16 32  1  0  0  0  0
 17 33  1  0  0  0  0
 18 34  1  0  0  0  0
 20 35  1  0  0  0  0
 20 36  1  0  0  0  0
 20 37  1  0  0  0  0
 21 22  1  0  0  0  0
 22 25  2  0  0  0  0
 22 39  1  0  0  0  0
 23 40  1  0  0  0  0
 23 41  1  0  0  0  0
 23 42  1  0  0  0  0
 24 43  1  0  0  0  0
 24 44  1  0  0  0  0
 24 45  1  0  0  0  0
 25 27  1  0  0  0  0
 26 27  2  0  0  0  0
 27 30  1  0  0  0  0
 28 29  1  0  0  0  0
 28 46  1  0  0  0  0
 28 47  1  0  0  0  0
 29 50  1  0  0  0  0
 29 51  1  0  0  0  0
 29 52  1  0  0  0  0
M  END
> <PUBCHEM_COMPOUND_CID>
11539329

> <PUBCHEM_CONFORMER_RMSD>
1

> <PUBCHEM_CONFORMER_DIVERSEORDER>
2
6
24
26
37
27
20
35
17
39
18
25
16
34
46
38
15
7
23
19
43
21
12
42
13
32
36
5
29
14
10
40
31
4
9
22
1
11
44
30
41
47
45
28
3
8
33

> <PUBCHEM_MMFF94_PARTIAL_CHARGES>
35
1 1.2
10 -0.9
11 -0.56
12 -0.14
13 -0.01
14 0.08
15 0.08
16 0.2
17 -0.15
18 -0.15
19 0.57
2 -0.36
20 0.11
21 0.43
22 -0.15
23 0.28
24 0.28
25 0.1
26 0.39
27 0.07
28 0.28
3 -0.36
30 0.48
33 0.15
34 0.15
38 0.37
39 0.15
4 -0.65
48 0.4
49 0.4
5 -0.65
6 -0.57
7 -0.36
8 -0.55
9 -0.62

> <PUBCHEM_EFFECTIVE_ROTOR_COUNT>
9

> <PUBCHEM_PHARMACOPHORE_FEATURES>
12
1 10 cation
1 10 donor
1 11 acceptor
1 2 acceptor
1 3 acceptor
1 4 acceptor
1 5 acceptor
1 6 acceptor
1 7 acceptor
1 8 donor
6 12 13 14 15 17 18 rings
6 9 21 22 25 26 27 rings

> <PUBCHEM_HEAVY_ATOM_COUNT>
30

> <PUBCHEM_ATOM_DEF_STEREO_COUNT>
0

> <PUBCHEM_ATOM_UDEF_STEREO_COUNT>
0

> <PUBCHEM_BOND_DEF_STEREO_COUNT>
0

> <PUBCHEM_BOND_UDEF_STEREO_COUNT>
0

> <PUBCHEM_ISOTOPIC_ATOM_COUNT>
0

> <PUBCHEM_COMPONENT_COUNT>
1

> <PUBCHEM_CACTVS_TAUTO_COUNT>
13

> <PUBCHEM_CONFORMER_ID>
00B0138100000002

> <PUBCHEM_MMFF94_ENERGY>
106.3415

> <PUBCHEM_FEATURE_SELFOVERLAP>
60.922

> <PUBCHEM_SHAPE_FINGERPRINT>
10 15 18130504227794084842
10299344 5 17458344143619397666
10319926 262 18336258020422011553
10673678 19 18122637299866689276
10693767 8 14707748647233339464
11545043 162 18410294739985733097
11646440 116 17561368400364018114
11796584 16 18409167710122624946
12236239 1 17022903462385767020
12616971 3 15769785667296588229
13668630 136 15864067715330796459
13782708 43 18342182223707019991
14840074 17 14851604405951351107
15142383 8 18410285883626187500
15183329 4 15574428834629098122
15348495 7 18341611585075784689
1577012 14 17167871854315256295
17844677 252 18261117417344689973
19427546 20 11887957649504407361
1979834 28 17489873739579845950
20511986 3 14476958952363711653
21033648 29 18200863059261544129
21130935 74 18187361021822663962
21279426 13 18271533000689015933
21315759 40 16732982050457087571
21315763 191 17095527309238660555
21859007 373 18341043008895112533
23081809 10 16950572085915823679
23522609 53 16806473351896986037
23559900 14 18411421717602378061
3004659 81 18041292027664855214
3383291 50 18262242230936563267
3472631 163 11959733793644624386
394071 54 16845576435457019156
397830 11 18269832167722621344
5104073 3 18261401108397918457
559249 180 17967811652880337775
59755656 215 18337956671307876909
6009941 240 18411698768435661232

> <PUBCHEM_SHAPE_MULTIPOLES>
566.1
21.62
2.59
1.78
7.61
0.12
-0.26
1.68
3.49
4.98
0.4
-3.23
0.27
3.4

> <PUBCHEM_SHAPE_SELFOVERLAP>
1182.26

> <PUBCHEM_SHAPE_VOLUME>
322.9

> <PUBCHEM_COORDINATE_TYPE>
2
5
10

$$$$
