49830288
  -OEChem-10062121543D

 43 46  0     0  0  0  0  0  0999 V2000
    1.1301    1.1228   -0.1275 O   0  0  0  0  0  0  0  0  0  0  0  0
    7.3942    0.4315   -0.1285 O   0  0  0  0  0  0  0  0  0  0  0  0
   -3.9893   -2.7076    0.1875 N   0  0  0  0  0  0  0  0  0  0  0  0
   -1.6963   -3.4461    0.1735 N   0  0  0  0  0  0  0  0  0  0  0  0
    1.2473   -1.2230   -0.0086 N   0  0  0  0  0  0  0  0  0  0  0  0
   -2.4337   -1.1096    0.0706 C   0  0  0  0  0  0  0  0  0  0  0  0
   -3.7173   -0.5024    0.0685 C   0  0  0  0  0  0  0  0  0  0  0  0
   -2.6382   -2.4843    0.1456 C   0  0  0  0  0  0  0  0  0  0  0  0
   -4.0813    0.8839    0.0057 C   0  0  0  0  0  0  0  0  0  0  0  0
   -1.1058   -0.6558    0.0171 C   0  0  0  0  0  0  0  0  0  0  0  0
   -4.6548   -1.5099    0.1413 C   0  0  0  0  0  0  0  0  0  0  0  0
   -0.0905   -1.6103    0.0428 C   0  0  0  0  0  0  0  0  0  0  0  0
   -0.4374   -2.9524    0.1195 C   0  0  0  0  0  0  0  0  0  0  0  0
   -4.8660    1.3510   -1.0486 C   0  0  0  0  0  0  0  0  0  0  0  0
   -3.6507    1.7644    0.9981 C   0  0  0  0  0  0  0  0  0  0  0  0
    1.7683    0.0764   -0.0882 C   0  0  0  0  0  0  0  0  0  0  0  0
    3.2519    0.1696   -0.0986 C   0  0  0  0  0  0  0  0  0  0  0  0
   -5.2201    2.6989   -1.1106 C   0  0  0  0  0  0  0  0  0  0  0  0
   -4.0048    3.1121    0.9362 C   0  0  0  0  0  0  0  0  0  0  0  0
   -4.7895    3.5794   -0.1182 C   0  0  0  0  0  0  0  0  0  0  0  0
    3.8815    1.3189    0.3797 C   0  0  0  0  0  0  0  0  0  0  0  0
    4.0144   -0.8915   -0.5867 C   0  0  0  0  0  0  0  0  0  0  0  0
    6.0359    0.3457   -0.1185 C   0  0  0  0  0  0  0  0  0  0  0  0
    5.2734    1.4070    0.3698 C   0  0  0  0  0  0  0  0  0  0  0  0
    5.4064   -0.8035   -0.5966 C   0  0  0  0  0  0  0  0  0  0  0  0
    7.9724    1.6349    0.3749 C   0  0  0  0  0  0  0  0  0  0  0  0
   -0.9456    0.4095   -0.0435 H   0  0  0  0  0  0  0  0  0  0  0  0
   -5.7362   -1.4900    0.1665 H   0  0  0  0  0  0  0  0  0  0  0  0
   -4.4273   -3.6164    0.2443 H   0  0  0  0  0  0  0  0  0  0  0  0
    0.3326   -3.7205    0.1410 H   0  0  0  0  0  0  0  0  0  0  0  0
   -5.2081    0.6825   -1.8352 H   0  0  0  0  0  0  0  0  0  0  0  0
   -3.0413    1.4187    1.8299 H   0  0  0  0  0  0  0  0  0  0  0  0
    1.9003   -1.9980    0.0625 H   0  0  0  0  0  0  0  0  0  0  0  0
   -5.8301    3.0631   -1.9321 H   0  0  0  0  0  0  0  0  0  0  0  0
   -3.6702    3.7977    1.7092 H   0  0  0  0  0  0  0  0  0  0  0  0
   -5.0650    4.6288   -0.1665 H   0  0  0  0  0  0  0  0  0  0  0  0
    3.3053    2.1543    0.7689 H   0  0  0  0  0  0  0  0  0  0  0  0
    3.5685   -1.7891   -1.0040 H   0  0  0  0  0  0  0  0  0  0  0  0
    5.6974    2.3272    0.7569 H   0  0  0  0  0  0  0  0  0  0  0  0
    5.9954   -1.6296   -0.9857 H   0  0  0  0  0  0  0  0  0  0  0  0
    7.6870    2.5023   -0.2300 H   0  0  0  0  0  0  0  0  0  0  0  0
    7.7456    1.7767    1.4371 H   0  0  0  0  0  0  0  0  0  0  0  0
    9.0592    1.5308    0.2914 H   0  0  0  0  0  0  0  0  0  0  0  0
  1 16  2  0  0  0  0
  2 23  1  0  0  0  0
  2 26  1  0  0  0  0
  3  8  1  0  0  0  0
  3 11  1  0  0  0  0
  3 29  1  0  0  0  0
  4  8  1  0  0  0  0
  4 13  2  0  0  0  0
  5 12  1  0  0  0  0
  5 16  1  0  0  0  0
  5 33  1  0  0  0  0
  6  7  1  0  0  0  0
  6  8  2  0  0  0  0
  6 10  1  0  0  0  0
  7  9  1  0  0  0  0
  7 11  2  0  0  0  0
  9 14  2  0  0  0  0
  9 15  1  0  0  0  0
 10 12  2  0  0  0  0
 10 27  1  0  0  0  0
 11 28  1  0  0  0  0
 12 13  1  0  0  0  0
 13 30  1  0  0  0  0
 14 18  1  0  0  0  0
 14 31  1  0  0  0  0
 15 19  2  0  0  0  0
 15 32  1  0  0  0  0
 16 17  1  0  0  0  0
 17 21  2  0  0  0  0
 17 22  1  0  0  0  0
 18 20  2  0  0  0  0
 18 34  1  0  0  0  0
 19 20  1  0  0  0  0
 19 35  1  0  0  0  0
 20 36  1  0  0  0  0
 21 24  1  0  0  0  0
 21 37  1  0  0  0  0
 22 25  2  0  0  0  0
 22 38  1  0  0  0  0
 23 24  2  0  0  0  0
 23 25  1  0  0  0  0
 24 39  1  0  0  0  0
 25 40  1  0  0  0  0
 26 41  1  0  0  0  0
 26 42  1  0  0  0  0
 26 43  1  0  0  0  0
M  END
> <PUBCHEM_COMPOUND_CID>
49830288

> <PUBCHEM_CONFORMER_RMSD>
0.8

> <PUBCHEM_CONFORMER_DIVERSEORDER>
1
6
8
7
4
5
2
3

> <PUBCHEM_MMFF94_PARTIAL_CHARGES>
39
1 -0.57
10 -0.15
11 -0.3
12 0.12
13 0.16
14 -0.15
15 -0.15
16 0.54
17 0.09
18 -0.15
19 -0.15
2 -0.36
20 -0.15
21 -0.15
22 -0.15
23 0.08
24 -0.15
25 -0.15
26 0.28
27 0.15
28 0.15
29 0.27
3 0.03
30 0.15
31 0.15
32 0.15
33 0.37
34 0.15
35 0.15
36 0.15
37 0.15
38 0.15
39 0.15
4 -0.57
40 0.15
5 -0.55
7 -0.05
8 0.11
9 0.05

> <PUBCHEM_EFFECTIVE_ROTOR_COUNT>
5

> <PUBCHEM_PHARMACOPHORE_FEATURES>
10
1 1 acceptor
1 2 acceptor
1 3 cation
1 3 donor
1 4 acceptor
1 5 donor
5 3 6 7 8 11 rings
6 17 21 22 23 24 25 rings
6 4 6 8 10 12 13 rings
6 9 14 15 18 19 20 rings

> <PUBCHEM_HEAVY_ATOM_COUNT>
26

> <PUBCHEM_ATOM_DEF_STEREO_COUNT>
0

> <PUBCHEM_ATOM_UDEF_STEREO_COUNT>
0

> <PUBCHEM_BOND_DEF_STEREO_COUNT>
0

> <PUBCHEM_BOND_UDEF_STEREO_COUNT>
0

> <PUBCHEM_ISOTOPIC_ATOM_COUNT>
0

> <PUBCHEM_COMPONENT_COUNT>
1

> <PUBCHEM_CACTVS_TAUTO_COUNT>
4

> <PUBCHEM_CONFORMER_ID>
02F8599000000001

> <PUBCHEM_MMFF94_ENERGY>
84.5722

> <PUBCHEM_FEATURE_SELFOVERLAP>
50.86

> <PUBCHEM_SHAPE_FINGERPRINT>
10050765 1 18337954472660128603
100830 39 18410573998448270992
10411042 1 17905890632686270843
10670039 82 18410568509374123561
10835480 77 18342736317638025156
11135609 187 18192706749422430293
11135609 201 18270971120731422465
12107183 9 18118675522762931226
12390115 104 18338243678313338055
12422481 6 17168710708667680223
13073987 5 18334858325003826098
13885169 127 18411701019968825098
14251764 75 17838908036392772841
14347329 18 18340761559503323241
14466204 15 18409166606263172072
14508225 48 17767109171295486711
14598715 104 18059280064013675760
14790565 3 18122064204371481683
14931854 50 18129087936838792773
14950920 106 14635172113223356045
15021287 119 17022906769974938908
15042514 8 18048322433915640651
15152005 290 18337389319277441997
15183329 4 18412826859271365610
15419008 42 18059299734615530614
15439362 3 18050849910335623661
15513586 35 17170143540187004469
155225 5 18340487742585994624
15980000 95 16968857758613179586
17093844 174 18408882966881381216
17349148 13 12967130527546944646
17844677 252 18337679736264721260
18608769 82 18411984676794327051
21033648 144 18188763938898857533
21033648 29 18130495422931858480
21236236 1 18411418423114262629
21279426 13 18270971137578962254
21315763 129 18340206414095957916
21421861 104 17750221523138102466
23522609 53 17676786335551545812
23559900 14 18130504223631175216
23569914 152 16766781893083992620
23569943 247 16734083684542630994
283562 15 18408321116952005091
32027 91 17842576058580184174
350125 39 18410578392674178843
4073 2 18261679259623726106
4144715 1 18336557087875462362
4214541 1 18410857702349192050
445580 37 18338810000217202020
474 4 17905884783140098051
5104073 3 18113900420724706362
5283173 99 18413389852058590832
5372103 7 17242712218933873117
6327066 14 18261949627656922821
6328613 192 18335424595336173860
636775 72 18340483478453317272
7226269 152 18201722834067123648
7288768 16 17968946275939534067
7808743 9 18409446956185291577
9980921 221 18057069950999824780
9981440 41 18334580114513308795

> <PUBCHEM_SHAPE_MULTIPOLES>
508.39
17.88
3.91
0.82
30.57
0.14
0.04
-12.92
0.89
-6.94
-0.33
-0.56
-0.36
1

> <PUBCHEM_SHAPE_SELFOVERLAP>
1134.273

> <PUBCHEM_SHAPE_VOLUME>
269.1

> <PUBCHEM_COORDINATE_TYPE>
2
5
10

$$$$
