49830924
  -OEChem-10052115193D

 33 36  0     0  0  0  0  0  0999 V2000
    2.9521    2.1458   -0.0599 O   0  0  0  0  0  0  0  0  0  0  0  0
   -1.2620    2.6588   -0.0883 N   0  0  0  0  0  0  0  0  0  0  0  0
   -3.3540    1.4523   -0.0254 N   0  0  0  0  0  0  0  0  0  0  0  0
    1.3514    0.4191   -0.0522 N   0  0  0  0  0  0  0  0  0  0  0  0
    0.0634    2.4272   -0.0970 N   0  0  0  0  0  0  0  0  0  0  0  0
    5.8474   -1.8954    0.0460 N   0  0  0  0  0  0  0  0  0  0  0  0
   -1.1186    0.4716   -0.0237 C   0  0  0  0  0  0  0  0  0  0  0  0
   -2.0149    1.5228   -0.0443 C   0  0  0  0  0  0  0  0  0  0  0  0
   -3.0399   -0.9607    0.0440 C   0  0  0  0  0  0  0  0  0  0  0  0
   -1.6422   -0.8230    0.0220 C   0  0  0  0  0  0  0  0  0  0  0  0
    0.1448    1.0930   -0.0580 C   0  0  0  0  0  0  0  0  0  0  0  0
   -3.8475    0.2038    0.0188 C   0  0  0  0  0  0  0  0  0  0  0  0
   -3.6329   -2.2329    0.0905 C   0  0  0  0  0  0  0  0  0  0  0  0
   -5.2280    0.0350    0.0414 C   0  0  0  0  0  0  0  0  0  0  0  0
   -5.0178   -2.3673    0.1121 C   0  0  0  0  0  0  0  0  0  0  0  0
   -5.8161   -1.2316    0.0877 C   0  0  0  0  0  0  0  0  0  0  0  0
    2.6545    0.9560   -0.0534 C   0  0  0  0  0  0  0  0  0  0  0  0
    3.7625   -0.0344   -0.0173 C   0  0  0  0  0  0  0  0  0  0  0  0
    4.9926    0.3138    0.5297 C   0  0  0  0  0  0  0  0  0  0  0  0
    3.5736   -1.3121   -0.5326 C   0  0  0  0  0  0  0  0  0  0  0  0
    5.9935   -0.6442    0.5373 C   0  0  0  0  0  0  0  0  0  0  0  0
    4.6381   -2.1974   -0.4774 C   0  0  0  0  0  0  0  0  0  0  0  0
   -0.9870   -1.6890    0.0401 H   0  0  0  0  0  0  0  0  0  0  0  0
   -1.5832    3.6185   -0.1135 H   0  0  0  0  0  0  0  0  0  0  0  0
   -3.0183   -3.1304    0.1100 H   0  0  0  0  0  0  0  0  0  0  0  0
    1.2471   -0.5897    0.0056 H   0  0  0  0  0  0  0  0  0  0  0  0
   -5.8800    0.9070    0.0232 H   0  0  0  0  0  0  0  0  0  0  0  0
   -5.4704   -3.3535    0.1479 H   0  0  0  0  0  0  0  0  0  0  0  0
   -6.8979   -1.3261    0.1044 H   0  0  0  0  0  0  0  0  0  0  0  0
    5.1812    1.2974    0.9462 H   0  0  0  0  0  0  0  0  0  0  0  0
    2.6521   -1.6365   -1.0018 H   0  0  0  0  0  0  0  0  0  0  0  0
    6.9709   -0.4232    0.9535 H   0  0  0  0  0  0  0  0  0  0  0  0
    4.5452   -3.2035   -0.8731 H   0  0  0  0  0  0  0  0  0  0  0  0
  1 17  2  0  0  0  0
  2  5  1  0  0  0  0
  2  8  1  0  0  0  0
  2 24  1  0  0  0  0
  3  8  2  0  0  0  0
  3 12  1  0  0  0  0
  4 11  1  0  0  0  0
  4 17  1  0  0  0  0
  4 26  1  0  0  0  0
  5 11  2  0  0  0  0
  6 21  2  0  0  0  0
  6 22  1  0  0  0  0
  7  8  1  0  0  0  0
  7 10  2  0  0  0  0
  7 11  1  0  0  0  0
  9 10  1  0  0  0  0
  9 12  1  0  0  0  0
  9 13  2  0  0  0  0
 10 23  1  0  0  0  0
 12 14  2  0  0  0  0
 13 15  1  0  0  0  0
 13 25  1  0  0  0  0
 14 16  1  0  0  0  0
 14 27  1  0  0  0  0
 15 16  2  0  0  0  0
 15 28  1  0  0  0  0
 16 29  1  0  0  0  0
 17 18  1  0  0  0  0
 18 19  2  0  0  0  0
 18 20  1  0  0  0  0
 19 21  1  0  0  0  0
 19 30  1  0  0  0  0
 20 22  2  0  0  0  0
 20 31  1  0  0  0  0
 21 32  1  0  0  0  0
 22 33  1  0  0  0  0
M  END
> <PUBCHEM_COMPOUND_CID>
49830924

> <PUBCHEM_CONFORMER_RMSD>
0.6

> <PUBCHEM_CONFORMER_DIVERSEORDER>
1
4
7
6
8
3
5
2

> <PUBCHEM_MMFF94_PARTIAL_CHARGES>
31
1 -0.57
10 -0.15
11 0.35
12 0.31
13 -0.15
14 -0.15
15 -0.15
16 -0.15
17 0.54
18 0.09
19 -0.15
2 0.3
20 -0.15
21 0.16
22 0.16
23 0.15
24 0.27
25 0.15
26 0.37
27 0.15
28 0.15
29 0.15
3 -0.57
30 0.15
31 0.15
32 0.15
33 0.15
4 -0.49
5 -0.71
6 -0.62
8 0.11

> <PUBCHEM_EFFECTIVE_ROTOR_COUNT>
3

> <PUBCHEM_PHARMACOPHORE_FEATURES>
9
1 1 acceptor
1 2 donor
1 4 donor
1 6 acceptor
3 2 3 8 cation
5 2 5 7 8 11 rings
6 3 7 8 9 10 12 rings
6 6 18 19 20 21 22 rings
6 9 12 13 14 15 16 rings

> <PUBCHEM_HEAVY_ATOM_COUNT>
22

> <PUBCHEM_ATOM_DEF_STEREO_COUNT>
0

> <PUBCHEM_ATOM_UDEF_STEREO_COUNT>
0

> <PUBCHEM_BOND_DEF_STEREO_COUNT>
0

> <PUBCHEM_BOND_UDEF_STEREO_COUNT>
0

> <PUBCHEM_ISOTOPIC_ATOM_COUNT>
0

> <PUBCHEM_COMPONENT_COUNT>
1

> <PUBCHEM_CACTVS_TAUTO_COUNT>
31

> <PUBCHEM_CONFORMER_ID>
02F85C0C00000001

> <PUBCHEM_MMFF94_ENERGY>
60.6333

> <PUBCHEM_FEATURE_SELFOVERLAP>
45.815

> <PUBCHEM_SHAPE_FINGERPRINT>
10 15 11455893585649067935
10622 236 17485065729608591391
10693767 8 17839444933322626487
10835480 77 18411408527447134100
11524674 6 16917348138691042103
12236239 1 17822010908424582732
12516196 113 18272931643677378496
12760667 363 18341891896665101039
13288520 33 18409448090093541757
13402501 40 18413108359691540230
13533116 47 18342176721209920016
13551218 46 18342178873342203439
13685833 64 18408606985015101587
13862211 1 18411980299837770759
14251751 18 18411699881095876234
14341114 176 18341617001467414022
14528608 73 8358260328080273483
14790565 3 17331403069688422577
14866123 147 18197222456119016225
15042514 8 18411140195513181433
15196674 1 18410575106143203173
15352361 1 18410575089158603734
15927050 60 17551511476596274556
17492 89 18339923710880426670
17857418 61 18410573993831335854
1813 80 17676205783983134852
19141452 34 18273214227040670023
193927 3 18187655720718445714
1979834 28 17561092401444742886
20374829 77 18408039615213064051
20403669 9 18413395323504313854
21267235 1 18408891741177884787
21279426 13 18335133185993988981
21623969 137 17775286045649068494
22950370 63 18410016576027815909
23198884 109 14996001025943039599
23402539 116 18410851062445673773
23424784 1240 18200323117363940894
23522609 53 18121815852046362684
23559900 14 18410566318772549665
3004659 81 18113899381642715710
314194 84 18197499730258644519
335352 9 18410011040558718325
3421961 26 18341611585361114936
4073 2 18115029722424741898
4214541 1 18410575054725174729
4325135 7 18261114097819896852
463206 1 18337673147326609459
465052 167 18343588451633468734
5104073 3 18201152157873420248
559249 180 18335699417191712779
5718773 13 18268707398104918823
59682541 35 18200863055615060114
59755656 215 18334290925284820991
6138700 20 18408040698035861827
67856867 119 18261677086133183420
7970288 3 18267018534800642039
9709674 26 18262523705305806554

> <PUBCHEM_SHAPE_MULTIPOLES>
421.98
14.79
2.68
0.65
6.89
0.21
0.01
-9.73
1.17
-0.42
-0.16
0.22
-0.07
0.41

> <PUBCHEM_SHAPE_SELFOVERLAP>
955.608

> <PUBCHEM_SHAPE_VOLUME>
218.9

> <PUBCHEM_COORDINATE_TYPE>
2
5
10

$$$$
