11683817
  -OEChem-10052115143D

 49 51  0     0  0  0  0  0  0999 V2000
    2.1287   -1.3386   -2.5887 Cl  0  0  0  0  0  0  0  0  0  0  0  0
    5.1755    1.4085   -1.8162 F   0  0  0  0  0  0  0  0  0  0  0  0
    9.2916    0.8918    0.4597 F   0  0  0  0  0  0  0  0  0  0  0  0
    3.2701   -0.6449    0.0663 O   0  0  0  0  0  0  0  0  0  0  0  0
   -0.7776   -1.2717   -2.2507 O   0  0  0  0  0  0  0  0  0  0  0  0
   -4.7687    2.3648    0.0906 O   0  0  0  0  0  0  0  0  0  0  0  0
   -9.0514    1.3871    0.8654 O   0  0  0  0  0  0  0  0  0  0  0  0
   -0.8357   -0.9282    0.0768 N   0  0  0  0  0  0  0  0  0  0  0  0
   -6.5640    1.0319   -0.5232 N   0  0  0  0  0  0  0  0  0  0  0  0
    1.2302   -0.4948    1.2053 N   0  0  0  0  0  0  0  0  0  0  0  0
   -2.2709   -1.0231    0.2084 C   0  0  0  0  0  0  0  0  0  0  0  0
   -2.8796   -2.2335    0.5398 C   0  0  0  0  0  0  0  0  0  0  0  0
   -3.0495    0.1156    0.0015 C   0  0  0  0  0  0  0  0  0  0  0  0
   -4.4370    0.0437    0.1262 C   0  0  0  0  0  0  0  0  0  0  0  0
   -4.2671   -2.3054    0.6644 C   0  0  0  0  0  0  0  0  0  0  0  0
   -5.0457   -1.1668    0.4575 C   0  0  0  0  0  0  0  0  0  0  0  0
   -2.0706   -3.4695    0.7659 C   0  0  0  0  0  0  0  0  0  0  0  0
   -0.2153   -1.1184   -1.1682 C   0  0  0  0  0  0  0  0  0  0  0  0
   -5.2484    1.2312   -0.0890 C   0  0  0  0  0  0  0  0  0  0  0  0
   -0.0587   -0.6094    1.1824 C   0  0  0  0  0  0  0  0  0  0  0  0
    1.2738   -1.0427   -1.1210 C   0  0  0  0  0  0  0  0  0  0  0  0
    1.8891   -0.7318    0.0285 C   0  0  0  0  0  0  0  0  0  0  0  0
    3.6765    0.6509    0.4553 C   0  0  0  0  0  0  0  0  0  0  0  0
   -7.4852    2.1100   -0.8028 C   0  0  0  0  0  0  0  0  0  0  0  0
    5.1757    0.7151    0.4540 C   0  0  0  0  0  0  0  0  0  0  0  0
   -8.2793    2.4990    0.4307 C   0  0  0  0  0  0  0  0  0  0  0  0
    5.8496    1.0967   -0.7005 C   0  0  0  0  0  0  0  0  0  0  0  0
    5.8767    0.3921    1.6104 C   0  0  0  0  0  0  0  0  0  0  0  0
    7.2432    1.1560   -0.6987 C   0  0  0  0  0  0  0  0  0  0  0  0
    7.2703    0.4513    1.6121 C   0  0  0  0  0  0  0  0  0  0  0  0
    7.9536    0.8332    0.4575 C   0  0  0  0  0  0  0  0  0  0  0  0
   -2.5662    1.0542   -0.2607 H   0  0  0  0  0  0  0  0  0  0  0  0
   -4.7568   -3.2389    0.9288 H   0  0  0  0  0  0  0  0  0  0  0  0
   -6.1188   -1.2601    0.5962 H   0  0  0  0  0  0  0  0  0  0  0  0
   -1.4975   -3.7236   -0.1317 H   0  0  0  0  0  0  0  0  0  0  0  0
   -1.3842   -3.3307    1.6074 H   0  0  0  0  0  0  0  0  0  0  0  0
   -2.7029   -4.3327    1.0012 H   0  0  0  0  0  0  0  0  0  0  0  0
   -0.6397   -0.4454    2.1048 H   0  0  0  0  0  0  0  0  0  0  0  0
   -6.9006    0.0943   -0.7141 H   0  0  0  0  0  0  0  0  0  0  0  0
    3.3143    0.8995    1.4621 H   0  0  0  0  0  0  0  0  0  0  0  0
    3.2709    1.4070   -0.2311 H   0  0  0  0  0  0  0  0  0  0  0  0
   -8.1564    1.7492   -1.5891 H   0  0  0  0  0  0  0  0  0  0  0  0
   -6.9288    2.9722   -1.1837 H   0  0  0  0  0  0  0  0  0  0  0  0
   -7.6267    2.8100    1.2528 H   0  0  0  0  0  0  0  0  0  0  0  0
   -8.9646    3.3202    0.2019 H   0  0  0  0  0  0  0  0  0  0  0  0
    5.3551    0.0912    2.5148 H   0  0  0  0  0  0  0  0  0  0  0  0
    7.7752    1.4536   -1.5974 H   0  0  0  0  0  0  0  0  0  0  0  0
    7.8237    0.2000    2.5121 H   0  0  0  0  0  0  0  0  0  0  0  0
   -8.4332    0.6629    1.0635 H   0  0  0  0  0  0  0  0  0  0  0  0
  1 21  1  0  0  0  0
  2 27  1  0  0  0  0
  3 31  1  0  0  0  0
  4 22  1  0  0  0  0
  4 23  1  0  0  0  0
  5 18  2  0  0  0  0
  6 19  2  0  0  0  0
  7 26  1  0  0  0  0
  7 49  1  0  0  0  0
  8 11  1  0  0  0  0
  8 18  1  0  0  0  0
  8 20  1  0  0  0  0
  9 19  1  0  0  0  0
  9 24  1  0  0  0  0
  9 39  1  0  0  0  0
 10 20  2  0  0  0  0
 10 22  1  0  0  0  0
 11 12  2  0  0  0  0
 11 13  1  0  0  0  0
 12 15  1  0  0  0  0
 12 17  1  0  0  0  0
 13 14  2  0  0  0  0
 13 32  1  0  0  0  0
 14 16  1  0  0  0  0
 14 19  1  0  0  0  0
 15 16  2  0  0  0  0
 15 33  1  0  0  0  0
 16 34  1  0  0  0  0
 17 35  1  0  0  0  0
 17 36  1  0  0  0  0
 17 37  1  0  0  0  0
 18 21  1  0  0  0  0
 20 38  1  0  0  0  0
 21 22  2  0  0  0  0
 23 25  1  0  0  0  0
 23 40  1  0  0  0  0
 23 41  1  0  0  0  0
 24 26  1  0  0  0  0
 24 42  1  0  0  0  0
 24 43  1  0  0  0  0
 25 27  2  0  0  0  0
 25 28  1  0  0  0  0
 26 44  1  0  0  0  0
 26 45  1  0  0  0  0
 27 29  1  0  0  0  0
 28 30  2  0  0  0  0
 28 46  1  0  0  0  0
 29 31  2  0  0  0  0
 29 47  1  0  0  0  0
 30 31  1  0  0  0  0
 30 48  1  0  0  0  0
M  END
> <PUBCHEM_COMPOUND_CID>
11683817

> <PUBCHEM_CONFORMER_RMSD>
1

> <PUBCHEM_CONFORMER_DIVERSEORDER>
1
176
239
191
164
152
231
52
13
189
134
126
170
119
32
229
226
242
31
86
177
199
33
104
36
114
212
76
249
66
109
131
232
247
65
101
190
201
53
87
2
163
166
223
200
79
15
193
180
204
67
107
205
159
78
238
4
129
236
98
158
25
156
80
243
14
217
121
248
179
123
94
110
168
68
237
118
208
55
136
44
27
77
185
51
202
244
106
219
175
133
28
116
73
41
38
187
227
172
113
115
215
222
245
194
8
206
188
40
74
59
234
82
89
246
203
147
9
22
72
62
97
48
140
23
228
148
88
142
186
58
46
130
70
20
157
18
95
21
197
225
171
71
138
17
221
117
160
54
154
124
230
182
45
75
155
6
100
220
240
35
178
56
91
183
184
135
125
214
5
60
241
26
92
233
196
149
11
29
34
198
105
83
19
69
211
103
128
7
93
213
218
162
30
235
216
24
96
173
169
112
224
3
207
165
122
39
144
145
192
37
85
141
146
81
137
10
57
63
50
210
111
181
99
161
139
132
42
43
84
195
209
102
49
127
64
150
47
174
108
12
153
61
167
151
16
120
90
143

> <PUBCHEM_MMFF94_PARTIAL_CHARGES>
40
1 -0.14
10 -0.62
11 0.12
12 -0.14
13 -0.15
14 0.09
15 -0.15
16 -0.15
17 0.14
18 0.62
19 0.54
2 -0.19
20 0.45
21 0.15
22 0.25
23 0.42
24 0.3
25 -0.14
26 0.28
27 0.19
28 -0.15
29 -0.15
3 -0.19
30 -0.15
31 0.19
32 0.15
33 0.15
34 0.15
38 0.06
39 0.37
4 -0.36
46 0.15
47 0.15
48 0.15
49 0.4
5 -0.57
6 -0.57
7 -0.68
8 -0.24
9 -0.73

> <PUBCHEM_EFFECTIVE_ROTOR_COUNT>
8

> <PUBCHEM_PHARMACOPHORE_FEATURES>
9
1 4 acceptor
1 5 acceptor
1 6 acceptor
1 7 acceptor
1 7 donor
1 9 donor
6 11 12 13 14 15 16 rings
6 25 27 28 29 30 31 rings
6 8 10 18 20 21 22 rings

> <PUBCHEM_HEAVY_ATOM_COUNT>
31

> <PUBCHEM_ATOM_DEF_STEREO_COUNT>
0

> <PUBCHEM_ATOM_UDEF_STEREO_COUNT>
0

> <PUBCHEM_BOND_DEF_STEREO_COUNT>
0

> <PUBCHEM_BOND_UDEF_STEREO_COUNT>
0

> <PUBCHEM_ISOTOPIC_ATOM_COUNT>
0

> <PUBCHEM_COMPONENT_COUNT>
1

> <PUBCHEM_CACTVS_TAUTO_COUNT>
2

> <PUBCHEM_CONFORMER_ID>
00B247E900000001

> <PUBCHEM_MMFF94_ENERGY>
99.4287

> <PUBCHEM_FEATURE_SELFOVERLAP>
45.675

> <PUBCHEM_SHAPE_FINGERPRINT>
10 15 17821730520633897257
10190206 1 18341879824282718199
10299344 5 17603580872880372922
10411042 1 17831301971750848883
11297750 10 17464250526922039750
11315181 36 17749386030885396795
13540713 4 15767778052873600602
13911987 19 16917350329345609503
14849402 71 16951418783121558740
14856354 85 18189055459372283758
14931854 50 14261345835207456815
15142383 8 18341890810639709808
15183329 4 14620797102543953612
15461852 350 17988074599380512527
1577012 14 17967812777992944784
15840311 113 17968658207449883355
16989713 51 17843960575647827079
17980427 23 17676490591722890806
19302320 297 17676496054942611172
21033648 29 18058716009419754560
21150785 3 13686297993615347940
21859007 373 18059564798733530776
22122407 14 18187939425416854840
23522609 53 17241064188041317556
23559900 14 18266762206519716743
23569943 247 15937506223100835626
23576562 1 17059476578212437441
2838139 119 18342168999011968836
3103668 31 16771523321951188175
3411729 13 18335136462923069994
3633792 109 15554447396537087897
394071 54 15213584576565811028
5028188 123 18114471167162010558
5470011 282 14189566460023407177
58260988 114 15141535778415742579
636775 8 10735871807303806145
6691757 9 17821726161664370987
9896288 288 18041846228902777067
999808 66 12324238360534784481

> <PUBCHEM_SHAPE_MULTIPOLES>
586.87
25.86
2.59
1.58
7.64
0.75
0.81
-23.63
-5.12
-5.6
-0.13
1.86
0.44
0.75

> <PUBCHEM_SHAPE_SELFOVERLAP>
1255.466

> <PUBCHEM_SHAPE_VOLUME>
326.1

> <PUBCHEM_COORDINATE_TYPE>
2
5
10

$$$$
