3128424
  -OEChem-10062122023D

 37 40  0     0  0  0  0  0  0999 V2000
    0.2711    3.5093    0.6402 S   0  0  0  0  0  0  0  0  0  0  0  0
    5.7575   -2.4400   -0.5768 O   0  0  0  0  0  0  0  0  0  0  0  0
   -2.4602   -0.7176    0.1615 N   0  0  0  0  0  0  0  0  0  0  0  0
   -4.4304   -0.0679   -0.6746 N   0  0  0  0  0  0  0  0  0  0  0  0
    0.1097    0.9944    0.0639 N   0  0  0  0  0  0  0  0  0  0  0  0
    2.3074    1.8298    0.3123 N   0  0  0  0  0  0  0  0  0  0  0  0
   -2.3515    0.6263   -0.0881 C   0  0  0  0  0  0  0  0  0  0  0  0
   -3.5719    0.9999   -0.5996 C   0  0  0  0  0  0  0  0  0  0  0  0
   -3.7470   -1.0952   -0.2129 C   0  0  0  0  0  0  0  0  0  0  0  0
   -1.1795    1.4875    0.1407 C   0  0  0  0  0  0  0  0  0  0  0  0
   -1.5194   -1.6009    0.6838 C   0  0  0  0  0  0  0  0  0  0  0  0
   -4.0947   -2.4676   -0.0428 C   0  0  0  0  0  0  0  0  0  0  0  0
   -4.0165    2.3321   -1.0432 C   0  0  0  0  0  0  0  0  0  0  0  0
   -1.2912    2.8300    0.4420 C   0  0  0  0  0  0  0  0  0  0  0  0
   -1.8547   -2.8916    0.8418 C   0  0  0  0  0  0  0  0  0  0  0  0
   -3.1891   -3.3275    0.4622 C   0  0  0  0  0  0  0  0  0  0  0  0
    0.9552    1.9708    0.3089 C   0  0  0  0  0  0  0  0  0  0  0  0
    3.2027    0.7213    0.0822 C   0  0  0  0  0  0  0  0  0  0  0  0
    4.5618    0.9365    0.1663 C   0  0  0  0  0  0  0  0  0  0  0  0
    2.6679   -0.5142   -0.2145 C   0  0  0  0  0  0  0  0  0  0  0  0
    5.4270   -0.1346   -0.0568 C   0  0  0  0  0  0  0  0  0  0  0  0
    3.5332   -1.5853   -0.4377 C   0  0  0  0  0  0  0  0  0  0  0  0
    4.9127   -1.3955   -0.3589 C   0  0  0  0  0  0  0  0  0  0  0  0
   -0.5432   -1.2319    0.9658 H   0  0  0  0  0  0  0  0  0  0  0  0
   -5.0869   -2.8040   -0.3222 H   0  0  0  0  0  0  0  0  0  0  0  0
   -4.9111    2.2459   -1.6700 H   0  0  0  0  0  0  0  0  0  0  0  0
   -4.2801    2.9610   -0.1878 H   0  0  0  0  0  0  0  0  0  0  0  0
   -3.2544    2.8365   -1.6447 H   0  0  0  0  0  0  0  0  0  0  0  0
   -2.1658    3.4463    0.5839 H   0  0  0  0  0  0  0  0  0  0  0  0
   -1.1615   -3.6173    1.2495 H   0  0  0  0  0  0  0  0  0  0  0  0
   -3.4352   -4.3748    0.5995 H   0  0  0  0  0  0  0  0  0  0  0  0
    2.8337    2.6772    0.5197 H   0  0  0  0  0  0  0  0  0  0  0  0
    4.9713    1.9146    0.4007 H   0  0  0  0  0  0  0  0  0  0  0  0
    1.6087   -0.7153   -0.2919 H   0  0  0  0  0  0  0  0  0  0  0  0
    6.4998    0.0265    0.0076 H   0  0  0  0  0  0  0  0  0  0  0  0
    3.1271   -2.5653   -0.6735 H   0  0  0  0  0  0  0  0  0  0  0  0
    6.6742   -2.1291   -0.4822 H   0  0  0  0  0  0  0  0  0  0  0  0
  1 14  1  0  0  0  0
  1 17  1  0  0  0  0
  2 23  1  0  0  0  0
  2 37  1  0  0  0  0
  3  7  1  0  0  0  0
  3  9  1  0  0  0  0
  3 11  1  0  0  0  0
  4  8  1  0  0  0  0
  4  9  2  0  0  0  0
  5 10  1  0  0  0  0
  5 17  2  0  0  0  0
  6 17  1  0  0  0  0
  6 18  1  0  0  0  0
  6 32  1  0  0  0  0
  7  8  2  0  0  0  0
  7 10  1  0  0  0  0
  8 13  1  0  0  0  0
  9 12  1  0  0  0  0
 10 14  2  0  0  0  0
 11 15  2  0  0  0  0
 11 24  1  0  0  0  0
 12 16  2  0  0  0  0
 12 25  1  0  0  0  0
 13 26  1  0  0  0  0
 13 27  1  0  0  0  0
 13 28  1  0  0  0  0
 14 29  1  0  0  0  0
 15 16  1  0  0  0  0
 15 30  1  0  0  0  0
 16 31  1  0  0  0  0
 18 19  2  0  0  0  0
 18 20  1  0  0  0  0
 19 21  1  0  0  0  0
 19 33  1  0  0  0  0
 20 22  2  0  0  0  0
 20 34  1  0  0  0  0
 21 23  2  0  0  0  0
 21 35  1  0  0  0  0
 22 23  1  0  0  0  0
 22 36  1  0  0  0  0
M  END
> <PUBCHEM_COMPOUND_CID>
3128424

> <PUBCHEM_CONFORMER_RMSD>
0.6

> <PUBCHEM_CONFORMER_DIVERSEORDER>
6
14
30
26
41
13
10
43
19
8
34
24
16
35
12
2
15
1
36
33
17
37
18
44
21
40
22
20
9
3
23
39
31
11
32
45
7
46
4
25
42
28
38
5
27
29

> <PUBCHEM_MMFF94_PARTIAL_CHARGES>
34
1 -0.08
10 0.23
11 -0.18
12 -0.11
13 0.18
14 -0.11
15 -0.15
16 -0.15
17 0.46
18 0.1
19 -0.15
2 -0.53
20 -0.15
21 -0.15
22 -0.15
23 0.08
24 0.15
25 0.15
29 0.15
3 0.33
30 0.15
31 0.15
32 0.4
33 0.15
34 0.15
35 0.15
36 0.15
37 0.45
4 -0.57
5 -0.57
6 -0.58
7 -0.15
8 0.05
9 0.14

> <PUBCHEM_EFFECTIVE_ROTOR_COUNT>
3

> <PUBCHEM_PHARMACOPHORE_FEATURES>
8
1 2 donor
1 6 donor
3 3 4 9 cation
3 5 6 17 cation
5 1 5 10 14 17 rings
5 3 4 7 8 9 rings
6 18 19 20 21 22 23 rings
6 3 9 11 12 15 16 rings

> <PUBCHEM_HEAVY_ATOM_COUNT>
23

> <PUBCHEM_ATOM_DEF_STEREO_COUNT>
0

> <PUBCHEM_ATOM_UDEF_STEREO_COUNT>
0

> <PUBCHEM_BOND_DEF_STEREO_COUNT>
0

> <PUBCHEM_BOND_UDEF_STEREO_COUNT>
0

> <PUBCHEM_ISOTOPIC_ATOM_COUNT>
0

> <PUBCHEM_COMPONENT_COUNT>
1

> <PUBCHEM_CACTVS_TAUTO_COUNT>
6

> <PUBCHEM_CONFORMER_ID>
002FBC6800000006

> <PUBCHEM_MMFF94_ENERGY>
58.7279

> <PUBCHEM_FEATURE_SELFOVERLAP>
40.713

> <PUBCHEM_SHAPE_FINGERPRINT>
10616163 171 18341052930517193422
10693767 8 17768509940593380495
10764073 3 17753933512973976609
10835480 77 18340476833658985548
10906281 52 18058465230696237965
11409948 41 17408229727194260071
12403259 226 18194680595546076623
12555020 224 18337664227121985053
12788726 201 18125715695346153264
13402501 40 18412263951730040670
138480 1 15528557900734185264
13989917 61 17401208270896578747
14251740 79 18338801091642432440
14251757 5 18335138652764715465
14790565 3 17907299849751916313
14866123 147 18270125587351509697
14910302 57 18260255335661365348
14931854 50 18262794069086338135
15196674 1 18411418419067221590
15250474 111 18190743021428005474
15352361 1 18411983598024325458
15880784 105 16558454366562070492
15927050 60 17334498198972875677
17627616 140 17970624086901365634
19958102 18 18116703019944761028
20403669 9 18342464759034029894
20775438 99 16977259625799475215
21279426 13 18338231557504068477
21403212 168 18200325308435078481
221357 26 18337387257471320819
221490 88 18266179624449619560
23559900 14 18412536605350457496
23572383 38 18341604924088040414
3004659 81 18260546693684578964
3178227 256 18265349339480761049
335352 9 18410574011818106053
3421961 26 18126004003605210696
4280585 95 18334287657262926216
44062 13 18408603664836583159
463206 1 18051977209938334615
474144 1 17460859714518307314
4921388 177 16805613606691531251
5104073 3 18201718427773452768
5283173 99 18334571313613622364
5365585 94 18335710471963260026
56633871 153 17977114775451203019
6433294 58 18122347053848418890
6669772 16 17407129120059334884
6823239 73 18340479080000040032
9709674 26 18265892634692390905

> <PUBCHEM_SHAPE_MULTIPOLES>
451.39
11.39
4.2
0.82
11.7
0.05
-0.01
-6.63
-2.53
-2.52
0.74
-0.31
0.05
1.62

> <PUBCHEM_SHAPE_SELFOVERLAP>
991.755

> <PUBCHEM_SHAPE_VOLUME>
246.3

> <PUBCHEM_COORDINATE_TYPE>
2
5
10

$$$$
