49830959
  -OEChem-10052115183D

 33 35  0     0  0  0  0  0  0999 V2000
   -2.3334   -2.8362    1.3625 O   0  0  0  0  0  0  0  0  0  0  0  0
   -3.5661   -0.0437   -0.0471 N   0  0  0  0  0  0  0  0  0  0  0  0
    5.0029   -1.6292   -0.8060 N   0  0  0  0  0  0  0  0  0  0  0  0
   -2.2409   -3.0864   -0.9150 N   0  0  0  0  0  0  0  0  0  0  0  0
    0.5876    0.2882    0.0584 C   0  0  0  0  0  0  0  0  0  0  0  0
   -1.5930    1.3376   -0.1287 C   0  0  0  0  0  0  0  0  0  0  0  0
   -2.2258    0.0820   -0.0151 C   0  0  0  0  0  0  0  0  0  0  0  0
   -1.4224   -1.0452    0.1337 C   0  0  0  0  0  0  0  0  0  0  0  0
    2.0299    0.3898    0.0969 C   0  0  0  0  0  0  0  0  0  0  0  0
   -0.1914    1.4319   -0.0912 C   0  0  0  0  0  0  0  0  0  0  0  0
   -0.0291   -0.9517    0.1711 C   0  0  0  0  0  0  0  0  0  0  0  0
   -2.4013    2.4726   -0.2785 C   0  0  0  0  0  0  0  0  0  0  0  0
    2.8163   -0.6631   -0.3708 C   0  0  0  0  0  0  0  0  0  0  0  0
    2.6344    1.5410    0.6021 C   0  0  0  0  0  0  0  0  0  0  0  0
    4.2073   -0.5648   -0.3337 C   0  0  0  0  0  0  0  0  0  0  0  0
   -2.0195   -2.3712    0.2555 C   0  0  0  0  0  0  0  0  0  0  0  0
   -3.7825    2.3463   -0.3119 C   0  0  0  0  0  0  0  0  0  0  0  0
    4.0254    1.6392    0.6395 C   0  0  0  0  0  0  0  0  0  0  0  0
    4.8119    0.5865    0.1714 C   0  0  0  0  0  0  0  0  0  0  0  0
   -4.3101    1.0766   -0.1930 C   0  0  0  0  0  0  0  0  0  0  0  0
    0.2583    2.4151   -0.2137 H   0  0  0  0  0  0  0  0  0  0  0  0
    0.5409   -1.8657    0.3214 H   0  0  0  0  0  0  0  0  0  0  0  0
   -1.9592    3.4621   -0.3699 H   0  0  0  0  0  0  0  0  0  0  0  0
    2.3779   -1.5612   -0.7995 H   0  0  0  0  0  0  0  0  0  0  0  0
    2.0644    2.3730    1.0064 H   0  0  0  0  0  0  0  0  0  0  0  0
   -4.4224    3.2132   -0.4270 H   0  0  0  0  0  0  0  0  0  0  0  0
    4.4967    2.5323    1.0395 H   0  0  0  0  0  0  0  0  0  0  0  0
    5.8947    0.6746    0.2073 H   0  0  0  0  0  0  0  0  0  0  0  0
   -5.3831    0.9163   -0.2123 H   0  0  0  0  0  0  0  0  0  0  0  0
    6.0113   -1.5574   -0.7800 H   0  0  0  0  0  0  0  0  0  0  0  0
    4.5662   -2.4643   -1.1729 H   0  0  0  0  0  0  0  0  0  0  0  0
   -1.9961   -2.7160   -1.8279 H   0  0  0  0  0  0  0  0  0  0  0  0
   -2.6589   -4.0106   -0.8909 H   0  0  0  0  0  0  0  0  0  0  0  0
  1 16  2  0  0  0  0
  2  7  1  0  0  0  0
  2 20  2  0  0  0  0
  3 15  1  0  0  0  0
  3 30  1  0  0  0  0
  3 31  1  0  0  0  0
  4 16  1  0  0  0  0
  4 32  1  0  0  0  0
  4 33  1  0  0  0  0
  5  9  1  0  0  0  0
  5 10  1  0  0  0  0
  5 11  2  0  0  0  0
  6  7  1  0  0  0  0
  6 10  2  0  0  0  0
  6 12  1  0  0  0  0
  7  8  2  0  0  0  0
  8 11  1  0  0  0  0
  8 16  1  0  0  0  0
  9 13  2  0  0  0  0
  9 14  1  0  0  0  0
 10 21  1  0  0  0  0
 11 22  1  0  0  0  0
 12 17  2  0  0  0  0
 12 23  1  0  0  0  0
 13 15  1  0  0  0  0
 13 24  1  0  0  0  0
 14 18  2  0  0  0  0
 14 25  1  0  0  0  0
 15 19  2  0  0  0  0
 17 20  1  0  0  0  0
 17 26  1  0  0  0  0
 18 19  1  0  0  0  0
 18 27  1  0  0  0  0
 19 28  1  0  0  0  0
 20 29  1  0  0  0  0
M  END
> <PUBCHEM_COMPOUND_CID>
49830959

> <PUBCHEM_CONFORMER_RMSD>
0.6

> <PUBCHEM_CONFORMER_DIVERSEORDER>
1
4
6
7
2
3
8
5

> <PUBCHEM_MMFF94_PARTIAL_CHARGES>
30
1 -0.57
10 -0.15
11 -0.15
12 -0.15
13 -0.15
14 -0.15
15 0.1
16 0.54
17 -0.15
18 -0.15
19 -0.15
2 -0.62
20 0.16
21 0.15
22 0.15
23 0.15
24 0.15
25 0.15
26 0.15
27 0.15
28 0.15
29 0.15
3 -0.9
30 0.4
31 0.4
32 0.37
33 0.37
4 -0.8
7 0.31
8 0.09

> <PUBCHEM_EFFECTIVE_ROTOR_COUNT>
2

> <PUBCHEM_PHARMACOPHORE_FEATURES>
8
1 1 acceptor
1 2 acceptor
1 3 cation
1 3 donor
1 4 donor
6 2 6 7 12 17 20 rings
6 5 6 7 8 10 11 rings
6 9 13 14 15 18 19 rings

> <PUBCHEM_HEAVY_ATOM_COUNT>
20

> <PUBCHEM_ATOM_DEF_STEREO_COUNT>
0

> <PUBCHEM_ATOM_UDEF_STEREO_COUNT>
0

> <PUBCHEM_BOND_DEF_STEREO_COUNT>
0

> <PUBCHEM_BOND_UDEF_STEREO_COUNT>
0

> <PUBCHEM_ISOTOPIC_ATOM_COUNT>
0

> <PUBCHEM_COMPONENT_COUNT>
1

> <PUBCHEM_CACTVS_TAUTO_COUNT>
2

> <PUBCHEM_CONFORMER_ID>
02F85C2F00000001

> <PUBCHEM_MMFF94_ENERGY>
83.7282

> <PUBCHEM_FEATURE_SELFOVERLAP>
40.626

> <PUBCHEM_SHAPE_FINGERPRINT>
10319926 262 18267000891680918464
10411042 1 17904482157879360403
10608611 8 18341326777647992544
10616163 171 18410856602911657726
11405975 8 18410008836860511936
11552529 35 17559116690360043363
12173636 292 18336540500316048733
12236239 1 17167863058829102696
12390115 104 18198919028109263345
12403259 415 18335980853108270141
12500047 106 18410007711099240044
12969540 114 18116131317370288453
13140716 1 18120380010656862465
13544592 145 18340773628899137428
13583140 156 17845929757885570504
138480 1 17257931499043329199
14115302 16 18335149656961739964
14178342 30 18187353372649004658
14790565 3 18267873774442744113
15042514 8 18335146444616294251
15099037 51 18341613646971264532
15196674 1 18411980247775969124
15375358 24 18272368659522370420
17492 89 18264210377982024930
17804303 29 18410859841221903964
18186145 218 18338509725472583580
19141452 34 18128825320762694211
19591789 44 18192147083994396307
200 152 17203603761841534180
20510252 161 18342174432404217281
20602899 9 16415471658362180591
20645477 56 18409166610305256424
20645477 70 17561368344835411382
20681677 76 18129092493387221264
21033648 29 18264475222334201737
21065198 57 18412543219647254136
21065201 7 18335135406370722738
21267235 1 18410301289103737269
21279426 13 18052539863860058220
21478907 32 18195805400284446287
21521239 73 17988061323968793325
21524375 3 18263363582055281005
21859007 373 17608626363841568796
221490 88 18340493369698812698
22224240 67 18338807724216981289
22943178 12 18343017830957990880
23227448 37 18410852196000944724
23402539 116 18341323440579502301
23419403 2 17057794385624673379
23557571 272 18340211902752984436
23558518 356 17897167046736769656
23559900 14 18342736300431554872
3004659 81 18117849803111770182
335352 9 18339642209927651582
3545911 37 18341895203885150272
3759504 43 17822010887540538027
4214541 1 18411418406187782800
495365 180 17560784534146815800
5104073 3 18411696621590187432
532947 4 17982736263990259023
54173680 148 18263647427933177387
559249 180 18263640659223390202
59124914 9 17982172214804927697
633830 44 18127964209768573133
69090 78 18412821369876055653
7364860 26 17690838961383955519
7399639 24 17553750051788573544
81228 2 18189889997503367633
8809292 202 18410858763132105322
9709674 26 18341894116915071916

> <PUBCHEM_SHAPE_MULTIPOLES>
390.78
9.29
2.99
0.8
7.68
1.54
-0.07
-1.63
0.79
-2.88
-0.07
0.05
0.28
1.15

> <PUBCHEM_SHAPE_SELFOVERLAP>
875.318

> <PUBCHEM_SHAPE_VOLUME>
207.1

> <PUBCHEM_COORDINATE_TYPE>
2
5
10

$$$$
