49830978
  -OEChem-10062121533D

 43 46  0     0  0  0  0  0  0999 V2000
    6.9627   -1.3026    0.5938 F   0  0  0  0  0  0  0  0  0  0  0  0
    4.8956   -1.6327    1.2215 F   0  0  0  0  0  0  0  0  0  0  0  0
    5.5965   -2.3609   -0.7439 F   0  0  0  0  0  0  0  0  0  0  0  0
    5.3404   -0.1102   -0.4265 O   0  0  0  0  0  0  0  0  0  0  0  0
   -4.7267   -3.7278    0.1651 N   0  0  0  0  0  0  0  0  0  0  0  0
   -3.9567    2.6469    0.1690 N   0  0  0  0  0  0  0  0  0  0  0  0
   -3.8697   -1.0013    0.1038 C   0  0  0  0  0  0  0  0  0  0  0  0
   -3.6008    0.4566    0.1120 C   0  0  0  0  0  0  0  0  0  0  0  0
   -4.7274   -1.5670   -1.0064 C   0  0  0  0  0  0  0  0  0  0  0  0
   -2.3403    1.1139    0.0491 C   0  0  0  0  0  0  0  0  0  0  0  0
   -4.5935   -3.0888   -1.1417 C   0  0  0  0  0  0  0  0  0  0  0  0
   -2.5917    2.4870    0.0863 C   0  0  0  0  0  0  0  0  0  0  0  0
   -3.3804   -1.8214    1.0532 C   0  0  0  0  0  0  0  0  0  0  0  0
   -3.6563   -3.2991    1.0693 C   0  0  0  0  0  0  0  0  0  0  0  0
   -4.5750    1.4255    0.1848 C   0  0  0  0  0  0  0  0  0  0  0  0
   -1.0054    0.6709   -0.0364 C   0  0  0  0  0  0  0  0  0  0  0  0
    0.0260    1.6160   -0.0812 C   0  0  0  0  0  0  0  0  0  0  0  0
   -1.5709    3.4433    0.0424 C   0  0  0  0  0  0  0  0  0  0  0  0
   -0.2547    2.9803   -0.0423 C   0  0  0  0  0  0  0  0  0  0  0  0
    1.4001    1.1690   -0.1689 C   0  0  0  0  0  0  0  0  0  0  0  0
    2.4211    1.9382    0.3892 C   0  0  0  0  0  0  0  0  0  0  0  0
    1.7031   -0.0306   -0.8131 C   0  0  0  0  0  0  0  0  0  0  0  0
    3.7452    1.5082    0.3029 C   0  0  0  0  0  0  0  0  0  0  0  0
    3.0272   -0.4608   -0.8995 C   0  0  0  0  0  0  0  0  0  0  0  0
    4.0482    0.3086   -0.3416 C   0  0  0  0  0  0  0  0  0  0  0  0
    5.6833   -1.3612    0.1592 C   0  0  0  0  0  0  0  0  0  0  0  0
   -5.7755   -1.3051   -0.8122 H   0  0  0  0  0  0  0  0  0  0  0  0
   -4.4495   -1.1097   -1.9640 H   0  0  0  0  0  0  0  0  0  0  0  0
   -5.3789   -3.4603   -1.8091 H   0  0  0  0  0  0  0  0  0  0  0  0
   -3.6320   -3.3533   -1.5999 H   0  0  0  0  0  0  0  0  0  0  0  0
   -2.7530   -1.4312    1.8504 H   0  0  0  0  0  0  0  0  0  0  0  0
   -3.9361   -3.5926    2.0869 H   0  0  0  0  0  0  0  0  0  0  0  0
   -2.7284   -3.8300    0.8244 H   0  0  0  0  0  0  0  0  0  0  0  0
   -5.6527    1.3603    0.2472 H   0  0  0  0  0  0  0  0  0  0  0  0
   -4.6927   -4.7411    0.0586 H   0  0  0  0  0  0  0  0  0  0  0  0
   -0.8160   -0.3979   -0.0358 H   0  0  0  0  0  0  0  0  0  0  0  0
   -4.4325    3.5375    0.2116 H   0  0  0  0  0  0  0  0  0  0  0  0
   -1.7895    4.5056    0.0651 H   0  0  0  0  0  0  0  0  0  0  0  0
    0.5247    3.7357   -0.1088 H   0  0  0  0  0  0  0  0  0  0  0  0
    2.2313    2.8623    0.9282 H   0  0  0  0  0  0  0  0  0  0  0  0
    0.9467   -0.6462   -1.2921 H   0  0  0  0  0  0  0  0  0  0  0  0
    4.5361    2.1077    0.7454 H   0  0  0  0  0  0  0  0  0  0  0  0
    3.2513   -1.3899   -1.4163 H   0  0  0  0  0  0  0  0  0  0  0  0
  1 26  1  0  0  0  0
  2 26  1  0  0  0  0
  3 26  1  0  0  0  0
  4 25  1  0  0  0  0
  4 26  1  0  0  0  0
  5 11  1  0  0  0  0
  5 14  1  0  0  0  0
  5 35  1  0  0  0  0
  6 12  1  0  0  0  0
  6 15  1  0  0  0  0
  6 37  1  0  0  0  0
  7  8  1  0  0  0  0
  7  9  1  0  0  0  0
  7 13  2  0  0  0  0
  8 10  1  0  0  0  0
  8 15  2  0  0  0  0
  9 11  1  0  0  0  0
  9 27  1  0  0  0  0
  9 28  1  0  0  0  0
 10 12  2  0  0  0  0
 10 16  1  0  0  0  0
 11 29  1  0  0  0  0
 11 30  1  0  0  0  0
 12 18  1  0  0  0  0
 13 14  1  0  0  0  0
 13 31  1  0  0  0  0
 14 32  1  0  0  0  0
 14 33  1  0  0  0  0
 15 34  1  0  0  0  0
 16 17  2  0  0  0  0
 16 36  1  0  0  0  0
 17 19  1  0  0  0  0
 17 20  1  0  0  0  0
 18 19  2  0  0  0  0
 18 38  1  0  0  0  0
 19 39  1  0  0  0  0
 20 21  2  0  0  0  0
 20 22  1  0  0  0  0
 21 23  1  0  0  0  0
 21 40  1  0  0  0  0
 22 24  2  0  0  0  0
 22 41  1  0  0  0  0
 23 25  2  0  0  0  0
 23 42  1  0  0  0  0
 24 25  1  0  0  0  0
 24 43  1  0  0  0  0
M  END
> <PUBCHEM_COMPOUND_CID>
49830978

> <PUBCHEM_CONFORMER_RMSD>
0.8

> <PUBCHEM_CONFORMER_DIVERSEORDER>
1
3
4
6
2
5

> <PUBCHEM_MMFF94_PARTIAL_CHARGES>
34
1 -0.34
11 0.27
12 -0.15
13 -0.29
14 0.41
15 -0.3
16 -0.15
18 -0.15
19 -0.15
2 -0.34
21 -0.15
22 -0.15
23 -0.15
24 -0.15
25 0.08
26 1.3
3 -0.34
31 0.15
34 0.15
35 0.36
36 0.15
37 0.27
38 0.15
39 0.15
4 -0.36
40 0.15
41 0.15
42 0.15
43 0.15
5 -0.9
6 0.03
7 -0.09
8 -0.05
9 0.14

> <PUBCHEM_EFFECTIVE_ROTOR_COUNT>
4.8

> <PUBCHEM_PHARMACOPHORE_FEATURES>
9
1 4 acceptor
1 5 cation
1 5 donor
1 6 cation
1 6 donor
5 6 8 10 12 15 rings
6 10 12 16 17 18 19 rings
6 20 21 22 23 24 25 rings
6 5 7 9 11 13 14 rings

> <PUBCHEM_HEAVY_ATOM_COUNT>
26

> <PUBCHEM_ATOM_DEF_STEREO_COUNT>
0

> <PUBCHEM_ATOM_UDEF_STEREO_COUNT>
0

> <PUBCHEM_BOND_DEF_STEREO_COUNT>
0

> <PUBCHEM_BOND_UDEF_STEREO_COUNT>
0

> <PUBCHEM_ISOTOPIC_ATOM_COUNT>
0

> <PUBCHEM_COMPONENT_COUNT>
1

> <PUBCHEM_CACTVS_TAUTO_COUNT>
1

> <PUBCHEM_CONFORMER_ID>
02F85C4200000001

> <PUBCHEM_MMFF94_ENERGY>
69.8317

> <PUBCHEM_FEATURE_SELFOVERLAP>
45.763

> <PUBCHEM_SHAPE_FINGERPRINT>
10483366 6 18339627994372119495
10693767 8 17767671026116754071
11186622 123 18260824891253577434
11374522 58 16306869824455433443
11796584 16 18337953368820871672
11963148 33 17978783833806410086
12363563 72 18193285319701388797
12403259 226 18341327876854042016
12422481 6 17346328110520803238
12760667 363 18411136965797670307
12990986 174 18410577301109017695
13544653 18 18268433614986802061
13911852 28 17978513362915895219
14168556 18 18268425906164201072
14251751 18 18342455941761375410
14429380 30 18337392758960540527
14461889 52 18341885313081357192
14844126 61 18411983559712738755
14866123 147 18411425016854413403
15042514 8 18410859854407603061
15250474 111 18260260811871482618
15348495 7 18202275892979842224
15352361 1 18267305516109048607
15728490 83 18261120690083786219
17138139 8 18040713676032829866
17492 89 18266178516416518377
17627616 140 17969776380932626683
17857418 61 18334009459092762546
18927931 339 18411145709902406613
19141452 34 18342465837740961369
19315092 285 16698365185836021955
20028762 73 18343861134955244486
20691028 202 8213604197886298071
21133410 171 17544981292023711251
21133410 58 17692521626809234695
21703447 108 18267009734327698384
22122407 14 15697997418599148097
23428019 142 17603868922640215643
23559900 14 18410849967013560464
23569914 152 12976930372049365530
25122255 55 18200884959278700590
316301 35 18411134783764061906
3383291 50 18411986841458260043
397830 11 18058996368575198578
4073 2 18410294714068307896
4403749 210 18201422689294494068
44062 13 18410858741704832497
4616759 239 17916574325015699280
5104073 3 18201721773168120728
5365585 94 18116439326565321675
559249 180 18409165477124681453
563151 74 15697176049633396999
5924683 9 18413670218949446101
59755656 520 18262792953165201821
6431902 208 18409729603303497654
7970288 3 18051412070036979983
8863177 126 18342176696025535688
9709674 26 18338238279481749513

> <PUBCHEM_SHAPE_MULTIPOLES>
497.42
14.28
4.4
0.93
16.68
0.8
0.01
13.28
-0.33
-5.06
-0.35
-0.23
0.58
-0.23

> <PUBCHEM_SHAPE_SELFOVERLAP>
1103.145

> <PUBCHEM_SHAPE_VOLUME>
267.5

> <PUBCHEM_COORDINATE_TYPE>
2
5
10

$$$$
