49830754
  -OEChem-10062121543D

 43 45  0     0  0  0  0  0  0999 V2000
   -0.2239    3.8753   -0.0849 O   0  0  0  0  0  0  0  0  0  0  0  0
   -0.7618    1.1173   -0.0292 N   0  0  0  0  0  0  0  0  0  0  0  0
    2.9775   -1.7129    0.0603 N   0  0  0  0  0  0  0  0  0  0  0  0
    1.9347    4.6484   -0.1142 N   0  0  0  0  0  0  0  0  0  0  0  0
    6.0342   -3.7923    0.0802 N   0  0  0  0  0  0  0  0  0  0  0  0
    1.0658   -0.1615    0.0126 C   0  0  0  0  0  0  0  0  0  0  0  0
    0.6142    1.1594   -0.0250 C   0  0  0  0  0  0  0  0  0  0  0  0
   -1.1947   -0.1812    0.0046 C   0  0  0  0  0  0  0  0  0  0  0  0
    2.4538   -0.4037    0.0244 C   0  0  0  0  0  0  0  0  0  0  0  0
   -0.0865   -0.9963    0.0310 C   0  0  0  0  0  0  0  0  0  0  0  0
    1.4849    2.2547   -0.0512 C   0  0  0  0  0  0  0  0  0  0  0  0
   -2.5971   -0.5203    0.0072 C   0  0  0  0  0  0  0  0  0  0  0  0
    3.3366    0.6821   -0.0019 C   0  0  0  0  0  0  0  0  0  0  0  0
    2.8573    1.9901   -0.0390 C   0  0  0  0  0  0  0  0  0  0  0  0
    4.3809   -1.9879    0.0715 C   0  0  0  0  0  0  0  0  0  0  0  0
   -3.0263   -1.7165   -0.5676 C   0  0  0  0  0  0  0  0  0  0  0  0
   -3.5237    0.3478    0.5848 C   0  0  0  0  0  0  0  0  0  0  0  0
    0.9946    3.6208   -0.0899 C   0  0  0  0  0  0  0  0  0  0  0  0
    4.6074   -3.4940    0.0770 C   0  0  0  0  0  0  0  0  0  0  0  0
   -5.3085   -1.1766    0.0124 C   0  0  0  0  0  0  0  0  0  0  0  0
   -4.3820   -2.0447   -0.5651 C   0  0  0  0  0  0  0  0  0  0  0  0
   -4.8794    0.0197    0.5874 C   0  0  0  0  0  0  0  0  0  0  0  0
   -6.7581   -1.5275    0.0148 C   0  0  0  0  0  0  0  0  0  0  0  0
   -0.0929   -2.0780    0.0650 H   0  0  0  0  0  0  0  0  0  0  0  0
   -1.3556    1.9344   -0.0675 H   0  0  0  0  0  0  0  0  0  0  0  0
    4.4150    0.5512    0.0070 H   0  0  0  0  0  0  0  0  0  0  0  0
    3.6119    2.7687   -0.0566 H   0  0  0  0  0  0  0  0  0  0  0  0
    2.3136   -2.4788    0.0802 H   0  0  0  0  0  0  0  0  0  0  0  0
    4.8497   -1.5507    0.9621 H   0  0  0  0  0  0  0  0  0  0  0  0
    4.8608   -1.5602   -0.8180 H   0  0  0  0  0  0  0  0  0  0  0  0
   -2.3271   -2.4081   -1.0311 H   0  0  0  0  0  0  0  0  0  0  0  0
   -3.2217    1.2809    1.0535 H   0  0  0  0  0  0  0  0  0  0  0  0
    4.1413   -3.9537   -0.8023 H   0  0  0  0  0  0  0  0  0  0  0  0
    4.1445   -3.9440    0.9626 H   0  0  0  0  0  0  0  0  0  0  0  0
   -4.7042   -2.9796   -1.0161 H   0  0  0  0  0  0  0  0  0  0  0  0
   -5.5914    0.7018    1.0446 H   0  0  0  0  0  0  0  0  0  0  0  0
   -7.0202   -2.1299   -0.8616 H   0  0  0  0  0  0  0  0  0  0  0  0
   -7.0057   -2.0949    0.9174 H   0  0  0  0  0  0  0  0  0  0  0  0
   -7.3825   -0.6281   -0.0167 H   0  0  0  0  0  0  0  0  0  0  0  0
    1.6172    5.6125   -0.1346 H   0  0  0  0  0  0  0  0  0  0  0  0
    2.9397    4.5313   -0.1158 H   0  0  0  0  0  0  0  0  0  0  0  0
    6.1686   -4.8015    0.0340 H   0  0  0  0  0  0  0  0  0  0  0  0
    6.4678   -3.4079   -0.7583 H   0  0  0  0  0  0  0  0  0  0  0  0
  1 18  2  0  0  0  0
  2  7  1  0  0  0  0
  2  8  1  0  0  0  0
  2 25  1  0  0  0  0
  3  9  1  0  0  0  0
  3 15  1  0  0  0  0
  3 28  1  0  0  0  0
  4 18  1  0  0  0  0
  4 40  1  0  0  0  0
  4 41  1  0  0  0  0
  5 19  1  0  0  0  0
  5 42  1  0  0  0  0
  5 43  1  0  0  0  0
  6  7  1  0  0  0  0
  6  9  2  0  0  0  0
  6 10  1  0  0  0  0
  7 11  2  0  0  0  0
  8 10  2  0  0  0  0
  8 12  1  0  0  0  0
  9 13  1  0  0  0  0
 10 24  1  0  0  0  0
 11 14  1  0  0  0  0
 11 18  1  0  0  0  0
 12 16  2  0  0  0  0
 12 17  1  0  0  0  0
 13 14  2  0  0  0  0
 13 26  1  0  0  0  0
 14 27  1  0  0  0  0
 15 19  1  0  0  0  0
 15 29  1  0  0  0  0
 15 30  1  0  0  0  0
 16 21  1  0  0  0  0
 16 31  1  0  0  0  0
 17 22  2  0  0  0  0
 17 32  1  0  0  0  0
 19 33  1  0  0  0  0
 19 34  1  0  0  0  0
 20 21  2  0  0  0  0
 20 22  1  0  0  0  0
 20 23  1  0  0  0  0
 21 35  1  0  0  0  0
 22 36  1  0  0  0  0
 23 37  1  0  0  0  0
 23 38  1  0  0  0  0
 23 39  1  0  0  0  0
M  END
> <PUBCHEM_COMPOUND_CID>
49830754

> <PUBCHEM_CONFORMER_RMSD>
0.8

> <PUBCHEM_CONFORMER_DIVERSEORDER>
1
7
13
12
6
8
2
9
5
11
4
10
3

> <PUBCHEM_MMFF94_PARTIAL_CHARGES>
35
1 -0.57
10 -0.15
11 0.09
12 0.05
13 -0.15
14 -0.15
15 0.37
16 -0.15
17 -0.15
18 0.54
19 0.27
2 0.03
20 -0.14
21 -0.15
22 -0.15
23 0.14
24 0.15
25 0.27
26 0.15
27 0.15
28 0.4
3 -0.87
31 0.15
32 0.15
35 0.15
36 0.15
4 -0.8
40 0.37
41 0.37
42 0.36
43 0.36
5 -0.99
7 -0.15
8 -0.2
9 0.1

> <PUBCHEM_EFFECTIVE_ROTOR_COUNT>
5

> <PUBCHEM_PHARMACOPHORE_FEATURES>
11
1 1 acceptor
1 2 cation
1 2 donor
1 3 cation
1 3 donor
1 4 donor
1 5 cation
1 5 donor
5 2 6 7 8 10 rings
6 12 16 17 20 21 22 rings
6 6 7 9 11 13 14 rings

> <PUBCHEM_HEAVY_ATOM_COUNT>
23

> <PUBCHEM_ATOM_DEF_STEREO_COUNT>
0

> <PUBCHEM_ATOM_UDEF_STEREO_COUNT>
0

> <PUBCHEM_BOND_DEF_STEREO_COUNT>
0

> <PUBCHEM_BOND_UDEF_STEREO_COUNT>
0

> <PUBCHEM_ISOTOPIC_ATOM_COUNT>
0

> <PUBCHEM_COMPONENT_COUNT>
1

> <PUBCHEM_CACTVS_TAUTO_COUNT>
15

> <PUBCHEM_CONFORMER_ID>
02F85B6200000001

> <PUBCHEM_MMFF94_ENERGY>
58.9601

> <PUBCHEM_FEATURE_SELFOVERLAP>
55.914

> <PUBCHEM_SHAPE_FINGERPRINT>
10050765 1 18266459807411469640
10411042 1 18338234860735209098
10595046 47 18126566958718541455
10622 236 17843942953323275711
10693767 8 18201733894119309022
11265709 11 18338237051231794650
12107183 9 18198070188199969761
12236239 1 17988368195292852663
12293681 160 17339582791447872472
12403259 226 18335416864020358293
12516196 113 18409729535000771810
12553582 1 18263913354838834434
12730499 353 18047199827983859097
12788726 201 18120394068195689374
13009979 54 18059867125042629873
13140716 1 18197497325103768016
13533116 47 18337673126531813283
13540713 4 18193818389668156240
13785724 45 18270127811638393942
138480 1 18410574007053834868
13911852 28 18338515235862902750
13955234 65 18196373838667501873
14739800 52 17345186894950669241
14790565 3 17904769130388206524
14866123 147 17835238948139939609
15042514 8 18051132497592923256
15250474 111 17985537004085879087
15442244 35 18412830187713095625
16087824 20 17833269723564757157
16992752 21 18267314140947393494
17492 89 18339080518548172219
1813 80 18271255927890578374
18335252 114 18337378380622980221
19427546 20 17974858264120735998
20645477 70 18334571382269762963
20832881 197 18334016055967590899
21033648 29 17169530004672603813
21049683 271 18335428993350698860
21065198 57 18337955718221067891
21267235 1 18411424981651311923
21344244 78 18271513273624924089
21478907 32 18265895757355206642
22033318 11 17983331221004822049
221490 88 18191874628707821059
2255824 54 18267586994969471316
22950370 63 18410579444361339710
23559900 14 18410288155611055339
3004659 81 18040999497442986462
3091708 16 9284132694837568728
3103668 31 17972879151375369173
3421961 26 18412260649306092626
4409770 3 17830170199678914677
46194498 28 17530964734554824574
463206 1 18334297548019481218
465052 167 18341899584113878735
474 4 17976820114507810857
5104073 3 18202291325013744803
6058803 2 18129667546985386607
6443956 14 18408886222012865366
67856867 119 18126842927035599265
70251023 43 18335140835083226258
77188 2 18410573955656905580
7970288 3 18337951173682354578
8272917 22 18267588103071163733
9709674 26 18264210386492870811
9971528 1 18411695504265531090
9981440 41 17473820005761239569

> <PUBCHEM_SHAPE_MULTIPOLES>
447.54
12.3
4.9
0.66
11.13
3.19
0
-14.21
-0.51
-8.71
0.25
0.26
-0.05
-0.68

> <PUBCHEM_SHAPE_SELFOVERLAP>
977.52

> <PUBCHEM_SHAPE_VOLUME>
245.4

> <PUBCHEM_COORDINATE_TYPE>
2
5
10

$$$$
