49830462
  -OEChem-10052120443D

 51 54  0     0  0  0  0  0  0999 V2000
   -0.5423    1.4098    1.0267 O   0  0  0  0  0  0  0  0  0  0  0  0
    2.1093    2.8296    0.7567 O   0  0  0  0  0  0  0  0  0  0  0  0
   -1.9630   -0.5075   -1.1357 N   0  0  0  0  0  0  0  0  0  0  0  0
   -0.0141    2.2353   -1.0953 N   0  0  0  0  0  0  0  0  0  0  0  0
   -1.9299   -1.7848   -1.5487 N   0  0  0  0  0  0  0  0  0  0  0  0
   -0.6832   -2.2170   -1.3941 N   0  0  0  0  0  0  0  0  0  0  0  0
    5.3887   -1.4720    0.5692 N   0  0  0  0  0  0  0  0  0  0  0  0
    5.3818   -1.2111    1.8872 N   0  0  0  0  0  0  0  0  0  0  0  0
   -0.7422   -0.0874   -0.7056 C   0  0  0  0  0  0  0  0  0  0  0  0
    0.0569   -1.1894   -0.8788 C   0  0  0  0  0  0  0  0  0  0  0  0
   -3.1953    0.2393   -1.1850 C   0  0  0  0  0  0  0  0  0  0  0  0
    1.4585   -1.2778   -0.5742 C   0  0  0  0  0  0  0  0  0  0  0  0
   -0.4369    1.2140   -0.2039 C   0  0  0  0  0  0  0  0  0  0  0  0
    0.3308    3.5884   -0.6644 C   0  0  0  0  0  0  0  0  0  0  0  0
    1.8913   -1.0643    0.7406 C   0  0  0  0  0  0  0  0  0  0  0  0
    3.2655   -1.1564    1.0179 C   0  0  0  0  0  0  0  0  0  0  0  0
   -4.1423   -0.0949   -0.0593 C   0  0  0  0  0  0  0  0  0  0  0  0
    4.1499   -1.4545   -0.0128 C   0  0  0  0  0  0  0  0  0  0  0  0
    2.3683   -1.5758   -1.5903 C   0  0  0  0  0  0  0  0  0  0  0  0
    3.7393   -1.6708   -1.3299 C   0  0  0  0  0  0  0  0  0  0  0  0
    1.8045    3.7056   -0.3208 C   0  0  0  0  0  0  0  0  0  0  0  0
    0.1002    1.9805   -2.5245 C   0  0  0  0  0  0  0  0  0  0  0  0
    4.0885   -1.0197    2.1564 C   0  0  0  0  0  0  0  0  0  0  0  0
   -4.9010   -1.2643   -0.1098 C   0  0  0  0  0  0  0  0  0  0  0  0
   -4.2592    0.7658    1.0320 C   0  0  0  0  0  0  0  0  0  0  0  0
   -5.7767   -1.5730    0.9312 C   0  0  0  0  0  0  0  0  0  0  0  0
   -5.1348    0.4571    2.0729 C   0  0  0  0  0  0  0  0  0  0  0  0
   -5.8936   -0.7123    2.0225 C   0  0  0  0  0  0  0  0  0  0  0  0
    3.4809    2.9074    1.1198 C   0  0  0  0  0  0  0  0  0  0  0  0
   -3.6716    0.0305   -2.1514 H   0  0  0  0  0  0  0  0  0  0  0  0
   -2.9592    1.3094   -1.1915 H   0  0  0  0  0  0  0  0  0  0  0  0
   -0.2636    3.8110    0.2291 H   0  0  0  0  0  0  0  0  0  0  0  0
    0.0484    4.3014   -1.4461 H   0  0  0  0  0  0  0  0  0  0  0  0
    1.1914   -0.8410    1.5410 H   0  0  0  0  0  0  0  0  0  0  0  0
    2.0230   -1.7382   -2.6099 H   0  0  0  0  0  0  0  0  0  0  0  0
    4.4475   -1.9015   -2.1179 H   0  0  0  0  0  0  0  0  0  0  0  0
    2.0271    4.7374   -0.0255 H   0  0  0  0  0  0  0  0  0  0  0  0
    2.4237    3.4474   -1.1875 H   0  0  0  0  0  0  0  0  0  0  0  0
   -0.1434    0.9598   -2.8180 H   0  0  0  0  0  0  0  0  0  0  0  0
    1.1275    2.1895   -2.8377 H   0  0  0  0  0  0  0  0  0  0  0  0
   -0.5794    2.6573   -3.0518 H   0  0  0  0  0  0  0  0  0  0  0  0
    3.7974   -0.7874    3.1711 H   0  0  0  0  0  0  0  0  0  0  0  0
   -4.8246   -1.9415   -0.9562 H   0  0  0  0  0  0  0  0  0  0  0  0
   -3.6730    1.6794    1.0844 H   0  0  0  0  0  0  0  0  0  0  0  0
    6.2788   -1.6552    0.1230 H   0  0  0  0  0  0  0  0  0  0  0  0
   -6.3684   -2.4829    0.8915 H   0  0  0  0  0  0  0  0  0  0  0  0
   -5.2257    1.1271    2.9230 H   0  0  0  0  0  0  0  0  0  0  0  0
   -6.5755   -0.9525    2.8330 H   0  0  0  0  0  0  0  0  0  0  0  0
    4.1152    2.5881    0.2872 H   0  0  0  0  0  0  0  0  0  0  0  0
    3.7417    3.9253    1.4254 H   0  0  0  0  0  0  0  0  0  0  0  0
    3.6513    2.2360    1.9653 H   0  0  0  0  0  0  0  0  0  0  0  0
  1 13  2  0  0  0  0
  2 21  1  0  0  0  0
  2 29  1  0  0  0  0
  3  5  1  0  0  0  0
  3  9  1  0  0  0  0
  3 11  1  0  0  0  0
  4 13  1  0  0  0  0
  4 14  1  0  0  0  0
  4 22  1  0  0  0  0
  5  6  2  0  0  0  0
  6 10  1  0  0  0  0
  7  8  1  0  0  0  0
  7 18  1  0  0  0  0
  7 45  1  0  0  0  0
  8 23  2  0  0  0  0
  9 10  2  0  0  0  0
  9 13  1  0  0  0  0
 10 12  1  0  0  0  0
 11 17  1  0  0  0  0
 11 30  1  0  0  0  0
 11 31  1  0  0  0  0
 12 15  2  0  0  0  0
 12 19  1  0  0  0  0
 14 21  1  0  0  0  0
 14 32  1  0  0  0  0
 14 33  1  0  0  0  0
 15 16  1  0  0  0  0
 15 34  1  0  0  0  0
 16 18  2  0  0  0  0
 16 23  1  0  0  0  0
 17 24  2  0  0  0  0
 17 25  1  0  0  0  0
 18 20  1  0  0  0  0
 19 20  2  0  0  0  0
 19 35  1  0  0  0  0
 20 36  1  0  0  0  0
 21 37  1  0  0  0  0
 21 38  1  0  0  0  0
 22 39  1  0  0  0  0
 22 40  1  0  0  0  0
 22 41  1  0  0  0  0
 23 42  1  0  0  0  0
 24 26  1  0  0  0  0
 24 43  1  0  0  0  0
 25 27  2  0  0  0  0
 25 44  1  0  0  0  0
 26 28  2  0  0  0  0
 26 46  1  0  0  0  0
 27 28  1  0  0  0  0
 27 47  1  0  0  0  0
 28 48  1  0  0  0  0
 29 49  1  0  0  0  0
 29 50  1  0  0  0  0
 29 51  1  0  0  0  0
M  END
> <PUBCHEM_COMPOUND_CID>
49830462

> <PUBCHEM_CONFORMER_RMSD>
1.2

> <PUBCHEM_CONFORMER_DIVERSEORDER>
1
61
21
60
40
25
45
39
57
33
51
17
68
9
2
32
46
28
72
12
67
59
70
55
58
48
29
66
53
62
43
54
20
38
15
63
42
35
26
7
49
14
50
24
13
64
65
71
22
10
31
52
73
74
8
30
44
69
36
56
34
3
16
11
18
5
19
27
6
37
23
41
4
47

> <PUBCHEM_MMFF94_PARTIAL_CHARGES>
38
1 -0.57
10 0.17
11 0.4
12 0.05
13 0.71
14 0.3
15 -0.15
17 -0.14
18 -0.15
19 -0.15
2 -0.56
20 -0.15
21 0.28
22 0.3
23 0.14
24 -0.15
25 -0.15
26 -0.15
27 -0.15
28 -0.15
29 0.28
3 0.31
34 0.15
35 0.15
36 0.15
4 -0.66
42 0.15
43 0.15
44 0.15
45 0.27
46 0.15
47 0.15
48 0.15
5 -0.42
6 -0.23
7 0.3
8 -0.71
9 -0.24

> <PUBCHEM_EFFECTIVE_ROTOR_COUNT>
8

> <PUBCHEM_PHARMACOPHORE_FEATURES>
8
1 1 acceptor
1 2 acceptor
1 7 donor
1 8 acceptor
5 3 5 6 9 10 rings
5 7 8 16 18 23 rings
6 12 15 16 18 19 20 rings
6 17 24 25 26 27 28 rings

> <PUBCHEM_HEAVY_ATOM_COUNT>
29

> <PUBCHEM_ATOM_DEF_STEREO_COUNT>
0

> <PUBCHEM_ATOM_UDEF_STEREO_COUNT>
0

> <PUBCHEM_BOND_DEF_STEREO_COUNT>
0

> <PUBCHEM_BOND_UDEF_STEREO_COUNT>
0

> <PUBCHEM_ISOTOPIC_ATOM_COUNT>
0

> <PUBCHEM_COMPONENT_COUNT>
1

> <PUBCHEM_CACTVS_TAUTO_COUNT>
6

> <PUBCHEM_CONFORMER_ID>
02F85A3E00000001

> <PUBCHEM_MMFF94_ENERGY>
68.6103

> <PUBCHEM_FEATURE_SELFOVERLAP>
40.69

> <PUBCHEM_SHAPE_FINGERPRINT>
10074138 170 17685191899180668393
105312 117 11743824881167475529
10764073 3 16197074396373475637
10838868 217 17695646060760809865
11578080 2 17461183189990078842
12422481 6 18271517637201023904
12633257 1 18200860842852372606
12661589 4 15214725912395315753
12788726 201 18041852688084196014
13140716 1 18340760554623556158
13257819 101 13686295742946951331
133893 2 18046045323199245263
13540713 5 18056193824715270311
13583140 156 18115009824010135639
14739800 52 17345189111285636473
14931854 50 8429764971771929016
14950920 106 18045249191909966563
14955137 171 18269856258289065495
15163728 17 13254802360508307403
15475509 35 17603587452090009747
15840311 113 16845021104749331163
17980427 23 17346871269686832749
1813 80 18410579452755634495
18785283 64 18337678636410325725
19841028 212 17900554668850825099
20739085 24 18411705408455224013
20775438 99 11530762651877948880
21033648 29 17631443476332445531
21304253 335 17060622183033179459
21421861 104 18342745155900239008
22393880 68 11819282217373626451
23559900 14 16701483206863575101
25147074 1 17915450813084708151
2838139 119 13973677296228138891
3411729 13 18266748063371446368
44802255 64 12390932593288493288
460360 51 18334287678447905197
469060 322 17970639493322926784
5104073 3 18267044902374324219
7495541 125 18113900472153244595

> <PUBCHEM_SHAPE_MULTIPOLES>
555.18
11.84
3.55
2.12
9.39
4.35
-0.17
-7
-8.42
-3.44
0.52
-0.08
-0.2
0.01

> <PUBCHEM_SHAPE_SELFOVERLAP>
1207.961

> <PUBCHEM_SHAPE_VOLUME>
306.6

> <PUBCHEM_COORDINATE_TYPE>
2
5
10

$$$$
