9863538
  -OEChem-10052115173D

 42 44  0     0  0  0  0  0  0999 V2000
   -0.1975   -3.0626   -2.3690 Cl  0  0  0  0  0  0  0  0  0  0  0  0
    5.0519   -3.9753    1.2524 O   0  0  0  0  0  0  0  0  0  0  0  0
    3.5701    0.4318   -0.0941 N   0  0  0  0  0  0  0  0  0  0  0  0
    3.2180    2.6644   -0.8473 N   0  0  0  0  0  0  0  0  0  0  0  0
   -3.3646   -0.1524    0.4286 N   0  0  0  0  0  0  0  0  0  0  0  0
   -1.4201    1.1248    0.1340 N   0  0  0  0  0  0  0  0  0  0  0  0
   -1.4871    3.4815    0.5798 N   0  0  0  0  0  0  0  0  0  0  0  0
   -3.4612    2.1489    0.8711 N   0  0  0  0  0  0  0  0  0  0  0  0
    3.1402   -0.8242    0.4728 C   0  0  0  0  0  0  0  0  0  0  0  0
    4.3061   -1.7998    0.5824 C   0  0  0  0  0  0  0  0  0  0  0  0
    2.7257    1.5108   -0.3031 C   0  0  0  0  0  0  0  0  0  0  0  0
    3.9011   -3.1445    1.1748 C   0  0  0  0  0  0  0  0  0  0  0  0
    0.5190    2.4549   -0.1508 C   0  0  0  0  0  0  0  0  0  0  0  0
    1.3780    1.3810    0.0540 C   0  0  0  0  0  0  0  0  0  0  0  0
   -0.8779    2.3475    0.2093 C   0  0  0  0  0  0  0  0  0  0  0  0
    1.0078    3.6336   -0.7034 C   0  0  0  0  0  0  0  0  0  0  0  0
    2.3530    3.6869   -1.0313 C   0  0  0  0  0  0  0  0  0  0  0  0
   -2.9196   -1.4401    0.0760 C   0  0  0  0  0  0  0  0  0  0  0  0
   -2.7173    1.1015    0.4800 C   0  0  0  0  0  0  0  0  0  0  0  0
   -1.8980   -1.5963   -0.8632 C   0  0  0  0  0  0  0  0  0  0  0  0
   -3.4980   -2.5661    0.6654 C   0  0  0  0  0  0  0  0  0  0  0  0
   -1.4568   -2.8729   -1.2113 C   0  0  0  0  0  0  0  0  0  0  0  0
   -3.0568   -3.8428    0.3171 C   0  0  0  0  0  0  0  0  0  0  0  0
   -2.7800    3.3057    0.8970 C   0  0  0  0  0  0  0  0  0  0  0  0
   -2.0362   -3.9961   -0.6212 C   0  0  0  0  0  0  0  0  0  0  0  0
    2.7260   -0.6651    1.4759 H   0  0  0  0  0  0  0  0  0  0  0  0
    2.3638   -1.2771   -0.1559 H   0  0  0  0  0  0  0  0  0  0  0  0
    5.1064   -1.3619    1.1935 H   0  0  0  0  0  0  0  0  0  0  0  0
    4.7561   -1.9617   -0.4059 H   0  0  0  0  0  0  0  0  0  0  0  0
    4.5401    0.5523   -0.3626 H   0  0  0  0  0  0  0  0  0  0  0  0
    3.4929   -3.0192    2.1826 H   0  0  0  0  0  0  0  0  0  0  0  0
    3.1544   -3.6386    0.5452 H   0  0  0  0  0  0  0  0  0  0  0  0
    0.9941    0.4664    0.4950 H   0  0  0  0  0  0  0  0  0  0  0  0
    0.3792    4.4976   -0.8926 H   0  0  0  0  0  0  0  0  0  0  0  0
    2.7835    4.5823   -1.4672 H   0  0  0  0  0  0  0  0  0  0  0  0
   -4.2972   -0.1247    0.8298 H   0  0  0  0  0  0  0  0  0  0  0  0
   -1.4574   -0.7437   -1.3708 H   0  0  0  0  0  0  0  0  0  0  0  0
   -4.2933   -2.4608    1.3990 H   0  0  0  0  0  0  0  0  0  0  0  0
    4.7658   -4.8236    1.6322 H   0  0  0  0  0  0  0  0  0  0  0  0
   -3.5077   -4.7173    0.7769 H   0  0  0  0  0  0  0  0  0  0  0  0
   -3.3292    4.1866    1.2052 H   0  0  0  0  0  0  0  0  0  0  0  0
   -1.7025   -4.9970   -0.8827 H   0  0  0  0  0  0  0  0  0  0  0  0
  1 22  1  0  0  0  0
  2 12  1  0  0  0  0
  2 39  1  0  0  0  0
  3  9  1  0  0  0  0
  3 11  1  0  0  0  0
  3 30  1  0  0  0  0
  4 11  2  0  0  0  0
  4 17  1  0  0  0  0
  5 18  1  0  0  0  0
  5 19  1  0  0  0  0
  5 36  1  0  0  0  0
  6 15  2  0  0  0  0
  6 19  1  0  0  0  0
  7 15  1  0  0  0  0
  7 24  2  0  0  0  0
  8 19  2  0  0  0  0
  8 24  1  0  0  0  0
  9 10  1  0  0  0  0
  9 26  1  0  0  0  0
  9 27  1  0  0  0  0
 10 12  1  0  0  0  0
 10 28  1  0  0  0  0
 10 29  1  0  0  0  0
 11 14  1  0  0  0  0
 12 31  1  0  0  0  0
 12 32  1  0  0  0  0
 13 14  2  0  0  0  0
 13 15  1  0  0  0  0
 13 16  1  0  0  0  0
 14 33  1  0  0  0  0
 16 17  2  0  0  0  0
 16 34  1  0  0  0  0
 17 35  1  0  0  0  0
 18 20  2  0  0  0  0
 18 21  1  0  0  0  0
 20 22  1  0  0  0  0
 20 37  1  0  0  0  0
 21 23  2  0  0  0  0
 21 38  1  0  0  0  0
 22 25  2  0  0  0  0
 23 25  1  0  0  0  0
 23 40  1  0  0  0  0
 24 41  1  0  0  0  0
 25 42  1  0  0  0  0
M  END
> <PUBCHEM_COMPOUND_CID>
9863538

> <PUBCHEM_CONFORMER_RMSD>
1

> <PUBCHEM_CONFORMER_DIVERSEORDER>
1
172
61
107
106
117
127
26
201
65
137
180
124
152
202
94
25
44
141
46
204
34
100
39
115
33
101
188
53
78
121
203
79
158
148
147
91
85
86
97
157
105
149
49
98
35
191
156
96
132
161
184
126
80
125
171
60
93
160
181
62
187
14
81
63
41
175
183
196
89
146
20
104
119
179
206
162
182
185
138
167
165
116
3
159
27
123
143
76
208
83
52
122
130
129
77
55
110
90
2
50
15
150
67
170
59
47
194
140
120
155
82
31
197
87
168
12
135
68
178
176
70
56
11
144
29
24
42
174
102
163
113
64
198
189
4
207
142
57
114
21
145
84
186
195
112
190
75
153
28
173
103
99
37
154
164
193
48
205
74
32
72
111
200
5
51
134
19
18
36
128
69
109
6
40
177
133
139
118
73
136
199
17
151
95
16
166
13
71
169
7
22
66
192
8
10
23
58
43
45
54
88
131
9
92
38
30
108

> <PUBCHEM_MMFF94_PARTIAL_CHARGES>
34
1 -0.18
11 0.41
12 0.28
14 -0.15
15 0.62
16 -0.15
17 0.16
18 0.1
19 0.72
2 -0.68
20 -0.15
21 -0.15
22 0.18
23 -0.15
24 0.47
25 -0.15
3 -0.87
30 0.4
33 0.15
34 0.15
35 0.15
36 0.4
37 0.15
38 0.15
39 0.4
4 -0.62
40 0.15
41 0.15
42 0.15
5 -0.6
6 -0.62
7 -0.62
8 -0.62
9 0.37

> <PUBCHEM_EFFECTIVE_ROTOR_COUNT>
7

> <PUBCHEM_PHARMACOPHORE_FEATURES>
9
1 2 acceptor
1 2 donor
1 3 donor
1 5 donor
3 3 4 11 cation
4 5 6 8 19 cation
6 18 20 21 22 23 25 rings
6 4 11 13 14 16 17 rings
6 6 7 8 15 19 24 rings

> <PUBCHEM_HEAVY_ATOM_COUNT>
25

> <PUBCHEM_ATOM_DEF_STEREO_COUNT>
0

> <PUBCHEM_ATOM_UDEF_STEREO_COUNT>
0

> <PUBCHEM_BOND_DEF_STEREO_COUNT>
0

> <PUBCHEM_BOND_UDEF_STEREO_COUNT>
0

> <PUBCHEM_ISOTOPIC_ATOM_COUNT>
0

> <PUBCHEM_COMPONENT_COUNT>
1

> <PUBCHEM_CACTVS_TAUTO_COUNT>
8

> <PUBCHEM_CONFORMER_ID>
0096817200000001

> <PUBCHEM_MMFF94_ENERGY>
77.6685

> <PUBCHEM_FEATURE_SELFOVERLAP>
45.671

> <PUBCHEM_SHAPE_FINGERPRINT>
10616163 171 18269285723122842237
11014199 57 18410004464368481642
114674 6 16901302158232025841
11524674 6 17197955429414103878
12553582 1 17623572360077634093
13402501 40 17336189260873185774
14117953 113 17905888080678391405
14647877 51 16540449515823767158
15110567 62 17328023681676235427
15403338 16 18050282875747777671
15537594 2 17547591717157410709
16110190 28 18266737975083949730
16728300 4 16813196654810256506
19319366 153 17615691077867374694
19930381 70 17831579043288523411
20291156 8 17550678050797552829
20531524 4 17840046056095639446
21315764 21 17830413470915909191
229767 44 18050843313144953898
238918 7 17552064105384782390
352729 6 18271817800108057309
3882209 13 17978751823067305122
4283 87 17263567007246761215
532947 4 17403458473197940989
7097593 13 18409729569154255628

> <PUBCHEM_SHAPE_MULTIPOLES>
480.6
8.09
7.3
1.3
0.58
3.71
-0.53
5.25
0.24
-3.92
2.37
0.11
1.04
-3.66

> <PUBCHEM_SHAPE_SELFOVERLAP>
1019.281

> <PUBCHEM_SHAPE_VOLUME>
266.2

> <PUBCHEM_COORDINATE_TYPE>
2
5
10

$$$$
