10046873
  -OEChem-10062122043D

 50 54  0     0  0  0  0  0  0999 V2000
    2.5581    2.2812   -0.4821 O   0  0  0  0  0  0  0  0  0  0  0  0
    2.5594   -2.2796    0.4825 O   0  0  0  0  0  0  0  0  0  0  0  0
    3.0713    0.0010    0.0005 N   0  0  0  0  0  0  0  0  0  0  0  0
   -2.6978    1.3836   -0.3217 N   0  0  0  0  0  0  0  0  0  0  0  0
   -2.6968   -1.3851    0.3228 N   0  0  0  0  0  0  0  0  0  0  0  0
    0.8948    0.6726   -0.1572 C   0  0  0  0  0  0  0  0  0  0  0  0
    0.8952   -0.6716    0.1588 C   0  0  0  0  0  0  0  0  0  0  0  0
   -1.4775    0.6857   -0.1590 C   0  0  0  0  0  0  0  0  0  0  0  0
   -1.4771   -0.6861    0.1609 C   0  0  0  0  0  0  0  0  0  0  0  0
    2.2824    1.1171   -0.2547 C   0  0  0  0  0  0  0  0  0  0  0  0
    2.2830   -1.1154    0.2559 C   0  0  0  0  0  0  0  0  0  0  0  0
   -0.2776    1.3835   -0.3218 C   0  0  0  0  0  0  0  0  0  0  0  0
   -0.2768   -1.3831    0.3236 C   0  0  0  0  0  0  0  0  0  0  0  0
    4.5047    0.0014    0.0001 C   0  0  0  0  0  0  0  0  0  0  0  0
   -3.0615    2.7232   -0.1029 C   0  0  0  0  0  0  0  0  0  0  0  0
   -3.0594   -2.7248    0.1030 C   0  0  0  0  0  0  0  0  0  0  0  0
    5.2066   -0.8839    0.8220 C   0  0  0  0  0  0  0  0  0  0  0  0
    5.2062    0.8863   -0.8224 C   0  0  0  0  0  0  0  0  0  0  0  0
    6.6015   -0.8841    0.8214 C   0  0  0  0  0  0  0  0  0  0  0  0
    6.6011    0.8859   -0.8229 C   0  0  0  0  0  0  0  0  0  0  0  0
   -4.0653    3.3141   -0.8752 C   0  0  0  0  0  0  0  0  0  0  0  0
   -4.0628   -3.3171    0.8747 C   0  0  0  0  0  0  0  0  0  0  0  0
   -2.4211    3.4722    0.8880 C   0  0  0  0  0  0  0  0  0  0  0  0
   -2.4181   -3.4726   -0.8883 C   0  0  0  0  0  0  0  0  0  0  0  0
    7.2987    0.0007   -0.0010 C   0  0  0  0  0  0  0  0  0  0  0  0
   -4.4258    4.6441   -0.6584 C   0  0  0  0  0  0  0  0  0  0  0  0
   -4.4222   -4.6471    0.6569 C   0  0  0  0  0  0  0  0  0  0  0  0
   -2.7817    4.8022    1.1048 C   0  0  0  0  0  0  0  0  0  0  0  0
   -2.7776   -4.8026   -1.1061 C   0  0  0  0  0  0  0  0  0  0  0  0
   -3.7841    5.3880    0.3315 C   0  0  0  0  0  0  0  0  0  0  0  0
   -3.7796   -5.3899   -0.3335 C   0  0  0  0  0  0  0  0  0  0  0  0
   -0.2457    2.4336   -0.5898 H   0  0  0  0  0  0  0  0  0  0  0  0
   -0.2442   -2.4332    0.5914 H   0  0  0  0  0  0  0  0  0  0  0  0
   -3.4480    0.8072   -0.6921 H   0  0  0  0  0  0  0  0  0  0  0  0
   -3.4476   -0.8095    0.6932 H   0  0  0  0  0  0  0  0  0  0  0  0
    4.6977   -1.5669    1.4952 H   0  0  0  0  0  0  0  0  0  0  0  0
    4.6969    1.5693   -1.4953 H   0  0  0  0  0  0  0  0  0  0  0  0
    7.1451   -1.5689    1.4658 H   0  0  0  0  0  0  0  0  0  0  0  0
    7.1445    1.5705   -1.4677 H   0  0  0  0  0  0  0  0  0  0  0  0
   -4.5728    2.7457   -1.6506 H   0  0  0  0  0  0  0  0  0  0  0  0
   -4.5710   -2.7496    1.6504 H   0  0  0  0  0  0  0  0  0  0  0  0
   -1.6534    3.0366    1.5218 H   0  0  0  0  0  0  0  0  0  0  0  0
   -1.6506   -3.0359   -1.5216 H   0  0  0  0  0  0  0  0  0  0  0  0
    8.3848    0.0005   -0.0014 H   0  0  0  0  0  0  0  0  0  0  0  0
   -5.2063    5.1003   -1.2603 H   0  0  0  0  0  0  0  0  0  0  0  0
   -5.2024   -5.1045    1.2582 H   0  0  0  0  0  0  0  0  0  0  0  0
   -2.2861    5.3802    1.8792 H   0  0  0  0  0  0  0  0  0  0  0  0
   -2.2813   -5.3797   -1.8809 H   0  0  0  0  0  0  0  0  0  0  0  0
   -4.0656    6.4231    0.5013 H   0  0  0  0  0  0  0  0  0  0  0  0
   -4.0604   -6.4251   -0.5040 H   0  0  0  0  0  0  0  0  0  0  0  0
  1 10  2  0  0  0  0
  2 11  2  0  0  0  0
  3 10  1  0  0  0  0
  3 11  1  0  0  0  0
  3 14  1  0  0  0  0
  4  8  1  0  0  0  0
  4 15  1  0  0  0  0
  4 34  1  0  0  0  0
  5  9  1  0  0  0  0
  5 16  1  0  0  0  0
  5 35  1  0  0  0  0
  6  7  1  0  0  0  0
  6 10  1  0  0  0  0
  6 12  2  0  0  0  0
  7 11  1  0  0  0  0
  7 13  2  0  0  0  0
  8  9  2  0  0  0  0
  8 12  1  0  0  0  0
  9 13  1  0  0  0  0
 12 32  1  0  0  0  0
 13 33  1  0  0  0  0
 14 17  2  0  0  0  0
 14 18  1  0  0  0  0
 15 21  2  0  0  0  0
 15 23  1  0  0  0  0
 16 22  2  0  0  0  0
 16 24  1  0  0  0  0
 17 19  1  0  0  0  0
 17 36  1  0  0  0  0
 18 20  2  0  0  0  0
 18 37  1  0  0  0  0
 19 25  2  0  0  0  0
 19 38  1  0  0  0  0
 20 25  1  0  0  0  0
 20 39  1  0  0  0  0
 21 26  1  0  0  0  0
 21 40  1  0  0  0  0
 22 27  1  0  0  0  0
 22 41  1  0  0  0  0
 23 28  2  0  0  0  0
 23 42  1  0  0  0  0
 24 29  2  0  0  0  0
 24 43  1  0  0  0  0
 25 44  1  0  0  0  0
 26 30  2  0  0  0  0
 26 45  1  0  0  0  0
 27 31  2  0  0  0  0
 27 46  1  0  0  0  0
 28 30  1  0  0  0  0
 28 47  1  0  0  0  0
 29 31  1  0  0  0  0
 29 48  1  0  0  0  0
 30 49  1  0  0  0  0
 31 50  1  0  0  0  0
M  END
> <PUBCHEM_COMPOUND_CID>
10046873

> <PUBCHEM_CONFORMER_RMSD>
0.8

> <PUBCHEM_CONFORMER_DIVERSEORDER>
2
6
8
9
12
10
1
13
14
11
3
5
7
4

> <PUBCHEM_MMFF94_PARTIAL_CHARGES>
50
1 -0.57
10 0.54
11 0.54
12 -0.15
13 -0.15
14 0.12
15 0.1
16 0.1
17 -0.15
18 -0.15
19 -0.15
2 -0.57
20 -0.15
21 -0.15
22 -0.15
23 -0.15
24 -0.15
25 -0.15
26 -0.15
27 -0.15
28 -0.15
29 -0.15
3 -0.24
30 -0.15
31 -0.15
32 0.15
33 0.15
34 0.4
35 0.4
36 0.15
37 0.15
38 0.15
39 0.15
4 -0.6
40 0.15
41 0.15
42 0.15
43 0.15
44 0.15
45 0.15
46 0.15
47 0.15
48 0.15
49 0.15
5 -0.6
50 0.15
6 0.09
7 0.09
8 0.1
9 0.1

> <PUBCHEM_EFFECTIVE_ROTOR_COUNT>
5.2

> <PUBCHEM_PHARMACOPHORE_FEATURES>
11
1 1 acceptor
1 2 acceptor
1 4 cation
1 4 donor
1 5 cation
1 5 donor
5 3 6 7 10 11 rings
6 14 17 18 19 20 25 rings
6 15 21 23 26 28 30 rings
6 16 22 24 27 29 31 rings
6 6 7 8 9 12 13 rings

> <PUBCHEM_HEAVY_ATOM_COUNT>
31

> <PUBCHEM_ATOM_DEF_STEREO_COUNT>
0

> <PUBCHEM_ATOM_UDEF_STEREO_COUNT>
0

> <PUBCHEM_BOND_DEF_STEREO_COUNT>
0

> <PUBCHEM_BOND_UDEF_STEREO_COUNT>
0

> <PUBCHEM_ISOTOPIC_ATOM_COUNT>
0

> <PUBCHEM_COMPONENT_COUNT>
1

> <PUBCHEM_CACTVS_TAUTO_COUNT>
7

> <PUBCHEM_CONFORMER_ID>
00994D9900000002

> <PUBCHEM_MMFF94_ENERGY>
132.9644

> <PUBCHEM_FEATURE_SELFOVERLAP>
55.918

> <PUBCHEM_SHAPE_FINGERPRINT>
10050765 1 18337674118864716722
10290309 65 18197230143698973811
10319688 45 18267868457293791467
10411042 1 18122345945868695491
10940486 97 18334582330400162748
11056379 131 18411707607752838270
11445158 3 14491630865763911158
11763715 3 18047771569477067669
12758862 56 18119523500021972371
12788726 201 18334568066934819163
12988421 55 17984438355936011745
13248334 5 17185876091591569677
13540713 5 18113337514574921372
13690498 29 18269848669297910566
13757389 114 18336277742775217788
138480 1 16537358788921866503
14068700 675 18190459557100318766
14347332 77 18265335182571636126
14394314 77 18051138287277436267
14790565 3 17977948977773393052
15131766 46 15143535797902000430
15347591 1 18411136936455215474
15400415 2 18050566244668032064
15439362 3 17908705034122163422
15927050 60 18265331703174022202
16087824 20 18410293619706072479
16992779 147 16975074427827566137
19427546 20 18408606976393460092
21033650 10 18190770629335073750
21130935 74 18408877427323577354
21796203 349 17541697183898211771
22311459 1 18411419513909277187
23522609 53 17976010804955815492
23929065 36 18340188791613118912
283562 15 18261109733247284090
3627633 1 18338797944048459287
4058900 60 17909835327575243697
4409770 3 18409164412172998701
44280117 145 18410295844314457478
504843 32 18264204725751932901
5104073 3 18040715836686300736
58083652 198 18047756189806433355
6058803 2 18187365428980770282
6673363 416 17977963590085818452
6691757 9 18270115695825659536
6697151 62 17835216207122570471
6700243 42 17912683286266613996
6898599 12 18408890607433171588
77188 2 17978510068321797829
9981440 41 18121504553496841489

> <PUBCHEM_SHAPE_MULTIPOLES>
611.28
14.26
8.34
0.95
29.1
0.02
0
-0.02
0.01
-23.29
0
-0.16
0
-0.78

> <PUBCHEM_SHAPE_SELFOVERLAP>
1371.356

> <PUBCHEM_SHAPE_VOLUME>
320.3

> <PUBCHEM_COORDINATE_TYPE>
2
5
10

$$$$
