47001891
  -OEChem-10052115193D

 38 41  0     0  0  0  0  0  0999 V2000
   -0.3416    0.6199   -0.0134 S   0  0  0  0  0  0  0  0  0  0  0  0
   -4.9231    2.5520   -0.0927 S   0  0  0  0  0  0  0  0  0  0  0  0
   -3.3224   -1.8425    0.0687 O   0  0  0  0  0  0  0  0  0  0  0  0
    2.3161    0.4699   -0.0131 N   0  0  0  0  0  0  0  0  0  0  0  0
   -0.8423   -3.2227    0.1390 N   0  0  0  0  0  0  0  0  0  0  0  0
   -3.2321    0.5012   -0.0017 N   0  0  0  0  0  0  0  0  0  0  0  0
   -5.6454    0.0707   -0.0283 N   0  0  0  0  0  0  0  0  0  0  0  0
    7.0845    1.7909   -0.0636 N   0  0  0  0  0  0  0  0  0  0  0  0
    0.9949   -1.5891    0.0707 C   0  0  0  0  0  0  0  0  0  0  0  0
   -0.3920   -1.9448    0.0875 C   0  0  0  0  0  0  0  0  0  0  0  0
    1.1492   -0.2076    0.0160 C   0  0  0  0  0  0  0  0  0  0  0  0
   -1.2208   -0.8454    0.0463 C   0  0  0  0  0  0  0  0  0  0  0  0
    2.1754   -2.3594    0.0985 C   0  0  0  0  0  0  0  0  0  0  0  0
    3.4087   -0.3229    0.0164 C   0  0  0  0  0  0  0  0  0  0  0  0
    3.4030   -1.7053    0.0710 C   0  0  0  0  0  0  0  0  0  0  0  0
    4.6619    0.3973   -0.0113 C   0  0  0  0  0  0  0  0  0  0  0  0
   -2.6484   -0.7850    0.0474 C   0  0  0  0  0  0  0  0  0  0  0  0
    5.5679    0.1835   -1.0442 C   0  0  0  0  0  0  0  0  0  0  0  0
    4.9657    1.3071    0.9955 C   0  0  0  0  0  0  0  0  0  0  0  0
   -4.5999    0.8677   -0.0355 C   0  0  0  0  0  0  0  0  0  0  0  0
   -6.7925    0.8390   -0.0710 C   0  0  0  0  0  0  0  0  0  0  0  0
    6.7544    0.8989   -1.0245 C   0  0  0  0  0  0  0  0  0  0  0  0
    6.1792    1.9723    0.9238 C   0  0  0  0  0  0  0  0  0  0  0  0
   -6.6025    2.2043   -0.1097 C   0  0  0  0  0  0  0  0  0  0  0  0
   -8.0980    0.1499   -0.0718 C   0  0  0  0  0  0  0  0  0  0  0  0
    2.1391   -3.4439    0.1425 H   0  0  0  0  0  0  0  0  0  0  0  0
    4.3201   -2.2858    0.0983 H   0  0  0  0  0  0  0  0  0  0  0  0
   -1.8303   -3.4576    0.1506 H   0  0  0  0  0  0  0  0  0  0  0  0
   -0.2177   -4.0229    0.1692 H   0  0  0  0  0  0  0  0  0  0  0  0
   -2.6031    1.3006   -0.0198 H   0  0  0  0  0  0  0  0  0  0  0  0
    5.3687   -0.5128   -1.8525 H   0  0  0  0  0  0  0  0  0  0  0  0
    4.2880    1.5004    1.8209 H   0  0  0  0  0  0  0  0  0  0  0  0
    7.4940    0.7697   -1.8079 H   0  0  0  0  0  0  0  0  0  0  0  0
    6.4641    2.6914    1.6847 H   0  0  0  0  0  0  0  0  0  0  0  0
   -7.3422    2.9916   -0.1464 H   0  0  0  0  0  0  0  0  0  0  0  0
   -8.3356   -0.2093   -1.0779 H   0  0  0  0  0  0  0  0  0  0  0  0
   -8.0808   -0.7106    0.6046 H   0  0  0  0  0  0  0  0  0  0  0  0
   -8.9036    0.8158    0.2540 H   0  0  0  0  0  0  0  0  0  0  0  0
  1 11  1  0  0  0  0
  1 12  1  0  0  0  0
  2 20  1  0  0  0  0
  2 24  1  0  0  0  0
  3 17  2  0  0  0  0
  4 11  1  0  0  0  0
  4 14  2  0  0  0  0
  5 10  1  0  0  0  0
  5 28  1  0  0  0  0
  5 29  1  0  0  0  0
  6 17  1  0  0  0  0
  6 20  1  0  0  0  0
  6 30  1  0  0  0  0
  7 20  2  0  0  0  0
  7 21  1  0  0  0  0
  8 22  2  0  0  0  0
  8 23  1  0  0  0  0
  9 10  1  0  0  0  0
  9 11  2  0  0  0  0
  9 13  1  0  0  0  0
 10 12  2  0  0  0  0
 12 17  1  0  0  0  0
 13 15  2  0  0  0  0
 13 26  1  0  0  0  0
 14 15  1  0  0  0  0
 14 16  1  0  0  0  0
 15 27  1  0  0  0  0
 16 18  2  0  0  0  0
 16 19  1  0  0  0  0
 18 22  1  0  0  0  0
 18 31  1  0  0  0  0
 19 23  2  0  0  0  0
 19 32  1  0  0  0  0
 21 24  2  0  0  0  0
 21 25  1  0  0  0  0
 22 33  1  0  0  0  0
 23 34  1  0  0  0  0
 24 35  1  0  0  0  0
 25 36  1  0  0  0  0
 25 37  1  0  0  0  0
 25 38  1  0  0  0  0
M  END
> <PUBCHEM_COMPOUND_CID>
47001891

> <PUBCHEM_CONFORMER_RMSD>
0.8

> <PUBCHEM_CONFORMER_DIVERSEORDER>
1
2
6
4
5
3
8
7
9

> <PUBCHEM_MMFF94_PARTIAL_CHARGES>
33
1 -0.08
10 0.08
11 0.3
12 -0.05
13 -0.15
14 0.31
15 -0.15
17 0.71
18 -0.15
19 -0.15
2 -0.08
20 0.44
21 0.05
22 0.16
23 0.16
24 -0.11
25 0.18
26 0.15
27 0.15
28 0.4
29 0.4
3 -0.57
30 0.37
31 0.15
32 0.15
33 0.15
34 0.15
35 0.15
4 -0.57
5 -0.88
6 -0.49
7 -0.57
8 -0.62

> <PUBCHEM_EFFECTIVE_ROTOR_COUNT>
4

> <PUBCHEM_PHARMACOPHORE_FEATURES>
10
1 3 acceptor
1 4 acceptor
1 5 cation
1 5 donor
1 6 donor
1 8 acceptor
5 1 9 10 11 12 rings
5 2 7 20 21 24 rings
6 4 9 11 13 14 15 rings
6 8 16 18 19 22 23 rings

> <PUBCHEM_HEAVY_ATOM_COUNT>
25

> <PUBCHEM_ATOM_DEF_STEREO_COUNT>
0

> <PUBCHEM_ATOM_UDEF_STEREO_COUNT>
0

> <PUBCHEM_BOND_DEF_STEREO_COUNT>
0

> <PUBCHEM_BOND_UDEF_STEREO_COUNT>
0

> <PUBCHEM_ISOTOPIC_ATOM_COUNT>
0

> <PUBCHEM_COMPONENT_COUNT>
1

> <PUBCHEM_CACTVS_TAUTO_COUNT>
8

> <PUBCHEM_CONFORMER_ID>
02CD312300000001

> <PUBCHEM_MMFF94_ENERGY>
60.4098

> <PUBCHEM_FEATURE_SELFOVERLAP>
50.824

> <PUBCHEM_SHAPE_FINGERPRINT>
10 15 18186239533063024737
10411042 1 17761495095031342843
10595046 47 18340484457768299987
10816530 90 17894926148151573220
10906281 52 17822303404809471494
12293681 160 17989208135480796906
12760667 363 8502653697647122473
12838862 33 18337655486499969269
13540713 4 18337974340799194250
13540713 5 18265593486000325098
14251764 18 18040714783886127237
14257110 125 18410011018223901981
14347332 77 10663829567736720114
14394314 77 18270407084110018913
14461889 52 18040160630031367515
14790565 3 18268431231010907985
14849402 71 18413392051420177681
14931854 50 17917431990708187401
14933364 13 18342740698145918941
15048467 5 18408604759863170596
15131766 46 15359693217455966598
15183329 4 16558755602345589405
15475509 35 15937525941312061218
1577012 14 18342454795501005281
15927050 60 18409446998735304578
17980427 23 17677053559014320030
18335252 98 18410017650439845491
18608769 82 18339363071851383027
19611394 137 17968956308988412745
20281389 69 18333729100343578400
20554085 129 17917134066845360538
21033648 144 18260540100999782247
21033648 29 18199737206794423456
21033650 10 14548751568959290091
21150785 3 16988843886597590469
21298829 104 18410578353577127861
21304304 249 8862942788011493185
21424621 283 18333732394873346251
21521721 280 18342461422313718707
21585482 111 18190180087969229517
221357 26 17346883343188289000
22224240 67 18040714775312075451
23035841 295 10375868576603300989
23559900 14 18059287772635823072
2838139 119 18341885281988086940
293599 30 18410855460133456038
306946 40 17274814819176316768
335352 9 18411422783376844166
3411729 13 18261109625952346346
34797466 226 17703794704109192613
34934 24 18410289233584627338
3545911 37 18411702080134767625
3627633 1 17761774366014662295
4073 2 18113624503325056163
44249763 50 17845638369865637424
5104073 3 18186517696319796466
5385378 56 18187641380519282018
5758199 1 18411421696512370985
59682541 35 18261403256762112745
59682541 52 17346329172332091566
636775 72 18341046432443366520

> <PUBCHEM_SHAPE_MULTIPOLES>
491.41
21.05
2.71
0.77
12.25
0.83
-0.02
-16.18
-1.54
0.09
0.26
-0.96
-0.2
0.51

> <PUBCHEM_SHAPE_SELFOVERLAP>
1068.228

> <PUBCHEM_SHAPE_VOLUME>
271.2

> <PUBCHEM_COORDINATE_TYPE>
2
5
10

$$$$
