44410851
  -OEChem-10062121563D

 48 51  0     1  0  0  0  0  0999 V2000
    6.3311    3.0758    1.1874 Cl  0  0  0  0  0  0  0  0  0  0  0  0
    3.8147    1.7111    1.9189 F   0  0  0  0  0  0  0  0  0  0  0  0
   -6.2355    1.2256   -0.6004 O   0  0  0  0  0  0  0  0  0  0  0  0
   -3.7165   -2.0007    0.3546 O   0  0  0  0  0  0  0  0  0  0  0  0
   -3.3561    1.1401   -0.3605 N   0  0  1  0  0  0  0  0  0  0  0  0
   -6.3344    3.0860    0.7290 N   0  0  0  0  0  0  0  0  0  0  0  0
    0.6428   -3.8100   -0.2618 N   0  0  0  0  0  0  0  0  0  0  0  0
    2.3940   -0.1197    0.4045 N   0  0  0  0  0  0  0  0  0  0  0  0
    2.5976   -2.4127   -0.0812 N   0  0  0  0  0  0  0  0  0  0  0  0
   -4.1362    2.3665   -0.0638 C   0  0  1  0  0  0  0  0  0  0  0  0
   -3.4997    3.0160   -1.3005 C   0  0  0  0  0  0  0  0  0  0  0  0
   -2.3810    1.9857   -1.0917 C   0  0  0  0  0  0  0  0  0  0  0  0
   -2.6999    0.6237    0.8414 C   0  0  0  0  0  0  0  0  0  0  0  0
   -5.6552    2.1491   -0.0219 C   0  0  0  0  0  0  0  0  0  0  0  0
   -1.8236   -0.5487    0.5500 C   0  0  0  0  0  0  0  0  0  0  0  0
   -0.4432   -0.3798    0.5083 C   0  0  0  0  0  0  0  0  0  0  0  0
   -2.3679   -1.8074    0.3197 C   0  0  0  0  0  0  0  0  0  0  0  0
    0.3915   -1.4773    0.2348 C   0  0  0  0  0  0  0  0  0  0  0  0
   -1.5311   -2.8939    0.0484 C   0  0  0  0  0  0  0  0  0  0  0  0
   -0.1463   -2.7534    0.0007 C   0  0  0  0  0  0  0  0  0  0  0  0
    1.7787   -1.3762    0.1787 C   0  0  0  0  0  0  0  0  0  0  0  0
   -4.1873   -3.3239    0.1069 C   0  0  0  0  0  0  0  0  0  0  0  0
    1.9716   -3.5824   -0.2885 C   0  0  0  0  0  0  0  0  0  0  0  0
    3.5837    0.4518   -0.0736 C   0  0  0  0  0  0  0  0  0  0  0  0
    4.2822    1.3726    0.7074 C   0  0  0  0  0  0  0  0  0  0  0  0
    4.0668    0.0970   -1.3332 C   0  0  0  0  0  0  0  0  0  0  0  0
    5.4639    1.9385    0.2288 C   0  0  0  0  0  0  0  0  0  0  0  0
    5.2484    0.6629   -1.8117 C   0  0  0  0  0  0  0  0  0  0  0  0
    5.9469    1.5838   -1.0308 C   0  0  0  0  0  0  0  0  0  0  0  0
   -3.7983    2.8849    0.8497 H   0  0  0  0  0  0  0  0  0  0  0  0
   -3.2095    4.0650   -1.2018 H   0  0  0  0  0  0  0  0  0  0  0  0
   -4.0660    2.8819   -2.2296 H   0  0  0  0  0  0  0  0  0  0  0  0
   -1.9893    1.5388   -2.0107 H   0  0  0  0  0  0  0  0  0  0  0  0
   -1.5385    2.3892   -0.5146 H   0  0  0  0  0  0  0  0  0  0  0  0
   -3.4725    0.3049    1.5550 H   0  0  0  0  0  0  0  0  0  0  0  0
   -2.1334    1.3940    1.3852 H   0  0  0  0  0  0  0  0  0  0  0  0
   -0.0337    0.6118    0.6829 H   0  0  0  0  0  0  0  0  0  0  0  0
   -5.8611    3.8489    1.2022 H   0  0  0  0  0  0  0  0  0  0  0  0
   -7.3431    3.0424    0.8292 H   0  0  0  0  0  0  0  0  0  0  0  0
   -1.9068   -3.8959   -0.1382 H   0  0  0  0  0  0  0  0  0  0  0  0
    2.0134    0.3681    1.2110 H   0  0  0  0  0  0  0  0  0  0  0  0
   -5.2800   -3.2930    0.1739 H   0  0  0  0  0  0  0  0  0  0  0  0
   -3.8440   -4.0260    0.8743 H   0  0  0  0  0  0  0  0  0  0  0  0
   -3.9428   -3.6573   -0.9074 H   0  0  0  0  0  0  0  0  0  0  0  0
    2.6018   -4.4375   -0.5006 H   0  0  0  0  0  0  0  0  0  0  0  0
    3.5341   -0.6068   -1.9672 H   0  0  0  0  0  0  0  0  0  0  0  0
    5.6229    0.3893   -2.7938 H   0  0  0  0  0  0  0  0  0  0  0  0
    6.8658    2.0172   -1.4173 H   0  0  0  0  0  0  0  0  0  0  0  0
  1 27  1  0  0  0  0
  2 25  1  0  0  0  0
  3 14  2  0  0  0  0
  4 17  1  0  0  0  0
  4 22  1  0  0  0  0
  5 10  1  0  0  0  0
  5 12  1  0  0  0  0
  5 13  1  0  0  0  0
  6 14  1  0  0  0  0
  6 38  1  0  0  0  0
  6 39  1  0  0  0  0
  7 20  1  0  0  0  0
  7 23  2  0  0  0  0
  8 21  1  0  0  0  0
  8 24  1  0  0  0  0
  8 41  1  0  0  0  0
  9 21  2  0  0  0  0
  9 23  1  0  0  0  0
 10 11  1  0  0  0  0
 10 14  1  0  0  0  0
 10 30  1  0  0  0  0
 11 12  1  0  0  0  0
 11 31  1  0  0  0  0
 11 32  1  0  0  0  0
 12 33  1  0  0  0  0
 12 34  1  0  0  0  0
 13 15  1  0  0  0  0
 13 35  1  0  0  0  0
 13 36  1  0  0  0  0
 15 16  2  0  0  0  0
 15 17  1  0  0  0  0
 16 18  1  0  0  0  0
 16 37  1  0  0  0  0
 17 19  2  0  0  0  0
 18 20  2  0  0  0  0
 18 21  1  0  0  0  0
 19 20  1  0  0  0  0
 19 40  1  0  0  0  0
 22 42  1  0  0  0  0
 22 43  1  0  0  0  0
 22 44  1  0  0  0  0
 23 45  1  0  0  0  0
 24 25  2  0  0  0  0
 24 26  1  0  0  0  0
 25 27  1  0  0  0  0
 26 28  2  0  0  0  0
 26 46  1  0  0  0  0
 27 29  2  0  0  0  0
 28 29  1  0  0  0  0
 28 47  1  0  0  0  0
 29 48  1  0  0  0  0
M  END
> <PUBCHEM_COMPOUND_CID>
44410851

> <PUBCHEM_CONFORMER_RMSD>
1

> <PUBCHEM_CONFORMER_DIVERSEORDER>
3
108
85
76
106
191
132
135
75
183
161
148
157
109
192
188
81
110
59
58
71
19
34
31
15
142
94
118
105
166
167
64
9
182
74
11
24
91
16
150
39
128
57
18
176
60
99
87
83
160
29
186
40
200
121
169
113
10
156
190
122
124
168
134
127
163
13
102
140
67
79
25
89
114
43
172
126
154
35
184
149
86
171
181
51
144
70
133
196
23
93
77
44
155
32
165
21
173
138
26
66
68
117
56
92
185
123
88
1
33
73
194
129
6
42
20
199
193
139
61
115
50
12
164
146
159
7
103
63
143
197
82
52
180
46
189
116
14
178
36
27
175
84
47
5
198
130
153
95
158
119
100
37
8
136
90
41
101
120
80
62
187
30
22
28
54
104
179
2
177
152
137
4
147
170
78
98
112
49
131
48
162
53
96
125
55
97
195
69
174
145
72
38
45
111
151
65
141
107
17

> <PUBCHEM_MMFF94_PARTIAL_CHARGES>
36
1 -0.18
10 0.26
12 0.21
13 0.41
14 0.58
15 -0.14
16 -0.15
17 0.08
19 -0.15
2 -0.19
20 0.31
21 0.41
22 0.28
23 0.47
24 0.1
25 0.19
26 -0.15
27 0.18
28 -0.15
29 -0.15
3 -0.57
37 0.15
38 0.37
39 0.37
4 -0.36
40 0.15
41 0.4
45 0.15
46 0.15
47 0.15
48 0.15
5 -0.69
6 -0.8
7 -0.62
8 -0.6
9 -0.62

> <PUBCHEM_EFFECTIVE_ROTOR_COUNT>
6.8

> <PUBCHEM_PHARMACOPHORE_FEATURES>
11
1 3 acceptor
1 4 acceptor
1 5 cation
1 6 donor
1 8 donor
3 7 9 23 cation
3 8 9 21 cation
4 5 10 11 12 rings
6 15 16 17 18 19 20 rings
6 24 25 26 27 28 29 rings
6 7 9 18 20 21 23 rings

> <PUBCHEM_HEAVY_ATOM_COUNT>
29

> <PUBCHEM_ATOM_DEF_STEREO_COUNT>
0

> <PUBCHEM_ATOM_UDEF_STEREO_COUNT>
1

> <PUBCHEM_BOND_DEF_STEREO_COUNT>
0

> <PUBCHEM_BOND_UDEF_STEREO_COUNT>
0

> <PUBCHEM_ISOTOPIC_ATOM_COUNT>
0

> <PUBCHEM_COMPONENT_COUNT>
1

> <PUBCHEM_CACTVS_TAUTO_COUNT>
6

> <PUBCHEM_CONFORMER_ID>
02A5A7E300000003

> <PUBCHEM_MMFF94_ENERGY>
106.6382

> <PUBCHEM_FEATURE_SELFOVERLAP>
55.994

> <PUBCHEM_SHAPE_FINGERPRINT>
10050765 1 18410575063199785939
10498660 4 18413112775249905408
10615611 76 17169285917043222812
10670039 82 18261682579474794404
11578080 2 18340776961799202931
12107183 9 18189037717516116258
12390115 104 18340780294472083459
12403259 415 18270970136787934272
12422481 6 17604137139595636852
12730499 353 18338806610733371473
13140716 1 18335696083833478354
13617811 41 18119530092062872703
14294032 229 18339653350804265963
14468879 13 18187374194349684545
15575132 122 18262806288183483047
17980427 23 17458633362063447575
21033648 29 18270675484973444264
21279426 13 18272102578420826262
21521721 280 18267591213656140985
21859007 373 18410288108936101300
22393880 68 18341339928938099454
23559900 14 18198055872652719202
2747138 104 18044953504138062363
283562 15 18338514269970184027
2838139 119 18336256838884161284
469060 322 18190478236203272211
508706 21 18339357595082200132
5104073 3 18186798076069154178
5252454 2 18410291376314235753
6327066 14 18334856121200150780
7808743 9 18334575745740101936
9981440 41 18261677068557766650

> <PUBCHEM_SHAPE_MULTIPOLES>
554.76
15.08
5.03
1.19
4.23
2.35
0.12
-17.46
0.32
-3.72
0.03
1.37
-0.79
1.65

> <PUBCHEM_SHAPE_SELFOVERLAP>
1203.306

> <PUBCHEM_SHAPE_VOLUME>
304.9

> <PUBCHEM_COORDINATE_TYPE>
2
5
10

$$$$
