49830805
  -OEChem-10052115183D

 24 26  0     0  0  0  0  0  0999 V2000
    2.8936   -0.0838   -1.2240 S   0  0  0  0  0  0  0  0  0  0  0  0
   -3.2912   -1.8586   -1.3173 O   0  0  0  0  0  0  0  0  0  0  0  0
   -3.4730   -2.0610    0.9660 O   0  0  0  0  0  0  0  0  0  0  0  0
    0.0892    1.1833    0.0725 N   0  0  0  0  0  0  0  0  0  0  0  0
   -2.2640    0.6613    0.0229 N   0  0  0  0  0  0  0  0  0  0  0  0
    0.9107    2.2697    0.1225 N   0  0  0  0  0  0  0  0  0  0  0  0
    0.4520   -0.1744    0.0452 C   0  0  0  0  0  0  0  0  0  0  0  0
   -1.2533    1.5739    0.0613 C   0  0  0  0  0  0  0  0  0  0  0  0
    1.8637   -0.5982    0.0438 C   0  0  0  0  0  0  0  0  0  0  0  0
   -0.5126   -1.1100    0.0064 C   0  0  0  0  0  0  0  0  0  0  0  0
   -1.9000   -0.5817   -0.0011 C   0  0  0  0  0  0  0  0  0  0  0  0
   -1.2619    2.9496    0.0963 C   0  0  0  0  0  0  0  0  0  0  0  0
    2.5239   -1.3909    0.9567 C   0  0  0  0  0  0  0  0  0  0  0  0
    0.0882    3.3167    0.1326 C   0  0  0  0  0  0  0  0  0  0  0  0
    3.8934   -1.5782    0.6110 C   0  0  0  0  0  0  0  0  0  0  0  0
    4.2277   -0.9218   -0.5530 C   0  0  0  0  0  0  0  0  0  0  0  0
   -2.9865   -1.5959   -0.0418 C   0  0  0  0  0  0  0  0  0  0  0  0
   -0.3368   -2.1777   -0.0235 H   0  0  0  0  0  0  0  0  0  0  0  0
   -2.1311    3.5911    0.0976 H   0  0  0  0  0  0  0  0  0  0  0  0
    2.0553   -1.8188    1.8343 H   0  0  0  0  0  0  0  0  0  0  0  0
    0.5126    4.3097    0.1676 H   0  0  0  0  0  0  0  0  0  0  0  0
    4.5976   -2.1644    1.1869 H   0  0  0  0  0  0  0  0  0  0  0  0
    5.1915   -0.8942   -1.0414 H   0  0  0  0  0  0  0  0  0  0  0  0
   -4.0077   -2.5234   -1.3998 H   0  0  0  0  0  0  0  0  0  0  0  0
  1  9  1  0  0  0  0
  1 16  1  0  0  0  0
  2 17  1  0  0  0  0
  2 24  1  0  0  0  0
  3 17  2  0  0  0  0
  4  6  1  0  0  0  0
  4  7  1  0  0  0  0
  4  8  1  0  0  0  0
  5  8  1  0  0  0  0
  5 11  2  0  0  0  0
  6 14  2  0  0  0  0
  7  9  1  0  0  0  0
  7 10  2  0  0  0  0
  8 12  2  0  0  0  0
  9 13  2  0  0  0  0
 10 11  1  0  0  0  0
 10 18  1  0  0  0  0
 11 17  1  0  0  0  0
 12 14  1  0  0  0  0
 12 19  1  0  0  0  0
 13 15  1  0  0  0  0
 13 20  1  0  0  0  0
 14 21  1  0  0  0  0
 15 16  2  0  0  0  0
 15 22  1  0  0  0  0
 16 23  1  0  0  0  0
M  END
> <PUBCHEM_COMPOUND_CID>
49830805

> <PUBCHEM_CONFORMER_RMSD>
0.6

> <PUBCHEM_CONFORMER_DIVERSEORDER>
1
6
5
3
2
4

> <PUBCHEM_MMFF94_PARTIAL_CHARGES>
24
1 -0.08
10 -0.14
11 0.44
12 -0.15
13 -0.15
14 0.14
15 -0.15
16 -0.11
17 0.72
18 0.15
19 0.15
2 -0.65
20 0.15
21 0.15
22 0.15
23 0.15
24 0.5
3 -0.57
4 0.6
5 -0.58
6 -0.71
7 0.01
8 -0.03
9 -0.01

> <PUBCHEM_EFFECTIVE_ROTOR_COUNT>
2

> <PUBCHEM_PHARMACOPHORE_FEATURES>
8
1 2 acceptor
1 3 acceptor
1 5 acceptor
1 6 acceptor
3 2 3 17 anion
5 1 9 13 15 16 rings
5 4 6 8 12 14 rings
6 4 5 7 8 10 11 rings

> <PUBCHEM_HEAVY_ATOM_COUNT>
17

> <PUBCHEM_ATOM_DEF_STEREO_COUNT>
0

> <PUBCHEM_ATOM_UDEF_STEREO_COUNT>
0

> <PUBCHEM_BOND_DEF_STEREO_COUNT>
0

> <PUBCHEM_BOND_UDEF_STEREO_COUNT>
0

> <PUBCHEM_ISOTOPIC_ATOM_COUNT>
0

> <PUBCHEM_COMPONENT_COUNT>
1

> <PUBCHEM_CACTVS_TAUTO_COUNT>
1

> <PUBCHEM_CONFORMER_ID>
02F85B9500000001

> <PUBCHEM_MMFF94_ENERGY>
36.5196

> <PUBCHEM_FEATURE_SELFOVERLAP>
40.777

> <PUBCHEM_SHAPE_FINGERPRINT>
10616163 171 18266742372740427630
10967382 1 18050287260750396592
10989021 7 18341051925294087219
11578080 2 17678151898438005020
11680986 33 18340755031448737153
12173636 292 17762615088729808548
12553582 1 18411421747345713735
12707595 3 18336545039985710311
13140716 1 18412548708357073921
13538477 17 18189616030129347300
13583140 156 17557673925837716426
14178342 30 17973994069208805410
14787075 74 18117279366549628068
14790565 3 18051704243445201465
15042514 8 18193564371884015041
15279307 12 17756148886605657586
15375462 189 18260843604146147219
15669948 3 18265332794458828666
16945 1 18196092144600018284
1813 80 18200889464314285159
18222031 100 18129942390069018543
19591789 44 16895686956480261162
19868273 325 18411138008851977742
200 152 18113335302097584410
20097449 115 18411421751634717787
20361792 2 18342734165110401823
20510252 161 17911236118210635376
20645477 70 17979907530521637223
20671657 53 18340200903442193559
20871998 184 18201155442937962158
20871998 22 18339922735273737785
20905425 154 18342463681403693348
21029758 11 18410568530701383691
21029758 27 18338526334063326143
21041028 32 18339657727755411225
21296965 67 18412263964656809155
21524375 3 17333356909881330001
22112679 90 18269859595199059729
23184049 29 18411134723587332484
2334 1 18339359785515547073
23402539 116 18126551341700579765
23419403 2 17901347317073568148
23557571 272 18129382605722135348
23559900 14 17911795779163392042
23598294 1 18338237055204930946
257057 1 18339632425617864389
2748010 2 18340472461149604477
3071541 250 18266186199870274989
3091708 16 9064311741347610969
352729 6 17545878227022472217
458136 41 17397281897940548409
54173680 148 18266178340190808664
57096353 35 18187376432497481886
6049 1 17774994645102858290
633830 44 11603084046917125067
7364860 26 17981608474349936081
7615 1 17895197632859850246
77492 1 17750806454390921254
81228 2 18268995288991830833
8863177 126 17753344359431285715
9709674 26 17983575200490042414

> <PUBCHEM_SHAPE_MULTIPOLES>
327.02
6.24
3.27
0.93
3.94
2.67
-0.15
-4.94
-0.38
-2.74
0.3
0.26
-0.35
-0.51

> <PUBCHEM_SHAPE_SELFOVERLAP>
712.311

> <PUBCHEM_SHAPE_VOLUME>
178.7

> <PUBCHEM_COORDINATE_TYPE>
2
5
10

$$$$
