135976272
  -OEChem-10052120443D

 20 22  0     0  0  0  0  0  0999 V2000
    4.4030   -1.2676   -0.0004 Cl  0  0  0  0  0  0  0  0  0  0  0  0
   -2.9844    1.8971   -0.0002 O   0  0  0  0  0  0  0  0  0  0  0  0
   -1.8921   -0.0831   -0.0001 N   0  0  0  0  0  0  0  0  0  0  0  0
   -0.6366    1.8504    0.0001 N   0  0  0  0  0  0  0  0  0  0  0  0
   -1.1637   -2.1557    0.0003 N   0  0  0  0  0  0  0  0  0  0  0  0
   -3.0221   -0.8156   -0.0003 N   0  0  0  0  0  0  0  0  0  0  0  0
    0.5271   -0.2944    0.0002 C   0  0  0  0  0  0  0  0  0  0  0  0
    0.5710    1.1081    0.0001 C   0  0  0  0  0  0  0  0  0  0  0  0
   -0.7855   -0.8972    0.0001 C   0  0  0  0  0  0  0  0  0  0  0  0
   -1.9143    1.3079    0.0000 C   0  0  0  0  0  0  0  0  0  0  0  0
    1.7101   -1.0328    0.0001 C   0  0  0  0  0  0  0  0  0  0  0  0
    1.7976    1.7725    0.0002 C   0  0  0  0  0  0  0  0  0  0  0  0
    2.9364   -0.3655    0.0000 C   0  0  0  0  0  0  0  0  0  0  0  0
    2.9799    1.0311   -0.0001 C   0  0  0  0  0  0  0  0  0  0  0  0
   -2.5264   -2.0554    0.0000 C   0  0  0  0  0  0  0  0  0  0  0  0
   -0.5539    2.8636    0.0001 H   0  0  0  0  0  0  0  0  0  0  0  0
    1.6785   -2.1198    0.0000 H   0  0  0  0  0  0  0  0  0  0  0  0
    1.8455    2.8579    0.0002 H   0  0  0  0  0  0  0  0  0  0  0  0
    3.9322    1.5558   -0.0003 H   0  0  0  0  0  0  0  0  0  0  0  0
   -3.1799   -2.9149    0.0000 H   0  0  0  0  0  0  0  0  0  0  0  0
  1 13  1  0  0  0  0
  2 10  2  0  0  0  0
  3  6  1  0  0  0  0
  3  9  1  0  0  0  0
  3 10  1  0  0  0  0
  4  8  1  0  0  0  0
  4 10  1  0  0  0  0
  4 16  1  0  0  0  0
  5  9  2  0  0  0  0
  5 15  1  0  0  0  0
  6 15  2  0  0  0  0
  7  8  2  0  0  0  0
  7  9  1  0  0  0  0
  7 11  1  0  0  0  0
  8 12  1  0  0  0  0
 11 13  2  0  0  0  0
 11 17  1  0  0  0  0
 12 14  2  0  0  0  0
 12 18  1  0  0  0  0
 13 14  1  0  0  0  0
 14 19  1  0  0  0  0
 15 20  1  0  0  0  0
M  END
> <PUBCHEM_COMPOUND_CID>
135976272

> <PUBCHEM_CONFORMER_RMSD>
0.4

> <PUBCHEM_CONFORMER_DIVERSEORDER>
1

> <PUBCHEM_MMFF94_PARTIAL_CHARGES>
20
1 -0.18
10 0.64
11 -0.15
12 -0.15
13 0.18
14 -0.15
15 0.37
16 0.37
17 0.15
18 0.15
19 0.15
2 -0.57
20 0.15
3 0.56
4 -0.55
5 -0.57
6 -0.71
7 0.05
8 0.12
9 0.13

> <PUBCHEM_EFFECTIVE_ROTOR_COUNT>
0

> <PUBCHEM_PHARMACOPHORE_FEATURES>
6
1 2 acceptor
1 4 donor
3 5 6 15 cation
5 3 5 6 9 15 rings
6 3 4 7 8 9 10 rings
6 7 8 11 12 13 14 rings

> <PUBCHEM_HEAVY_ATOM_COUNT>
15

> <PUBCHEM_ATOM_DEF_STEREO_COUNT>
0

> <PUBCHEM_ATOM_UDEF_STEREO_COUNT>
0

> <PUBCHEM_BOND_DEF_STEREO_COUNT>
0

> <PUBCHEM_BOND_UDEF_STEREO_COUNT>
0

> <PUBCHEM_ISOTOPIC_ATOM_COUNT>
0

> <PUBCHEM_COMPONENT_COUNT>
1

> <PUBCHEM_CACTVS_TAUTO_COUNT>
-1

> <PUBCHEM_CONFORMER_ID>
081AD55000000001

> <PUBCHEM_MMFF94_ENERGY>
32.1504

> <PUBCHEM_FEATURE_SELFOVERLAP>
30.608

> <PUBCHEM_SHAPE_FINGERPRINT>
10608611 8 18412541046072159440
10967382 1 18122624950832476871
11132069 177 18338793425616367360
11769659 78 18410570717077068726
12032990 46 18337113474464448266
12932764 1 17489022794356491340
13140716 1 18411704274599533072
13380535 76 18270115691266655551
14144814 61 18410575110675638370
14325111 11 18410574002621788960
14911166 2 18266171742973596037
14965852 173 18410573981178334674
15196674 1 18410573993751987204
15219456 202 18272083916286667456
15375462 189 17896036551441624546
15442244 35 18410011022772063912
15536298 74 18341894125890238664
16945 1 18194682802642367044
17804303 29 18341334405614937436
193761 8 18338799030026767328
19973954 147 18338236071636158396
200 152 17917700327706447943
20510252 161 18272090517245356281
20711985 365 18410575097574419598
20871998 184 18201441410556037479
21267235 1 18409738360662530466
21501502 16 18410296942876616492
21501925 9 18338505443864417090
2334 1 18338517546528479492
23366157 5 18041277777222231884
23402539 116 18200302235169033493
23463225 33 18410012177991659510
23552423 10 18188772867687615252
23559900 14 18270397175825194334
2748010 2 18411416241123280669
335352 9 18266741285875682220
5104073 3 18411418410656571040
54173680 148 18410294713545834354
6333449 129 18411697651743956125
69090 78 18411976923771799997
7364860 26 18270119166470444672
74978 22 18409727352903710044
8809292 202 18408045104392446890
9709674 26 18413392038155168606

> <PUBCHEM_SHAPE_MULTIPOLES>
284.77
5.85
2.35
0.59
3.13
0.06
0
-1.5
0
-1
0
0.08
-0.01
0

> <PUBCHEM_SHAPE_SELFOVERLAP>
631.937

> <PUBCHEM_SHAPE_VOLUME>
154.8

> <PUBCHEM_COORDINATE_TYPE>
2
5
10

$$$$
