136027068
  -OEChem-10062121563D

 37 41  0     0  0  0  0  0  0999 V2000
    3.9382    1.3809   -0.0042 S   0  0  0  0  0  0  0  0  0  0  0  0
   -0.3680    3.9497   -0.0067 O   0  0  0  0  0  0  0  0  0  0  0  0
   -0.3643    1.6817   -0.0045 N   0  0  0  0  0  0  0  0  0  0  0  0
    1.6793    2.7856   -0.0077 N   0  0  0  0  0  0  0  0  0  0  0  0
   -0.7017   -0.4988    0.0009 N   0  0  0  0  0  0  0  0  0  0  0  0
   -1.7062    1.5694   -0.0010 N   0  0  0  0  0  0  0  0  0  0  0  0
    2.4834   -0.7724   -0.0105 C   0  0  0  0  0  0  0  0  0  0  0  0
    2.1377   -2.2298    0.0060 C   0  0  0  0  0  0  0  0  0  0  0  0
    3.3435   -3.1090   -0.3616 C   0  0  0  0  0  0  0  0  0  0  0  0
    4.6197   -2.6555    0.3615 C   0  0  0  0  0  0  0  0  0  0  0  0
    3.8007   -0.3292    0.0011 C   0  0  0  0  0  0  0  0  0  0  0  0
    5.0059   -1.2169   -0.0152 C   0  0  0  0  0  0  0  0  0  0  0  0
    1.5993    0.3348   -0.0090 C   0  0  0  0  0  0  0  0  0  0  0  0
    2.2632    1.5339   -0.0080 C   0  0  0  0  0  0  0  0  0  0  0  0
    0.2184    0.4334   -0.0047 C   0  0  0  0  0  0  0  0  0  0  0  0
    0.2900    2.9205   -0.0066 C   0  0  0  0  0  0  0  0  0  0  0  0
   -1.8545    0.2401    0.0027 C   0  0  0  0  0  0  0  0  0  0  0  0
   -3.1444   -0.3900    0.0072 C   0  0  0  0  0  0  0  0  0  0  0  0
   -3.2401   -1.7816    0.0098 C   0  0  0  0  0  0  0  0  0  0  0  0
   -4.3017    0.3885    0.0086 C   0  0  0  0  0  0  0  0  0  0  0  0
   -4.4931   -2.3947    0.0139 C   0  0  0  0  0  0  0  0  0  0  0  0
   -5.5547   -0.2244    0.0127 C   0  0  0  0  0  0  0  0  0  0  0  0
   -5.6503   -1.6160    0.0153 C   0  0  0  0  0  0  0  0  0  0  0  0
    1.7904   -2.4937    1.0126 H   0  0  0  0  0  0  0  0  0  0  0  0
    1.3164   -2.4372   -0.6891 H   0  0  0  0  0  0  0  0  0  0  0  0
    3.1229   -4.1532   -0.1131 H   0  0  0  0  0  0  0  0  0  0  0  0
    3.5119   -3.0663   -1.4454 H   0  0  0  0  0  0  0  0  0  0  0  0
    5.4478   -3.3309    0.1190 H   0  0  0  0  0  0  0  0  0  0  0  0
    4.4595   -2.7214    1.4455 H   0  0  0  0  0  0  0  0  0  0  0  0
    5.4379   -1.2096   -1.0234 H   0  0  0  0  0  0  0  0  0  0  0  0
    5.7733   -0.8531    0.6774 H   0  0  0  0  0  0  0  0  0  0  0  0
    2.2812    3.6025   -0.0076 H   0  0  0  0  0  0  0  0  0  0  0  0
   -2.3573   -2.4162    0.0088 H   0  0  0  0  0  0  0  0  0  0  0  0
   -4.2667    1.4751    0.0066 H   0  0  0  0  0  0  0  0  0  0  0  0
   -4.5680   -3.4782    0.0159 H   0  0  0  0  0  0  0  0  0  0  0  0
   -6.4562    0.3814    0.0138 H   0  0  0  0  0  0  0  0  0  0  0  0
   -6.6260   -2.0933    0.0184 H   0  0  0  0  0  0  0  0  0  0  0  0
  1 11  1  0  0  0  0
  1 14  1  0  0  0  0
  2 16  2  0  0  0  0
  3  6  1  0  0  0  0
  3 15  1  0  0  0  0
  3 16  1  0  0  0  0
  4 14  1  0  0  0  0
  4 16  1  0  0  0  0
  4 32  1  0  0  0  0
  5 15  2  0  0  0  0
  5 17  1  0  0  0  0
  6 17  2  0  0  0  0
  7  8  1  0  0  0  0
  7 11  2  0  0  0  0
  7 13  1  0  0  0  0
  8  9  1  0  0  0  0
  8 24  1  0  0  0  0
  8 25  1  0  0  0  0
  9 10  1  0  0  0  0
  9 26  1  0  0  0  0
  9 27  1  0  0  0  0
 10 12  1  0  0  0  0
 10 28  1  0  0  0  0
 10 29  1  0  0  0  0
 11 12  1  0  0  0  0
 12 30  1  0  0  0  0
 12 31  1  0  0  0  0
 13 14  2  0  0  0  0
 13 15  1  0  0  0  0
 17 18  1  0  0  0  0
 18 19  2  0  0  0  0
 18 20  1  0  0  0  0
 19 21  1  0  0  0  0
 19 33  1  0  0  0  0
 20 22  2  0  0  0  0
 20 34  1  0  0  0  0
 21 23  2  0  0  0  0
 21 35  1  0  0  0  0
 22 23  1  0  0  0  0
 22 36  1  0  0  0  0
 23 37  1  0  0  0  0
M  END
> <PUBCHEM_COMPOUND_CID>
136027068

> <PUBCHEM_CONFORMER_RMSD>
0.6

> <PUBCHEM_CONFORMER_DIVERSEORDER>
1

> <PUBCHEM_MMFF94_PARTIAL_CHARGES>
26
1 -0.08
11 -0.14
12 0.18
14 0.1
15 0.19
16 0.64
17 0.46
18 0.05
19 -0.15
2 -0.57
20 -0.15
21 -0.15
22 -0.15
23 -0.15
3 0.56
32 0.37
33 0.15
34 0.15
35 0.15
36 0.15
37 0.15
4 -0.49
5 -0.57
6 -0.71
7 -0.18
8 0.18

> <PUBCHEM_EFFECTIVE_ROTOR_COUNT>
1.8

> <PUBCHEM_PHARMACOPHORE_FEATURES>
8
1 2 acceptor
1 4 donor
3 5 6 17 cation
5 1 7 11 13 14 rings
5 3 5 6 15 17 rings
6 18 19 20 21 22 23 rings
6 3 4 13 14 15 16 rings
6 7 8 9 10 11 12 rings

> <PUBCHEM_HEAVY_ATOM_COUNT>
23

> <PUBCHEM_ATOM_DEF_STEREO_COUNT>
0

> <PUBCHEM_ATOM_UDEF_STEREO_COUNT>
0

> <PUBCHEM_BOND_DEF_STEREO_COUNT>
0

> <PUBCHEM_BOND_UDEF_STEREO_COUNT>
0

> <PUBCHEM_ISOTOPIC_ATOM_COUNT>
0

> <PUBCHEM_COMPONENT_COUNT>
1

> <PUBCHEM_CACTVS_TAUTO_COUNT>
-1

> <PUBCHEM_CONFORMER_ID>
081B9BBC00000001

> <PUBCHEM_MMFF94_ENERGY>
45.5912

> <PUBCHEM_FEATURE_SELFOVERLAP>
40.881

> <PUBCHEM_SHAPE_FINGERPRINT>
10050765 1 18266458707889279376
10411042 1 18338517443765983390
10906281 52 18188787165818769416
10967382 1 18338799030611959500
1100329 8 17907857650249993844
11045515 52 18114463366288292509
11963148 33 18335975484810938114
12107183 9 18269847419810820977
12553582 1 18340193146573157398
12788726 201 18189896405267454738
13004483 165 18340197501537873243
13140716 1 18270118989822897768
13533116 47 18268711778897038459
13544653 18 18334301954480787931
138480 1 18410856602758761284
13911852 28 18411978023114993143
13955234 65 18053666064483566785
14117953 113 18200313213068902551
14767858 380 18262253196150665054
14790565 3 17760934343552180748
14863182 85 18337113483697519614
14866123 147 17907861704498499177
15042514 8 18195528082292414736
15196674 1 18410574006906206763
15250474 111 18056752355126699639
15320467 1 17978510067880037263
15352361 1 18410573959450621899
15475509 84 17845943930993331449
15927050 60 17765434640739324324
16087824 20 18193840332793721821
17492 89 18194681463288473030
17857418 61 18411698772809957411
19141452 34 18196659484210671337
1979834 28 17989488506957438534
20028762 73 18272365373752232782
20645477 70 18334291010893542291
20832881 197 18333732399358341155
21033650 10 16588583085296808389
21065198 57 18338517577368567691
21250096 35 18411418410329743299
21267235 1 18411426089636446478
21279426 13 18262794069740088917
21478907 32 18337953376783468033
221490 88 18263369251312190475
22950370 63 18410296904153254539
23559900 14 18338791338452263073
239999 70 18202009854300086182
3004659 81 18114180822233716926
314173 41 18411143553739380463
314194 84 18340487880319554451
335352 9 18410573943114590045
33824 294 18339078297885776858
3421961 26 18412260670438018288
3882209 13 17180771114765561003
4015057 19 18338507664695052151
4073 2 18114748264701961283
4214541 1 18410575081096059873
46194498 28 17531525507276279429
463206 1 18336548316845511523
465052 167 18343588446943141870
5104073 3 18343582919240630409
5283173 99 18042677313273447365
5309563 4 18411981342982249110
59755656 215 18408889568515127446
6443956 14 18408042930880317916
7164475 11 18335143034064497980
7970288 3 18337668607736328594
8863177 126 17896898736273055035
9709674 26 18190745426261512091
9981440 41 17257366874332335561

> <PUBCHEM_SHAPE_MULTIPOLES>
451.39
11.51
3.81
0.61
9.26
1.41
0
-8.83
-0.21
-2.33
0.05
-0.07
-0.07
-0.02

> <PUBCHEM_SHAPE_SELFOVERLAP>
1013.538

> <PUBCHEM_SHAPE_VOLUME>
241.6

> <PUBCHEM_COORDINATE_TYPE>
2
5
10

$$$$
