3335325
  -OEChem-10052115183D

 45 48  0     0  0  0  0  0  0999 V2000
    6.7563   -1.6614    0.0005 I   0  0  0  0  0  0  0  0  0  0  0  0
   -2.9629    3.4222   -0.0008 O   0  0  0  0  0  0  0  0  0  0  0  0
   -3.9125   -1.3647   -0.0001 O   0  0  0  0  0  0  0  0  0  0  0  0
   -2.8239   -3.3831   -0.0008 O   0  0  0  0  0  0  0  0  0  0  0  0
    0.5669   -0.7925    0.0003 N   0  0  0  0  0  0  0  0  0  0  0  0
   -0.1242    0.4021    0.0004 C   0  0  0  0  0  0  0  0  0  0  0  0
   -1.4838    0.0769    0.0004 C   0  0  0  0  0  0  0  0  0  0  0  0
   -0.3028   -1.8488   -0.0002 C   0  0  0  0  0  0  0  0  0  0  0  0
   -1.5807   -1.3429    0.0001 C   0  0  0  0  0  0  0  0  0  0  0  0
    0.3328    1.7447    0.0003 C   0  0  0  0  0  0  0  0  0  0  0  0
   -0.6402    2.7737    0.0003 C   0  0  0  0  0  0  0  0  0  0  0  0
   -2.4337    1.1161    0.0006 C   0  0  0  0  0  0  0  0  0  0  0  0
    1.9528   -0.9876    0.0003 C   0  0  0  0  0  0  0  0  0  0  0  0
   -2.0027    2.4484    0.0006 C   0  0  0  0  0  0  0  0  0  0  0  0
    0.1488   -3.2608   -0.0012 C   0  0  0  0  0  0  0  0  0  0  0  0
    1.7060    2.0602   -0.0005 C   0  0  0  0  0  0  0  0  0  0  0  0
   -2.7746   -2.1417   -0.0005 C   0  0  0  0  0  0  0  0  0  0  0  0
   -0.2036    4.1076    0.0001 C   0  0  0  0  0  0  0  0  0  0  0  0
    2.6271   -1.0824    1.2082 C   0  0  0  0  0  0  0  0  0  0  0  0
    2.6268   -1.0823   -1.2077 C   0  0  0  0  0  0  0  0  0  0  0  0
    2.1105    3.3941   -0.0009 C   0  0  0  0  0  0  0  0  0  0  0  0
    1.1599    4.4135   -0.0005 C   0  0  0  0  0  0  0  0  0  0  0  0
    4.0084   -1.2765    1.2080 C   0  0  0  0  0  0  0  0  0  0  0  0
    4.0081   -1.2765   -1.2079 C   0  0  0  0  0  0  0  0  0  0  0  0
    4.6988   -1.3736    0.0000 C   0  0  0  0  0  0  0  0  0  0  0  0
   -5.1691   -2.0519    0.0002 C   0  0  0  0  0  0  0  0  0  0  0  0
   -6.2886   -1.0329    0.0007 C   0  0  0  0  0  0  0  0  0  0  0  0
   -3.5016    0.9238    0.0005 H   0  0  0  0  0  0  0  0  0  0  0  0
    1.2314   -3.4031    0.0014 H   0  0  0  0  0  0  0  0  0  0  0  0
   -0.2393   -3.7781    0.8831 H   0  0  0  0  0  0  0  0  0  0  0  0
   -0.2350   -3.7754   -0.8892 H   0  0  0  0  0  0  0  0  0  0  0  0
    2.5056    1.3399   -0.0011 H   0  0  0  0  0  0  0  0  0  0  0  0
   -0.8927    4.9472   -0.0161 H   0  0  0  0  0  0  0  0  0  0  0  0
    2.0999   -1.0076    2.1557 H   0  0  0  0  0  0  0  0  0  0  0  0
    2.0995   -1.0075   -2.1551 H   0  0  0  0  0  0  0  0  0  0  0  0
    3.1684    3.6411   -0.0024 H   0  0  0  0  0  0  0  0  0  0  0  0
    1.4809    5.4514   -0.0045 H   0  0  0  0  0  0  0  0  0  0  0  0
    4.5271   -1.3490    2.1606 H   0  0  0  0  0  0  0  0  0  0  0  0
    4.5267   -1.3488   -2.1606 H   0  0  0  0  0  0  0  0  0  0  0  0
   -2.6330    4.2210    0.4391 H   0  0  0  0  0  0  0  0  0  0  0  0
   -5.2396   -2.6805   -0.8941 H   0  0  0  0  0  0  0  0  0  0  0  0
   -5.2390   -2.6808    0.8944 H   0  0  0  0  0  0  0  0  0  0  0  0
   -7.2654   -1.5245    0.0010 H   0  0  0  0  0  0  0  0  0  0  0  0
   -6.2184   -0.3843    0.8802 H   0  0  0  0  0  0  0  0  0  0  0  0
   -6.2189   -0.3839   -0.8785 H   0  0  0  0  0  0  0  0  0  0  0  0
  1 25  1  0  0  0  0
  2 14  1  0  0  0  0
  2 40  1  0  0  0  0
  3 17  1  0  0  0  0
  3 26  1  0  0  0  0
  4 17  2  0  0  0  0
  5  6  1  0  0  0  0
  5  8  1  0  0  0  0
  5 13  1  0  0  0  0
  6  7  2  0  0  0  0
  6 10  1  0  0  0  0
  7  9  1  0  0  0  0
  7 12  1  0  0  0  0
  8  9  2  0  0  0  0
  8 15  1  0  0  0  0
  9 17  1  0  0  0  0
 10 11  1  0  0  0  0
 10 16  2  0  0  0  0
 11 14  1  0  0  0  0
 11 18  2  0  0  0  0
 12 14  2  0  0  0  0
 12 28  1  0  0  0  0
 13 19  2  0  0  0  0
 13 20  1  0  0  0  0
 15 29  1  0  0  0  0
 15 30  1  0  0  0  0
 15 31  1  0  0  0  0
 16 21  1  0  0  0  0
 16 32  1  0  0  0  0
 18 22  1  0  0  0  0
 18 33  1  0  0  0  0
 19 23  1  0  0  0  0
 19 34  1  0  0  0  0
 20 24  2  0  0  0  0
 20 35  1  0  0  0  0
 21 22  2  0  0  0  0
 21 36  1  0  0  0  0
 22 37  1  0  0  0  0
 23 25  2  0  0  0  0
 23 38  1  0  0  0  0
 24 25  1  0  0  0  0
 24 39  1  0  0  0  0
 26 27  1  0  0  0  0
 26 41  1  0  0  0  0
 26 42  1  0  0  0  0
 27 43  1  0  0  0  0
 27 44  1  0  0  0  0
 27 45  1  0  0  0  0
M  END
> <PUBCHEM_COMPOUND_CID>
3335325

> <PUBCHEM_CONFORMER_RMSD>
0.8

> <PUBCHEM_CONFORMER_DIVERSEORDER>
1
3
2
4

> <PUBCHEM_MMFF94_PARTIAL_CHARGES>
33
1 -0.08
12 -0.15
13 -0.02
14 0.08
15 0.18
16 -0.15
17 0.81
18 -0.15
19 -0.15
2 -0.53
20 -0.15
21 -0.15
22 -0.15
23 -0.15
24 -0.15
25 0.08
26 0.28
28 0.15
3 -0.43
32 0.15
33 0.15
34 0.15
35 0.15
36 0.15
37 0.15
38 0.15
39 0.15
4 -0.57
40 0.45
5 0.33
6 -0.15
8 -0.33
9 -0.09

> <PUBCHEM_EFFECTIVE_ROTOR_COUNT>
4

> <PUBCHEM_PHARMACOPHORE_FEATURES>
8
1 1 hydrophobe
1 2 donor
1 4 acceptor
1 5 cation
5 5 6 7 8 9 rings
6 10 11 16 18 21 22 rings
6 13 19 20 23 24 25 rings
6 6 7 10 11 12 14 rings

> <PUBCHEM_HEAVY_ATOM_COUNT>
27

> <PUBCHEM_ATOM_DEF_STEREO_COUNT>
0

> <PUBCHEM_ATOM_UDEF_STEREO_COUNT>
0

> <PUBCHEM_BOND_DEF_STEREO_COUNT>
0

> <PUBCHEM_BOND_UDEF_STEREO_COUNT>
0

> <PUBCHEM_ISOTOPIC_ATOM_COUNT>
0

> <PUBCHEM_COMPONENT_COUNT>
1

> <PUBCHEM_CACTVS_TAUTO_COUNT>
3

> <PUBCHEM_CONFORMER_ID>
0032E49D00000001

> <PUBCHEM_MMFF94_ENERGY>
98.4915

> <PUBCHEM_FEATURE_SELFOVERLAP>
40.709

> <PUBCHEM_SHAPE_FINGERPRINT>
10319926 262 18124574420553890530
10411042 1 18410575110454442915
10967382 1 17906453586242854853
1100329 8 18338801117760902297
11578080 2 17387665367264532476
12166972 35 17822012008447978966
12236239 1 17749108851440575242
12553582 1 18409730660145007779
12741549 16 17417807314899449042
12788726 201 18262249849764972946
13009979 54 17752463392665925514
13140716 1 18412542076685203017
138480 1 15024149218966277280
13911987 19 17901656073255736429
14117953 113 18343019974331639143
15042514 8 18266175028776512562
15420108 30 17554035928964148886
15475509 8 17985576414668324391
15927050 60 17691128553406218302
16087824 20 18266177224507536397
16112460 7 18341629130908999201
17492 89 17979354493284695503
19591789 44 18410862036134951373
20028762 73 18201719566098522151
20101258 96 18409739456216385698
20642791 105 18042678416763186908
20642791 35 18195252332870827404
20739085 24 18192174761481037849
20905425 154 18269002058150686684
21033648 29 17560501933403799474
21133665 82 17401774511543950852
21304303 172 18271530801528837753
21421861 104 18189887802363896001
21796203 349 17975456556658838953
22149856 69 16970000164617976585
22182313 1 18265594615565323461
2334 1 18338515351837283393
23352939 185 18271818959622165784
23366157 5 17899975224902966487
23419403 2 17971445602606783318
23557571 272 18271808974124213886
23559900 14 18267580384909528659
24771293 8 18129370660895963066
335352 9 18410291407212424471
3380486 145 18121519967770106089
350125 39 18410294730968608409
469060 322 18339936912981901059
484989 97 18334851719823776677
5104073 3 18192439782723660667
59755656 215 18193842776112674660
7808743 9 18194120708205167352
8863177 126 17752218438028468643
9981440 41 17399515624368666696

> <PUBCHEM_SHAPE_MULTIPOLES>
544.99
10.58
5.4
0.84
4.71
6.03
0
-10.36
0
-2.81
0
0.81
-0.23
0

> <PUBCHEM_SHAPE_SELFOVERLAP>
1194.169

> <PUBCHEM_SHAPE_VOLUME>
302.3

> <PUBCHEM_COORDINATE_TYPE>
2
5
10

$$$$
