49830567
  -OEChem-10052115193D

 26 28  0     0  0  0  0  0  0999 V2000
    1.2178   -2.5995   -0.0011 O   0  0  0  0  0  0  0  0  0  0  0  0
   -0.4379    1.4116   -0.0011 N   0  0  0  0  0  0  0  0  0  0  0  0
   -0.7415   -1.6020   -0.0009 N   0  0  0  0  0  0  0  0  0  0  0  0
    1.7565    2.1137   -0.0006 N   0  0  0  0  0  0  0  0  0  0  0  0
    3.6541    0.6686    0.0008 N   0  0  0  0  0  0  0  0  0  0  0  0
    3.4347   -1.6148    0.0019 N   0  0  0  0  0  0  0  0  0  0  0  0
   -1.6457    0.7173   -0.0006 C   0  0  0  0  0  0  0  0  0  0  0  0
   -1.7850   -0.6661   -0.0005 C   0  0  0  0  0  0  0  0  0  0  0  0
    1.3877   -0.2439   -0.0001 C   0  0  0  0  0  0  0  0  0  0  0  0
    0.9009    1.0505   -0.0007 C   0  0  0  0  0  0  0  0  0  0  0  0
    0.6289   -1.5124   -0.0007 C   0  0  0  0  0  0  0  0  0  0  0  0
   -2.8250    1.5024    0.0003 C   0  0  0  0  0  0  0  0  0  0  0  0
   -3.0805   -1.2311    0.0004 C   0  0  0  0  0  0  0  0  0  0  0  0
    2.7840   -0.3598    0.0007 C   0  0  0  0  0  0  0  0  0  0  0  0
   -4.0987    0.9365    0.0012 C   0  0  0  0  0  0  0  0  0  0  0  0
   -4.2270   -0.4404    0.0010 C   0  0  0  0  0  0  0  0  0  0  0  0
    3.0767    1.8694    0.0001 C   0  0  0  0  0  0  0  0  0  0  0  0
   -0.5454    2.4226   -0.0015 H   0  0  0  0  0  0  0  0  0  0  0  0
   -1.0610   -2.5691   -0.0010 H   0  0  0  0  0  0  0  0  0  0  0  0
   -2.7510    2.5896    0.0004 H   0  0  0  0  0  0  0  0  0  0  0  0
   -3.2085   -2.3129    0.0005 H   0  0  0  0  0  0  0  0  0  0  0  0
   -4.9791    1.5713    0.0018 H   0  0  0  0  0  0  0  0  0  0  0  0
   -5.2096   -0.9015    0.0016 H   0  0  0  0  0  0  0  0  0  0  0  0
    3.7315    2.7313    0.0001 H   0  0  0  0  0  0  0  0  0  0  0  0
    4.4475   -1.5910   -0.0188 H   0  0  0  0  0  0  0  0  0  0  0  0
    3.0083   -2.3777    0.5122 H   0  0  0  0  0  0  0  0  0  0  0  0
  1 11  2  0  0  0  0
  2  7  1  0  0  0  0
  2 10  1  0  0  0  0
  2 18  1  0  0  0  0
  3  8  1  0  0  0  0
  3 11  1  0  0  0  0
  3 19  1  0  0  0  0
  4 10  2  0  0  0  0
  4 17  1  0  0  0  0
  5 14  1  0  0  0  0
  5 17  2  0  0  0  0
  6 14  1  0  0  0  0
  6 25  1  0  0  0  0
  6 26  1  0  0  0  0
  7  8  1  0  0  0  0
  7 12  2  0  0  0  0
  8 13  2  0  0  0  0
  9 10  1  0  0  0  0
  9 11  1  0  0  0  0
  9 14  2  0  0  0  0
 12 15  1  0  0  0  0
 12 20  1  0  0  0  0
 13 16  1  0  0  0  0
 13 21  1  0  0  0  0
 15 16  2  0  0  0  0
 15 22  1  0  0  0  0
 16 23  1  0  0  0  0
 17 24  1  0  0  0  0
M  END
> <PUBCHEM_COMPOUND_CID>
49830567

> <PUBCHEM_CONFORMER_RMSD>
0.4

> <PUBCHEM_CONFORMER_DIVERSEORDER>
1

> <PUBCHEM_MMFF94_PARTIAL_CHARGES>
26
1 -0.57
10 0.41
11 0.54
12 -0.15
13 -0.15
14 0.41
15 -0.15
16 -0.15
17 0.47
18 0.4
19 0.37
2 -0.6
20 0.15
21 0.15
22 0.15
23 0.15
24 0.15
25 0.4
26 0.4
3 -0.55
4 -0.62
5 -0.62
6 -0.9
7 0.1
8 0.12
9 0.09

> <PUBCHEM_EFFECTIVE_ROTOR_COUNT>
0.4

> <PUBCHEM_PHARMACOPHORE_FEATURES>
10
1 1 acceptor
1 2 donor
1 3 donor
1 6 cation
1 6 donor
3 2 4 10 cation
3 4 5 17 cation
6 4 5 9 10 14 17 rings
6 7 8 12 13 15 16 rings
7 2 3 7 8 9 10 11 rings

> <PUBCHEM_HEAVY_ATOM_COUNT>
17

> <PUBCHEM_ATOM_DEF_STEREO_COUNT>
0

> <PUBCHEM_ATOM_UDEF_STEREO_COUNT>
0

> <PUBCHEM_BOND_DEF_STEREO_COUNT>
0

> <PUBCHEM_BOND_UDEF_STEREO_COUNT>
0

> <PUBCHEM_ISOTOPIC_ATOM_COUNT>
0

> <PUBCHEM_COMPONENT_COUNT>
1

> <PUBCHEM_CACTVS_TAUTO_COUNT>
22

> <PUBCHEM_CONFORMER_ID>
02F85AA700000001

> <PUBCHEM_MMFF94_ENERGY>
85.7834

> <PUBCHEM_FEATURE_SELFOVERLAP>
50.889

> <PUBCHEM_SHAPE_FINGERPRINT>
10062212 137 18340476807809443427
10608611 8 18408882910862371677
10616163 171 18339364192146861015
10967382 1 18410575110448745924
10980938 120 18410575071794092291
11132069 177 18410567388118672873
11471102 20 18410570673826631117
13140716 1 18410291419268904456
13221675 6 18410572877276865519
13380535 76 18408603690564084931
13897977 150 18410008832212272325
14144814 61 18410575080600408721
14251717 144 18411415116047427983
14325111 11 18410856581225720641
15196674 1 18410573985467936261
15219456 202 18408323285266170541
15442244 35 18267585697725661752
15536298 74 18342176661032696964
15775835 57 18341898531988601197
16945 1 18338798884023876261
18186145 218 18343592836315062108
200 152 18130779075905387285
20645477 70 18341891866510633503
21267235 1 18411427180510744815
21501502 16 18411136931152796537
221490 88 18408893940080106914
22854114 111 18409168809449441461
2334 1 18338799042943090372
23402539 116 18271799181108045388
23402655 69 18341891887864286941
23463225 33 18408602556523822676
23559900 14 18341609287764159752
25 1 18408603656024784031
2748010 2 18337676432970491148
2871803 45 18335976541340276423
335352 9 18266458698402137181
5104073 3 18410293605829336273
53812653 166 18413668023772927536
69090 78 18342172306347374071
7364860 26 18341614767762842190
8809292 202 18260554415598271827
9709674 26 18410579508690877607

> <PUBCHEM_SHAPE_MULTIPOLES>
319.08
7.11
2.32
0.59
2.45
0.35
0
-0.93
0
-1.09
0
0.05
-0.01
0

> <PUBCHEM_SHAPE_SELFOVERLAP>
711.689

> <PUBCHEM_SHAPE_VOLUME>
164.5

> <PUBCHEM_COORDINATE_TYPE>
2
5
10

$$$$
