52940797
  -OEChem-10052115163D

 43 45  0     0  0  0  0  0  0999 V2000
    3.8272    0.3024   -1.4381 O   0  0  0  0  0  0  0  0  0  0  0  0
    4.6422   -1.1544    0.7837 O   0  0  0  0  0  0  0  0  0  0  0  0
   -4.7935   -2.1750    0.3998 O   0  0  0  0  0  0  0  0  0  0  0  0
   -2.7369   -0.6843   -0.9281 N   0  0  0  0  0  0  0  0  0  0  0  0
   -1.4911   -1.1937   -0.9144 N   0  0  0  0  0  0  0  0  0  0  0  0
   -3.9701    1.2134   -0.0677 N   0  0  0  0  0  0  0  0  0  0  0  0
   -2.5444    2.6962    1.2435 N   0  0  0  0  0  0  0  0  0  0  0  0
   -0.2225    2.2725    1.5979 N   0  0  0  0  0  0  0  0  0  0  0  0
   -1.5990    0.7531    0.2777 C   0  0  0  0  0  0  0  0  0  0  0  0
   -0.8029   -0.3138   -0.1786 C   0  0  0  0  0  0  0  0  0  0  0  0
   -2.8572    0.4804   -0.2298 C   0  0  0  0  0  0  0  0  0  0  0  0
    0.6009   -0.5284    0.0668 C   0  0  0  0  0  0  0  0  0  0  0  0
   -3.7830   -1.3801   -1.6393 C   0  0  0  0  0  0  0  0  0  0  0  0
   -1.4612    1.9089    1.0393 C   0  0  0  0  0  0  0  0  0  0  0  0
    1.5503   -0.0052   -0.8110 C   0  0  0  0  0  0  0  0  0  0  0  0
    1.0102   -1.2597    1.1818 C   0  0  0  0  0  0  0  0  0  0  0  0
   -4.3028   -2.5890   -0.8691 C   0  0  0  0  0  0  0  0  0  0  0  0
    2.9091   -0.2133   -0.5738 C   0  0  0  0  0  0  0  0  0  0  0  0
    3.3184   -0.9447    0.5411 C   0  0  0  0  0  0  0  0  0  0  0  0
    2.3689   -1.4681    1.4188 C   0  0  0  0  0  0  0  0  0  0  0  0
   -3.7149    2.3052    0.6853 C   0  0  0  0  0  0  0  0  0  0  0  0
    3.8332    1.7186   -1.6078 C   0  0  0  0  0  0  0  0  0  0  0  0
    5.2429    2.1714   -1.9231 C   0  0  0  0  0  0  0  0  0  0  0  0
    4.9762   -1.9125    1.9450 C   0  0  0  0  0  0  0  0  0  0  0  0
   -4.5964   -0.6680   -1.8168 H   0  0  0  0  0  0  0  0  0  0  0  0
   -3.3822   -1.6823   -2.6130 H   0  0  0  0  0  0  0  0  0  0  0  0
    1.2320    0.5586   -1.6854 H   0  0  0  0  0  0  0  0  0  0  0  0
    0.2817   -1.6734    1.8753 H   0  0  0  0  0  0  0  0  0  0  0  0
   -3.5072   -3.3235   -0.7065 H   0  0  0  0  0  0  0  0  0  0  0  0
   -5.1176   -3.0673   -1.4213 H   0  0  0  0  0  0  0  0  0  0  0  0
    2.6131   -2.0452    2.3040 H   0  0  0  0  0  0  0  0  0  0  0  0
   -4.5616    2.9582    0.8684 H   0  0  0  0  0  0  0  0  0  0  0  0
   -0.1663    3.1213    2.1447 H   0  0  0  0  0  0  0  0  0  0  0  0
    0.6021    1.7066    1.4619 H   0  0  0  0  0  0  0  0  0  0  0  0
    3.4865    2.2262   -0.6990 H   0  0  0  0  0  0  0  0  0  0  0  0
    3.1642    1.9797   -2.4349 H   0  0  0  0  0  0  0  0  0  0  0  0
   -5.1166   -2.9718    0.8541 H   0  0  0  0  0  0  0  0  0  0  0  0
    5.9249    1.9012   -1.1100 H   0  0  0  0  0  0  0  0  0  0  0  0
    5.6139    1.6771   -2.8270 H   0  0  0  0  0  0  0  0  0  0  0  0
    5.2820    3.2541   -2.0716 H   0  0  0  0  0  0  0  0  0  0  0  0
    6.0685   -1.9810    1.9818 H   0  0  0  0  0  0  0  0  0  0  0  0
    4.5955   -2.9376    1.8810 H   0  0  0  0  0  0  0  0  0  0  0  0
    4.6585   -1.4059    2.8627 H   0  0  0  0  0  0  0  0  0  0  0  0
  1 18  1  0  0  0  0
  1 22  1  0  0  0  0
  2 19  1  0  0  0  0
  2 24  1  0  0  0  0
  3 17  1  0  0  0  0
  3 37  1  0  0  0  0
  4  5  1  0  0  0  0
  4 11  1  0  0  0  0
  4 13  1  0  0  0  0
  5 10  2  0  0  0  0
  6 11  2  0  0  0  0
  6 21  1  0  0  0  0
  7 14  1  0  0  0  0
  7 21  2  0  0  0  0
  8 14  1  0  0  0  0
  8 33  1  0  0  0  0
  8 34  1  0  0  0  0
  9 10  1  0  0  0  0
  9 11  1  0  0  0  0
  9 14  2  0  0  0  0
 10 12  1  0  0  0  0
 12 15  2  0  0  0  0
 12 16  1  0  0  0  0
 13 17  1  0  0  0  0
 13 25  1  0  0  0  0
 13 26  1  0  0  0  0
 15 18  1  0  0  0  0
 15 27  1  0  0  0  0
 16 20  2  0  0  0  0
 16 28  1  0  0  0  0
 17 29  1  0  0  0  0
 17 30  1  0  0  0  0
 18 19  2  0  0  0  0
 19 20  1  0  0  0  0
 20 31  1  0  0  0  0
 21 32  1  0  0  0  0
 22 23  1  0  0  0  0
 22 35  1  0  0  0  0
 22 36  1  0  0  0  0
 23 38  1  0  0  0  0
 23 39  1  0  0  0  0
 23 40  1  0  0  0  0
 24 41  1  0  0  0  0
 24 42  1  0  0  0  0
 24 43  1  0  0  0  0
M  END
> <PUBCHEM_COMPOUND_CID>
52940797

> <PUBCHEM_CONFORMER_RMSD>
0.8

> <PUBCHEM_CONFORMER_DIVERSEORDER>
2
6
16
29
24
11
23
20
14
12
13
10
26
22
30
27
9
17
15
18
25
21
28
8
7
4
19
1
5
3

> <PUBCHEM_MMFF94_PARTIAL_CHARGES>
29
1 -0.36
10 0.23
11 0.11
12 0.05
13 0.26
14 0.41
15 -0.15
16 -0.15
17 0.28
18 0.08
19 0.08
2 -0.36
20 -0.15
21 0.47
22 0.28
24 0.28
27 0.15
28 0.15
3 -0.68
31 0.15
32 0.15
33 0.4
34 0.4
37 0.4
4 0.31
5 -0.71
6 -0.57
7 -0.62
8 -0.9

> <PUBCHEM_EFFECTIVE_ROTOR_COUNT>
6

> <PUBCHEM_PHARMACOPHORE_FEATURES>
12
1 1 acceptor
1 2 acceptor
1 3 acceptor
1 3 donor
1 5 acceptor
1 8 cation
1 8 donor
3 4 6 11 cation
3 6 7 21 cation
5 4 5 9 10 11 rings
6 12 15 16 18 19 20 rings
6 6 7 9 11 14 21 rings

> <PUBCHEM_HEAVY_ATOM_COUNT>
24

> <PUBCHEM_ATOM_DEF_STEREO_COUNT>
0

> <PUBCHEM_ATOM_UDEF_STEREO_COUNT>
0

> <PUBCHEM_BOND_DEF_STEREO_COUNT>
0

> <PUBCHEM_BOND_UDEF_STEREO_COUNT>
0

> <PUBCHEM_ISOTOPIC_ATOM_COUNT>
0

> <PUBCHEM_COMPONENT_COUNT>
1

> <PUBCHEM_CACTVS_TAUTO_COUNT>
5

> <PUBCHEM_CONFORMER_ID>
0327CFFD00000002

> <PUBCHEM_MMFF94_ENERGY>
72.0896

> <PUBCHEM_FEATURE_SELFOVERLAP>
61.18

> <PUBCHEM_SHAPE_FINGERPRINT>
10319926 262 17629454464320132826
10369192 42 15193011687249363352
10906281 52 18129676180186695529
11049842 53 17914628167765156542
11578080 2 17973969995321304572
11640471 11 18263660501629309004
12236239 1 18262513684946560434
12403259 415 14490478543022837606
12553582 1 18059006328198845071
12616971 3 18114182982222075458
12714826 92 17703792530993026931
12788726 201 18341619269036521239
12916754 54 17894341172740700319
13009979 54 18339077086768523986
13140716 1 18131342043070456441
13583140 156 16987695936671924722
13631057 29 17825959404993777767
13726171 33 17987819486708012040
14739800 52 18270951462729723704
14787075 74 18120385499234403441
15806764 133 16702304567739998048
15842332 3 18335984164522124370
16752209 62 18201706350283367335
17349148 13 18114175307411397826
1813 80 17631728404331005911
18222031 100 17559387153779189895
19377110 9 18408606997799465106
200 152 18114453513786191947
20693207 138 15698006270837688740
20715895 44 17470726603049169493
21033648 144 17603589651339981726
21065201 7 17917428662514461270
22182313 1 16415476034917763800
23402539 116 17916282992456222270
23557571 272 17561078069112040696
23559900 14 17630334043303783614
23598288 3 18343301466303381703
238078 22 18193843862939918919
25147074 1 18335140890954301660
266924 1 18335422404417023510
2748010 2 17915715744005610553
312423 11 18408324384709389038
469060 322 16736388448932497890
474 4 18113345210803251700
495365 180 14996546396452900264
5895379 119 17915190027087047440
6034566 193 16591996193223766140
6049 1 16774076275864455763
633830 44 18187942637814404854
67856867 119 18335133211716566472
7615 1 18335700516476565324
77492 1 18335137540399860242
9981440 41 17975131260721890896

> <PUBCHEM_SHAPE_MULTIPOLES>
451.4
10.72
2.92
1.78
4.28
0.73
-0.05
-1.63
-2.2
-1.07
0.55
1.31
0.28
-4.55

> <PUBCHEM_SHAPE_SELFOVERLAP>
975.121

> <PUBCHEM_SHAPE_VOLUME>
248

> <PUBCHEM_COORDINATE_TYPE>
2
5
10

$$$$
