18458813
  -OEChem-10062121543D

 42 44  0     1  0  0  0  0  0999 V2000
   -1.5399    1.6164   -0.8023 O   0  0  0  0  0  0  0  0  0  0  0  0
   -3.5370   -0.2617    0.6730 N   0  0  2  0  0  0  0  0  0  0  0  0
    1.1395    3.4217    0.8846 N   0  0  0  0  0  0  0  0  0  0  0  0
    0.6260   -3.3161    0.4509 N   0  0  0  0  0  0  0  0  0  0  0  0
   -3.2384   -0.0690   -0.7672 C   0  0  2  0  0  0  0  0  0  0  0  0
   -3.7185   -1.5063   -1.0127 C   0  0  0  0  0  0  0  0  0  0  0  0
   -4.5088   -1.3147    0.2895 C   0  0  0  0  0  0  0  0  0  0  0  0
   -1.7866    0.2366   -1.0810 C   0  0  0  0  0  0  0  0  0  0  0  0
   -4.2801    0.8701    1.2208 C   0  0  0  0  0  0  0  0  0  0  0  0
   -0.2901    1.9548   -0.3997 C   0  0  0  0  0  0  0  0  0  0  0  0
    0.8196    1.2317   -0.8230 C   0  0  0  0  0  0  0  0  0  0  0  0
    2.0891    1.6025   -0.3935 C   0  0  0  0  0  0  0  0  0  0  0  0
    3.3139    0.8387   -0.8343 C   0  0  0  0  0  0  0  0  0  0  0  0
    3.6765   -0.3245    0.1105 C   0  0  0  0  0  0  0  0  0  0  0  0
   -0.0784    3.0317    0.4462 C   0  0  0  0  0  0  0  0  0  0  0  0
    2.1943    2.6950    0.4520 C   0  0  0  0  0  0  0  0  0  0  0  0
    2.6155   -1.3651    0.2290 C   0  0  0  0  0  0  0  0  0  0  0  0
    1.6341   -1.2532    1.2076 C   0  0  0  0  0  0  0  0  0  0  0  0
    2.6032   -2.4514   -0.6389 C   0  0  0  0  0  0  0  0  0  0  0  0
    0.6703   -2.2462    1.2762 C   0  0  0  0  0  0  0  0  0  0  0  0
    1.5961   -3.3909   -0.4877 C   0  0  0  0  0  0  0  0  0  0  0  0
   -3.8966    0.6509   -1.2796 H   0  0  0  0  0  0  0  0  0  0  0  0
   -4.3111   -1.6721   -1.9157 H   0  0  0  0  0  0  0  0  0  0  0  0
   -2.9356   -2.2714   -0.9474 H   0  0  0  0  0  0  0  0  0  0  0  0
   -5.5439   -0.9885    0.1230 H   0  0  0  0  0  0  0  0  0  0  0  0
   -4.5224   -2.1841    0.9540 H   0  0  0  0  0  0  0  0  0  0  0  0
   -1.1416   -0.4269   -0.4913 H   0  0  0  0  0  0  0  0  0  0  0  0
   -1.5921    0.0629   -2.1457 H   0  0  0  0  0  0  0  0  0  0  0  0
   -5.1167    1.2018    0.5938 H   0  0  0  0  0  0  0  0  0  0  0  0
   -3.6063    1.7230    1.3556 H   0  0  0  0  0  0  0  0  0  0  0  0
   -4.6772    0.6135    2.2090 H   0  0  0  0  0  0  0  0  0  0  0  0
    0.7241    0.3989   -1.5140 H   0  0  0  0  0  0  0  0  0  0  0  0
    4.1658    1.5273   -0.9001 H   0  0  0  0  0  0  0  0  0  0  0  0
    3.1566    0.4600   -1.8528 H   0  0  0  0  0  0  0  0  0  0  0  0
    4.6067   -0.7883   -0.2432 H   0  0  0  0  0  0  0  0  0  0  0  0
    3.9122    0.0712    1.1078 H   0  0  0  0  0  0  0  0  0  0  0  0
   -0.9082    3.6305    0.8083 H   0  0  0  0  0  0  0  0  0  0  0  0
    3.1577    3.0312    0.8224 H   0  0  0  0  0  0  0  0  0  0  0  0
    1.6145   -0.4247    1.9075 H   0  0  0  0  0  0  0  0  0  0  0  0
    3.3515   -2.5689   -1.4152 H   0  0  0  0  0  0  0  0  0  0  0  0
   -0.1174   -2.2052    2.0213 H   0  0  0  0  0  0  0  0  0  0  0  0
    1.5412   -4.2561   -1.1401 H   0  0  0  0  0  0  0  0  0  0  0  0
  1  8  1  0  0  0  0
  1 10  1  0  0  0  0
  2  5  1  0  0  0  0
  2  7  1  0  0  0  0
  2  9  1  0  0  0  0
  3 15  1  0  0  0  0
  3 16  2  0  0  0  0
  4 20  2  0  0  0  0
  4 21  1  0  0  0  0
  5  6  1  0  0  0  0
  5  8  1  0  0  0  0
  5 22  1  0  0  0  0
  6  7  1  0  0  0  0
  6 23  1  0  0  0  0
  6 24  1  0  0  0  0
  7 25  1  0  0  0  0
  7 26  1  0  0  0  0
  8 27  1  0  0  0  0
  8 28  1  0  0  0  0
  9 29  1  0  0  0  0
  9 30  1  0  0  0  0
  9 31  1  0  0  0  0
 10 11  1  0  0  0  0
 10 15  2  0  0  0  0
 11 12  2  0  0  0  0
 11 32  1  0  0  0  0
 12 13  1  0  0  0  0
 12 16  1  0  0  0  0
 13 14  1  0  0  0  0
 13 33  1  0  0  0  0
 13 34  1  0  0  0  0
 14 17  1  0  0  0  0
 14 35  1  0  0  0  0
 14 36  1  0  0  0  0
 15 37  1  0  0  0  0
 16 38  1  0  0  0  0
 17 18  2  0  0  0  0
 17 19  1  0  0  0  0
 18 20  1  0  0  0  0
 18 39  1  0  0  0  0
 19 21  2  0  0  0  0
 19 40  1  0  0  0  0
 20 41  1  0  0  0  0
 21 42  1  0  0  0  0
M  END
> <PUBCHEM_COMPOUND_CID>
18458813

> <PUBCHEM_CONFORMER_RMSD>
1

> <PUBCHEM_CONFORMER_DIVERSEORDER>
2
67
5
3
73
99
72
35
6
10
117
52
14
101
54
74
59
69
16
30
20
89
11
102
29
83
96
95
125
18
121
25
93
53
86
12
100
97
15
50
81
22
80
61
119
8
78
45
40
43
32
85
77
49
56
51
55
1
123
26
110
107
106
98
21
41
92
84
115
38
120
126
48
76
34
66
17
37
75
116
31
39
88
87
109
44
68
111
63
46
91
113
108
105
36
33
57
60
28
27
9
103
62
19
104
79
118
64
90
112
23
4
82
13
58
70
47
94
124
122
114
71
24
42
65
7

> <PUBCHEM_MMFF94_PARTIAL_CHARGES>
27
1 -0.36
10 0.08
11 -0.15
12 -0.14
13 0.14
14 0.14
15 0.16
16 0.16
17 -0.14
18 -0.15
19 -0.15
2 -0.69
20 0.16
21 0.16
3 -0.62
32 0.15
37 0.15
38 0.15
39 0.15
4 -0.62
40 0.15
41 0.15
42 0.15
5 0.21
7 0.21
8 0.28
9 0.27

> <PUBCHEM_EFFECTIVE_ROTOR_COUNT>
6.8

> <PUBCHEM_PHARMACOPHORE_FEATURES>
7
1 1 acceptor
1 2 cation
1 3 acceptor
1 4 acceptor
4 2 5 6 7 rings
6 3 10 11 12 15 16 rings
6 4 17 18 19 20 21 rings

> <PUBCHEM_HEAVY_ATOM_COUNT>
21

> <PUBCHEM_ATOM_DEF_STEREO_COUNT>
0

> <PUBCHEM_ATOM_UDEF_STEREO_COUNT>
1

> <PUBCHEM_BOND_DEF_STEREO_COUNT>
0

> <PUBCHEM_BOND_UDEF_STEREO_COUNT>
0

> <PUBCHEM_ISOTOPIC_ATOM_COUNT>
0

> <PUBCHEM_COMPONENT_COUNT>
1

> <PUBCHEM_CACTVS_TAUTO_COUNT>
1

> <PUBCHEM_CONFORMER_ID>
0119A8BD00000002

> <PUBCHEM_MMFF94_ENERGY>
68.88

> <PUBCHEM_FEATURE_SELFOVERLAP>
35.522

> <PUBCHEM_SHAPE_FINGERPRINT>
10064457 181 18120945172069996061
12035758 1 18267290118878438864
12506688 2 18337105666197885125
12553582 1 18339074870196036455
12596599 1 18130241349762495971
13140716 1 18192426587813454250
13402501 40 18042131019171596755
13533116 47 18412545436324937615
14178342 30 18122333580995402216
14251705 54 18337387124015864606
14787075 74 18334860532732404678
15635459 17 18260824899890899727
17492 54 18113906017372495590
20291156 8 18266460897362114871
20645477 70 18263907956385924077
21197605 99 17615695467630828515
21421861 104 18265348217401993937
21427221 339 17914920659353658089
2255824 54 18193279808631347925
238 59 18263359368518446427
3323516 105 18334294313966018457
3737641 26 18197790907535218278
392239 28 18268690784959570856
59682541 52 18049686786538162543
6287921 2 18201431540779603059
6443956 14 18409168783727500365
7097593 13 18342746182845659633
81228 2 17185004203960006636

> <PUBCHEM_SHAPE_MULTIPOLES>
411.36
7.22
4.36
1.19
8.1
0.16
0.11
1.96
0.12
-2.9
0.62
0.36
0.1
-0.24

> <PUBCHEM_SHAPE_SELFOVERLAP>
869.768

> <PUBCHEM_SHAPE_VOLUME>
230

> <PUBCHEM_COORDINATE_TYPE>
2
5
10

$$$$
