6455415
  -OEChem-10052120443D

 28 30  0     0  0  0  0  0  0999 V2000
   -4.9294   -0.8168    1.8802 F   0  0  0  0  0  0  0  0  0  0  0  0
    0.0611    0.2194   -0.1316 N   0  0  0  0  0  0  0  0  0  0  0  0
    2.3583   -1.8270   -0.2122 N   0  0  0  0  0  0  0  0  0  0  0  0
    1.8423    1.7927    0.1854 N   0  0  0  0  0  0  0  0  0  0  0  0
    4.5107   -1.2909    0.0068 N   0  0  0  0  0  0  0  0  0  0  0  0
    4.1809    1.1032    0.2708 N   0  0  0  0  0  0  0  0  0  0  0  0
   -0.9672    1.2169   -0.0856 C   0  0  0  0  0  0  0  0  0  0  0  0
    2.3877   -0.4714   -0.0474 C   0  0  0  0  0  0  0  0  0  0  0  0
    1.4268    0.5192    0.0026 C   0  0  0  0  0  0  0  0  0  0  0  0
   -2.3235    0.5826   -0.2223 C   0  0  0  0  0  0  0  0  0  0  0  0
    3.7348   -0.1627    0.0865 C   0  0  0  0  0  0  0  0  0  0  0  0
   -3.0055    0.1714    0.9155 C   0  0  0  0  0  0  0  0  0  0  0  0
   -2.8775    0.4149   -1.4848 C   0  0  0  0  0  0  0  0  0  0  0  0
    3.6531   -2.2726   -0.1726 C   0  0  0  0  0  0  0  0  0  0  0  0
   -4.2634   -0.4177    0.7887 C   0  0  0  0  0  0  0  0  0  0  0  0
   -4.1354   -0.1741   -1.6117 C   0  0  0  0  0  0  0  0  0  0  0  0
    3.1747    2.0032    0.3065 C   0  0  0  0  0  0  0  0  0  0  0  0
   -4.8284   -0.5904   -0.4749 C   0  0  0  0  0  0  0  0  0  0  0  0
   -0.8236    1.9528   -0.8871 H   0  0  0  0  0  0  0  0  0  0  0  0
   -0.9195    1.7755    0.8580 H   0  0  0  0  0  0  0  0  0  0  0  0
   -0.1891   -0.7538   -0.2703 H   0  0  0  0  0  0  0  0  0  0  0  0
    1.5346   -2.3996   -0.3402 H   0  0  0  0  0  0  0  0  0  0  0  0
   -2.5741    0.2994    1.9042 H   0  0  0  0  0  0  0  0  0  0  0  0
   -2.3454    0.7337   -2.3767 H   0  0  0  0  0  0  0  0  0  0  0  0
    3.8996   -3.3192   -0.2804 H   0  0  0  0  0  0  0  0  0  0  0  0
   -4.5751   -0.3092   -2.5955 H   0  0  0  0  0  0  0  0  0  0  0  0
    3.4731    3.0359    0.4521 H   0  0  0  0  0  0  0  0  0  0  0  0
   -5.8079   -1.0490   -0.5733 H   0  0  0  0  0  0  0  0  0  0  0  0
  1 15  1  0  0  0  0
  2  7  1  0  0  0  0
  2  9  1  0  0  0  0
  2 21  1  0  0  0  0
  3  8  1  0  0  0  0
  3 14  1  0  0  0  0
  3 22  1  0  0  0  0
  4  9  2  0  0  0  0
  4 17  1  0  0  0  0
  5 11  1  0  0  0  0
  5 14  2  0  0  0  0
  6 11  1  0  0  0  0
  6 17  2  0  0  0  0
  7 10  1  0  0  0  0
  7 19  1  0  0  0  0
  7 20  1  0  0  0  0
  8  9  1  0  0  0  0
  8 11  2  0  0  0  0
 10 12  2  0  0  0  0
 10 13  1  0  0  0  0
 12 15  1  0  0  0  0
 12 23  1  0  0  0  0
 13 16  2  0  0  0  0
 13 24  1  0  0  0  0
 14 25  1  0  0  0  0
 15 18  2  0  0  0  0
 16 18  1  0  0  0  0
 16 26  1  0  0  0  0
 17 27  1  0  0  0  0
 18 28  1  0  0  0  0
M  END
> <PUBCHEM_COMPOUND_CID>
6455415

> <PUBCHEM_CONFORMER_RMSD>
0.6

> <PUBCHEM_CONFORMER_DIVERSEORDER>
1
37
30
33
36
23
32
50
38
27
9
35
45
2
53
44
7
39
17
54
11
40
14
20
52
5
24
47
34
49
19
41
28
16
13
26
48
10
21
6
42
29
15
8
22
3
46
31
18
25
4
43
12
51

> <PUBCHEM_MMFF94_PARTIAL_CHARGES>
26
1 -0.19
10 -0.14
11 0.48
12 -0.15
13 -0.15
14 0.04
15 0.19
16 -0.15
17 0.47
18 -0.15
2 -0.87
21 0.4
22 0.27
23 0.15
24 0.15
25 0.15
26 0.15
27 0.15
28 0.15
3 0.03
4 -0.62
5 -0.57
6 -0.57
7 0.51
8 -0.15
9 0.41

> <PUBCHEM_EFFECTIVE_ROTOR_COUNT>
3

> <PUBCHEM_PHARMACOPHORE_FEATURES>
8
1 2 donor
1 3 donor
3 2 4 9 cation
3 3 5 14 cation
3 4 6 17 cation
5 3 5 8 11 14 rings
6 10 12 13 15 16 18 rings
6 4 6 8 9 11 17 rings

> <PUBCHEM_HEAVY_ATOM_COUNT>
18

> <PUBCHEM_ATOM_DEF_STEREO_COUNT>
0

> <PUBCHEM_ATOM_UDEF_STEREO_COUNT>
0

> <PUBCHEM_BOND_DEF_STEREO_COUNT>
0

> <PUBCHEM_BOND_UDEF_STEREO_COUNT>
0

> <PUBCHEM_ISOTOPIC_ATOM_COUNT>
0

> <PUBCHEM_COMPONENT_COUNT>
1

> <PUBCHEM_CACTVS_TAUTO_COUNT>
8

> <PUBCHEM_CONFORMER_ID>
0062807700000001

> <PUBCHEM_MMFF94_ENERGY>
39.1992

> <PUBCHEM_FEATURE_SELFOVERLAP>
40.84

> <PUBCHEM_SHAPE_FINGERPRINT>
10912923 1 17418092152466013305
11405975 8 18265610996554902625
11552529 35 17843404235559136287
11796584 16 16951678087556084954
12107183 9 17626117342990901945
12236239 1 17489869353574249965
12596602 18 16845287280319440203
13167823 11 18060416923938065663
13533116 47 18273212023880514219
13544653 18 18409449185041501869
13631057 29 17555438892842813567
13862211 1 18340199671488459302
13955234 65 18341327886076382128
14252887 29 18334576862611012104
14386348 63 17967814951040629243
14849402 71 17346021403671610024
15375462 189 17918273164263329273
15961568 22 16226333732714053604
17844677 252 18412265025788466781
17870717 6 17167864136939773055
18186145 218 17676767591543911121
19050596 39 17489869340884325593
19078846 21 16487256568899543297
193927 3 18339649927767935678
200 152 18272643550467313981
20279233 1 17822287989713001121
20281475 54 18131624612778316181
20432913 95 18412824694381098851
20645477 70 18338505378880849054
21065198 48 17917714604172614353
21065201 7 17022893536932610417
221490 88 18337108956628052500
22646028 1 17989200447679058413
22646028 28 18059849554410562279
23557571 272 17531515525725232877
23559900 14 17530675481450271348
23596394 208 18040987410797762974
239999 70 17967814968267919432
2871803 45 18187078421305629538
312423 11 18342471304569515476
314194 84 18342173324355376182
3268164 11 16008739230615370687
33824 294 18409725175734949826
4921388 177 16732991903586480379
5104073 3 18339077094968309376
5281201 14 18040715857253743228
5352402 22 18336559269454585083
573450 72 16774076276391820509
9709674 26 18260548956726298539

> <PUBCHEM_SHAPE_MULTIPOLES>
338.25
11.44
1.8
1.13
4.16
0.19
0.03
3.26
0.87
-2.82
0.04
2.1
0.13
0.57

> <PUBCHEM_SHAPE_SELFOVERLAP>
746.586

> <PUBCHEM_SHAPE_VOLUME>
183.2

> <PUBCHEM_COORDINATE_TYPE>
2
5
10

$$$$
