4475481
  -OEChem-10052115143D

 53 55  0     1  0  0  0  0  0999 V2000
   -5.8523    2.9133   -0.6042 Cl  0  0  0  0  0  0  0  0  0  0  0  0
    0.2664    2.6924    0.5885 Cl  0  0  0  0  0  0  0  0  0  0  0  0
    3.3476   -0.3559   -1.5169 O   0  0  0  0  0  0  0  0  0  0  0  0
    5.7935    0.8975   -2.0686 O   0  0  0  0  0  0  0  0  0  0  0  0
    6.2251    0.3921    1.5741 N   0  0  0  0  0  0  0  0  0  0  0  0
   -1.3137   -3.0377   -0.1006 N   0  0  0  0  0  0  0  0  0  0  0  0
   -4.3637    0.5172    0.5386 N   0  0  0  0  0  0  0  0  0  0  0  0
   -2.8115   -1.2588    0.2119 N   0  0  0  0  0  0  0  0  0  0  0  0
   -3.5171   -3.5411    0.5296 N   0  0  0  0  0  0  0  0  0  0  0  0
    5.3489    0.7067   -0.7223 C   0  0  2  0  0  0  0  0  0  0  0  0
    6.5816    0.6254    0.1812 C   0  0  0  0  0  0  0  0  0  0  0  0
    4.4776   -0.5463   -0.6710 C   0  0  0  0  0  0  0  0  0  0  0  0
    5.4267    1.5032    2.0964 C   0  0  0  0  0  0  0  0  0  0  0  0
    7.4261    0.2040    2.3907 C   0  0  0  0  0  0  0  0  0  0  0  0
    2.1999   -1.0161   -1.1681 C   0  0  0  0  0  0  0  0  0  0  0  0
    2.2806   -2.2319   -0.4975 C   0  0  0  0  0  0  0  0  0  0  0  0
    0.9637   -0.4652   -1.4879 C   0  0  0  0  0  0  0  0  0  0  0  0
   -0.1316   -2.3575   -0.4602 C   0  0  0  0  0  0  0  0  0  0  0  0
    1.1114   -2.9046   -0.1426 C   0  0  0  0  0  0  0  0  0  0  0  0
   -0.2056   -1.1377   -1.1330 C   0  0  0  0  0  0  0  0  0  0  0  0
   -2.6082   -2.5916    0.2291 C   0  0  0  0  0  0  0  0  0  0  0  0
   -4.0620   -0.8667    0.5321 C   0  0  0  0  0  0  0  0  0  0  0  0
   -3.5906    1.6570    0.2642 C   0  0  0  0  0  0  0  0  0  0  0  0
   -5.0796   -1.7401    0.8578 C   0  0  0  0  0  0  0  0  0  0  0  0
   -4.1614    2.8209   -0.2632 C   0  0  0  0  0  0  0  0  0  0  0  0
   -2.2166    1.6243    0.5259 C   0  0  0  0  0  0  0  0  0  0  0  0
   -4.7461   -3.0789    0.8401 C   0  0  0  0  0  0  0  0  0  0  0  0
   -1.4230    2.7410    0.2636 C   0  0  0  0  0  0  0  0  0  0  0  0
   -3.3677    3.9376   -0.5255 C   0  0  0  0  0  0  0  0  0  0  0  0
   -1.9985    3.8976   -0.2621 C   0  0  0  0  0  0  0  0  0  0  0  0
    4.7364    1.5863   -0.4967 H   0  0  0  0  0  0  0  0  0  0  0  0
    7.2172   -0.1930   -0.1844 H   0  0  0  0  0  0  0  0  0  0  0  0
    7.1833    1.5376    0.0659 H   0  0  0  0  0  0  0  0  0  0  0  0
    4.1693   -0.7203    0.3664 H   0  0  0  0  0  0  0  0  0  0  0  0
    5.0415   -1.4103   -1.0424 H   0  0  0  0  0  0  0  0  0  0  0  0
    4.4337    1.5453    1.6388 H   0  0  0  0  0  0  0  0  0  0  0  0
    5.9222    2.4716    1.9612 H   0  0  0  0  0  0  0  0  0  0  0  0
    5.2433    1.3679    3.1692 H   0  0  0  0  0  0  0  0  0  0  0  0
    8.0087   -0.6500    2.0275 H   0  0  0  0  0  0  0  0  0  0  0  0
    7.1552   -0.0219    3.4281 H   0  0  0  0  0  0  0  0  0  0  0  0
    8.0716    1.0898    2.3866 H   0  0  0  0  0  0  0  0  0  0  0  0
    6.3114    1.7202   -2.0930 H   0  0  0  0  0  0  0  0  0  0  0  0
    3.2271   -2.7068   -0.2579 H   0  0  0  0  0  0  0  0  0  0  0  0
    0.9023    0.4790   -2.0217 H   0  0  0  0  0  0  0  0  0  0  0  0
    1.1821   -3.8572    0.3765 H   0  0  0  0  0  0  0  0  0  0  0  0
   -1.1484   -0.6994   -1.4421 H   0  0  0  0  0  0  0  0  0  0  0  0
   -1.1910   -4.0328    0.0615 H   0  0  0  0  0  0  0  0  0  0  0  0
   -5.3628    0.7021    0.4893 H   0  0  0  0  0  0  0  0  0  0  0  0
   -6.0798   -1.4139    1.1143 H   0  0  0  0  0  0  0  0  0  0  0  0
   -1.7466    0.7573    0.9800 H   0  0  0  0  0  0  0  0  0  0  0  0
   -5.4798   -3.8401    1.0827 H   0  0  0  0  0  0  0  0  0  0  0  0
   -3.8007    4.8467   -0.9352 H   0  0  0  0  0  0  0  0  0  0  0  0
   -1.3924    4.7752   -0.4715 H   0  0  0  0  0  0  0  0  0  0  0  0
  1 25  1  0  0  0  0
  2 28  1  0  0  0  0
  3 12  1  0  0  0  0
  3 15  1  0  0  0  0
  4 10  1  0  0  0  0
  4 42  1  0  0  0  0
  5 11  1  0  0  0  0
  5 13  1  0  0  0  0
  5 14  1  0  0  0  0
  6 18  1  0  0  0  0
  6 21  1  0  0  0  0
  6 47  1  0  0  0  0
  7 22  1  0  0  0  0
  7 23  1  0  0  0  0
  7 48  1  0  0  0  0
  8 21  1  0  0  0  0
  8 22  2  0  0  0  0
  9 21  2  0  0  0  0
  9 27  1  0  0  0  0
 10 11  1  0  0  0  0
 10 12  1  0  0  0  0
 10 31  1  0  0  0  0
 11 32  1  0  0  0  0
 11 33  1  0  0  0  0
 12 34  1  0  0  0  0
 12 35  1  0  0  0  0
 13 36  1  0  0  0  0
 13 37  1  0  0  0  0
 13 38  1  0  0  0  0
 14 39  1  0  0  0  0
 14 40  1  0  0  0  0
 14 41  1  0  0  0  0
 15 16  2  0  0  0  0
 15 17  1  0  0  0  0
 16 19  1  0  0  0  0
 16 43  1  0  0  0  0
 17 20  2  0  0  0  0
 17 44  1  0  0  0  0
 18 19  2  0  0  0  0
 18 20  1  0  0  0  0
 19 45  1  0  0  0  0
 20 46  1  0  0  0  0
 22 24  1  0  0  0  0
 23 25  2  0  0  0  0
 23 26  1  0  0  0  0
 24 27  2  0  0  0  0
 24 49  1  0  0  0  0
 25 29  1  0  0  0  0
 26 28  2  0  0  0  0
 26 50  1  0  0  0  0
 27 51  1  0  0  0  0
 28 30  1  0  0  0  0
 29 30  2  0  0  0  0
 29 52  1  0  0  0  0
 30 53  1  0  0  0  0
M  END
> <PUBCHEM_COMPOUND_CID>
4475481

> <PUBCHEM_CONFORMER_RMSD>
1.2

> <PUBCHEM_CONFORMER_DIVERSEORDER>
3
322
319
225
362
228
602
62
141
182
356
172
73
487
113
121
97
92
486
383
273
615
313
243
192
495
69
226
206
270
29
185
540
72
58
229
260
483
233
285
408
338
186
315
493
455
357
130
230
296
284
176
211
542
348
600
126
156
194
133
83
8
417
512
128
328
154
287
340
442
95
164
123
227
482
66
269
137
318
539
508
7
578
426
474
4
207
514
382
48
63
371
496
489
5
509
147
231
292
20
112
522
431
332
46
80
151
93
236
548
76
90
551
278
220
240
54
125
409
237
153
247
450
122
1
422
255
85
103
257
10
314
28
162
198
23
534
33
109
471
124
53
510
249
353
99
31
375
488
279
108
174
149
460
193
71
272
70
300
251
51
499
36
27
256
40
55
178
262
320
138
511
19
259
281
41
89
38
581
79
9
50
61
26
100
12
15
13
60

> <PUBCHEM_MMFF94_PARTIAL_CHARGES>
42
1 -0.18
10 0.28
11 0.27
12 0.28
13 0.27
14 0.27
15 0.08
16 -0.15
17 -0.15
18 0.1
19 -0.15
2 -0.18
20 -0.15
21 0.72
22 0.41
23 0.1
24 -0.15
25 0.18
26 -0.15
27 0.16
28 0.18
29 -0.15
3 -0.36
30 -0.15
4 -0.68
42 0.4
43 0.15
44 0.15
45 0.15
46 0.15
47 0.4
48 0.4
49 0.15
5 -0.81
50 0.15
51 0.15
52 0.15
53 0.15
6 -0.6
7 -0.6
8 -0.62
9 -0.62

> <PUBCHEM_EFFECTIVE_ROTOR_COUNT>
9

> <PUBCHEM_PHARMACOPHORE_FEATURES>
10
1 3 acceptor
1 4 acceptor
1 4 donor
1 5 cation
1 6 donor
1 7 donor
4 6 8 9 21 cation
6 15 16 17 18 19 20 rings
6 23 25 26 28 29 30 rings
6 8 9 21 22 24 27 rings

> <PUBCHEM_HEAVY_ATOM_COUNT>
30

> <PUBCHEM_ATOM_DEF_STEREO_COUNT>
0

> <PUBCHEM_ATOM_UDEF_STEREO_COUNT>
1

> <PUBCHEM_BOND_DEF_STEREO_COUNT>
0

> <PUBCHEM_BOND_UDEF_STEREO_COUNT>
0

> <PUBCHEM_ISOTOPIC_ATOM_COUNT>
0

> <PUBCHEM_COMPONENT_COUNT>
1

> <PUBCHEM_CACTVS_TAUTO_COUNT>
9

> <PUBCHEM_CONFORMER_ID>
00444A5900000003

> <PUBCHEM_MMFF94_ENERGY>
107.8616

> <PUBCHEM_FEATURE_SELFOVERLAP>
50.75

> <PUBCHEM_SHAPE_FINGERPRINT>
10049733 57 18058158600127658816
10290309 65 18270131119043163583
10319926 262 18411135806462598494
10670039 82 18265359303382011566
10864689 126 18128541466331812772
10939801 23 18122061173000900840
11135609 187 18121217581384354661
11370993 70 17758124696579891373
12107183 9 17899694562203310298
12596602 18 17386568089093635234
12788726 201 18189064247128130882
12838862 33 18410289195536219305
13402501 40 18201722868152418800
13561361 72 18341048622844584136
138480 1 15740792250131323663
13947947 74 18268989779420053157
14028597 1 17749101227356583090
14040221 97 17843397643169713128
14289278 72 18266171744192525066
14466204 15 18409452513757103170
14725015 67 18265610069189905867
14739800 52 18338787927979542818
14765038 42 17913516583168836737
15328684 2 17894909651372209208
21133410 221 17914866924876140776
21360443 126 18408602539566000109
21859007 373 18271528607512927206
23559900 14 18124327003744391430
3117164 225 18046339739514539082
392239 28 18338807817624586251
44249763 50 17774712160587566334
469060 322 18266199351107550179
50150288 127 15982591589533341785
508706 21 18342450465319493576
9981440 41 18261965050536336235

> <PUBCHEM_SHAPE_MULTIPOLES>
584.48
16.2
5.25
1.54
24.96
0.69
0.28
6.02
5.82
-9.16
0.15
3.3
0.19
2.62

> <PUBCHEM_SHAPE_SELFOVERLAP>
1218.994

> <PUBCHEM_SHAPE_VOLUME>
332.4

> <PUBCHEM_COORDINATE_TYPE>
2
5
10

$$$$
