44340974
  -OEChem-10052115143D

 73 79  0     1  0  0  0  0  0999 V2000
   -4.0919   -0.8809    0.5194 O   0  0  0  0  0  0  0  0  0  0  0  0
   -2.5205    1.0938   -2.1660 O   0  0  0  0  0  0  0  0  0  0  0  0
   -4.8508    2.1213   -1.0860 O   0  0  0  0  0  0  0  0  0  0  0  0
   -7.1555    0.5343   -0.9344 O   0  0  0  0  0  0  0  0  0  0  0  0
   -5.8291   -1.4320    2.5732 O   0  0  0  0  0  0  0  0  0  0  0  0
    3.2580   -2.9509    0.4821 O   0  0  0  0  0  0  0  0  0  0  0  0
    4.3299    1.5601    0.6792 O   0  0  0  0  0  0  0  0  0  0  0  0
   -3.2040   -5.4418   -0.2248 O   0  0  0  0  0  0  0  0  0  0  0  0
   -2.1503    4.7122    0.0748 O   0  0  0  0  0  0  0  0  0  0  0  0
    2.3574    6.1882    0.5651 O   0  0  0  0  0  0  0  0  0  0  0  0
    7.0058   -3.3849    0.0811 O   0  0  0  0  0  0  0  0  0  0  0  0
    7.0414    0.0361   -2.3976 O   0  0  0  0  0  0  0  0  0  0  0  0
   -1.7677   -0.7812    0.0096 N   0  0  0  0  0  0  0  0  0  0  0  0
   -1.1258    1.9232    0.1265 N   0  0  0  0  0  0  0  0  0  0  0  0
    4.1687   -0.7861    0.6170 N   0  0  0  0  0  0  0  0  0  0  0  0
    5.4953   -1.1154    0.7467 N   0  0  0  0  0  0  0  0  0  0  0  0
   -3.0974   -0.0627   -0.1114 C   0  0  1  0  0  0  0  0  0  0  0  0
   -3.4705    0.2090   -1.5806 C   0  0  1  0  0  0  0  0  0  0  0  0
   -0.4835   -0.3811    0.1484 C   0  0  0  0  0  0  0  0  0  0  0  0
   -4.8714    0.8194   -1.6787 C   0  0  1  0  0  0  0  0  0  0  0  0
   -5.8674   -0.0684   -0.9295 C   0  0  1  0  0  0  0  0  0  0  0  0
    0.6107   -1.3051    0.2428 C   0  0  0  0  0  0  0  0  0  0  0  0
   -5.4000   -0.3005    0.5134 C   0  0  1  0  0  0  0  0  0  0  0  0
   -1.6125   -2.1592   -0.0008 C   0  0  0  0  0  0  0  0  0  0  0  0
   -0.1605    0.9798    0.2074 C   0  0  0  0  0  0  0  0  0  0  0  0
   -0.2266   -2.5088    0.1342 C   0  0  0  0  0  0  0  0  0  0  0  0
    1.9533   -0.9659    0.3866 C   0  0  0  0  0  0  0  0  0  0  0  0
    1.2297    1.3035    0.3560 C   0  0  0  0  0  0  0  0  0  0  0  0
    2.2744    0.3877    0.4455 C   0  0  0  0  0  0  0  0  0  0  0  0
    1.0238    2.7593    0.3627 C   0  0  0  0  0  0  0  0  0  0  0  0
   -6.3257   -1.2570    1.2588 C   0  0  0  0  0  0  0  0  0  0  0  0
   -0.3688    3.0809    0.2260 C   0  0  0  0  0  0  0  0  0  0  0  0
    3.1828   -1.7383    0.4979 C   0  0  0  0  0  0  0  0  0  0  0  0
   -2.6126   -3.1361   -0.1212 C   0  0  0  0  0  0  0  0  0  0  0  0
    3.7171    0.5144    0.5958 C   0  0  0  0  0  0  0  0  0  0  0  0
    0.0932   -3.8881    0.1409 C   0  0  0  0  0  0  0  0  0  0  0  0
   -2.2434   -4.4816   -0.1087 C   0  0  0  0  0  0  0  0  0  0  0  0
   -0.9118   -4.8540    0.0202 C   0  0  0  0  0  0  0  0  0  0  0  0
    1.9281    3.8427    0.4763 C   0  0  0  0  0  0  0  0  0  0  0  0
   -0.8216    4.4088    0.2048 C   0  0  0  0  0  0  0  0  0  0  0  0
    1.4658    5.1630    0.4540 C   0  0  0  0  0  0  0  0  0  0  0  0
    6.1137   -1.2381   -0.5667 C   0  0  0  0  0  0  0  0  0  0  0  0
    0.1116    5.4396    0.3203 C   0  0  0  0  0  0  0  0  0  0  0  0
    7.3609   -2.1145   -0.4507 C   0  0  0  0  0  0  0  0  0  0  0  0
    6.4476    0.1549   -1.1096 C   0  0  0  0  0  0  0  0  0  0  0  0
   -3.0565    0.7799    0.5694 H   0  0  0  0  0  0  0  0  0  0  0  0
   -3.4505   -0.7312   -2.1456 H   0  0  0  0  0  0  0  0  0  0  0  0
   -5.1715    0.9624   -2.7220 H   0  0  0  0  0  0  0  0  0  0  0  0
   -5.9407   -1.0325   -1.4486 H   0  0  0  0  0  0  0  0  0  0  0  0
   -5.3710    0.6345    1.0869 H   0  0  0  0  0  0  0  0  0  0  0  0
   -2.0820    1.9219   -0.1627 H   0  0  0  0  0  0  0  0  0  0  0  0
   -6.3421   -2.2394    0.7752 H   0  0  0  0  0  0  0  0  0  0  0  0
   -7.3456   -0.8653    1.3181 H   0  0  0  0  0  0  0  0  0  0  0  0
   -3.6561   -2.8934   -0.2779 H   0  0  0  0  0  0  0  0  0  0  0  0
    1.1223   -4.2183    0.2397 H   0  0  0  0  0  0  0  0  0  0  0  0
   -2.7911    1.2459   -3.0874 H   0  0  0  0  0  0  0  0  0  0  0  0
   -4.5222    2.0672   -0.1758 H   0  0  0  0  0  0  0  0  0  0  0  0
   -7.4121    0.6695   -1.8625 H   0  0  0  0  0  0  0  0  0  0  0  0
   -0.6381   -5.9063    0.0283 H   0  0  0  0  0  0  0  0  0  0  0  0
    2.9913    3.6516    0.5817 H   0  0  0  0  0  0  0  0  0  0  0  0
    5.5401   -2.0077    1.2389 H   0  0  0  0  0  0  0  0  0  0  0  0
    5.4409   -1.7541   -1.2665 H   0  0  0  0  0  0  0  0  0  0  0  0
   -6.4289   -2.0482    3.0271 H   0  0  0  0  0  0  0  0  0  0  0  0
   -0.2204    6.4757    0.3060 H   0  0  0  0  0  0  0  0  0  0  0  0
   -4.0741   -5.0139   -0.3009 H   0  0  0  0  0  0  0  0  0  0  0  0
    8.1074   -1.6600    0.2105 H   0  0  0  0  0  0  0  0  0  0  0  0
    7.8195   -2.2757   -1.4318 H   0  0  0  0  0  0  0  0  0  0  0  0
    5.5545    0.7641   -1.2537 H   0  0  0  0  0  0  0  0  0  0  0  0
    7.1446    0.6875   -0.4533 H   0  0  0  0  0  0  0  0  0  0  0  0
   -2.2537    5.6793    0.0824 H   0  0  0  0  0  0  0  0  0  0  0  0
    3.2538    5.8205    0.6501 H   0  0  0  0  0  0  0  0  0  0  0  0
    7.8229   -3.9090    0.1375 H   0  0  0  0  0  0  0  0  0  0  0  0
    7.2457    0.9366   -2.7024 H   0  0  0  0  0  0  0  0  0  0  0  0
  1 17  1  0  0  0  0
  1 23  1  0  0  0  0
  2 18  1  0  0  0  0
  2 56  1  0  0  0  0
  3 20  1  0  0  0  0
  3 57  1  0  0  0  0
  4 21  1  0  0  0  0
  4 58  1  0  0  0  0
  5 31  1  0  0  0  0
  5 63  1  0  0  0  0
  6 33  2  0  0  0  0
  7 35  2  0  0  0  0
  8 37  1  0  0  0  0
  8 65  1  0  0  0  0
  9 40  1  0  0  0  0
  9 70  1  0  0  0  0
 10 41  1  0  0  0  0
 10 71  1  0  0  0  0
 11 44  1  0  0  0  0
 11 72  1  0  0  0  0
 12 45  1  0  0  0  0
 12 73  1  0  0  0  0
 13 17  1  0  0  0  0
 13 19  1  0  0  0  0
 13 24  1  0  0  0  0
 14 25  1  0  0  0  0
 14 32  1  0  0  0  0
 14 51  1  0  0  0  0
 15 16  1  0  0  0  0
 15 33  1  0  0  0  0
 15 35  1  0  0  0  0
 16 42  1  0  0  0  0
 16 61  1  0  0  0  0
 17 18  1  0  0  0  0
 17 46  1  0  0  0  0
 18 20  1  0  0  0  0
 18 47  1  0  0  0  0
 19 22  1  0  0  0  0
 19 25  2  0  0  0  0
 20 21  1  0  0  0  0
 20 48  1  0  0  0  0
 21 23  1  0  0  0  0
 21 49  1  0  0  0  0
 22 26  1  0  0  0  0
 22 27  2  0  0  0  0
 23 31  1  0  0  0  0
 23 50  1  0  0  0  0
 24 26  2  0  0  0  0
 24 34  1  0  0  0  0
 25 28  1  0  0  0  0
 26 36  1  0  0  0  0
 27 29  1  0  0  0  0
 27 33  1  0  0  0  0
 28 29  2  0  0  0  0
 28 30  1  0  0  0  0
 29 35  1  0  0  0  0
 30 32  2  0  0  0  0
 30 39  1  0  0  0  0
 31 52  1  0  0  0  0
 31 53  1  0  0  0  0
 32 40  1  0  0  0  0
 34 37  2  0  0  0  0
 34 54  1  0  0  0  0
 36 38  2  0  0  0  0
 36 55  1  0  0  0  0
 37 38  1  0  0  0  0
 38 59  1  0  0  0  0
 39 41  2  0  0  0  0
 39 60  1  0  0  0  0
 40 43  2  0  0  0  0
 41 43  1  0  0  0  0
 42 44  1  0  0  0  0
 42 45  1  0  0  0  0
 42 62  1  0  0  0  0
 43 64  1  0  0  0  0
 44 66  1  0  0  0  0
 44 67  1  0  0  0  0
 45 68  1  0  0  0  0
 45 69  1  0  0  0  0
M  END
> <PUBCHEM_COMPOUND_CID>
44340974

> <PUBCHEM_CONFORMER_RMSD>
1

> <PUBCHEM_CONFORMER_DIVERSEORDER>
2
22
20
17
15
24
4
9
18
12
11
21
23
13
16
14
10
7
19
3
8
5
1
6

> <PUBCHEM_MMFF94_PARTIAL_CHARGES>
59
1 -0.56
10 -0.53
11 -0.68
12 -0.68
13 -0.04
14 -0.05
15 -0.11
16 -0.64
17 0.54
18 0.28
19 -0.05
2 -0.68
20 0.28
21 0.28
22 -0.01
23 0.28
24 -0.15
25 -0.05
27 0.09
28 -0.01
29 0.09
3 -0.68
31 0.28
32 -0.15
33 0.54
34 -0.15
35 0.54
36 -0.15
37 0.08
38 -0.15
39 -0.15
4 -0.68
40 0.08
41 0.08
42 0.27
43 -0.15
44 0.28
45 0.28
5 -0.68
51 0.27
54 0.15
55 0.15
56 0.4
57 0.4
58 0.4
59 0.15
6 -0.57
60 0.15
61 0.36
63 0.4
64 0.15
65 0.45
7 -0.57
70 0.45
71 0.45
72 0.4
73 0.4
8 -0.53
9 -0.53

> <PUBCHEM_EFFECTIVE_ROTOR_COUNT>
7.4

> <PUBCHEM_PHARMACOPHORE_FEATURES>
29
1 1 acceptor
1 10 donor
1 11 acceptor
1 11 donor
1 12 acceptor
1 12 donor
1 13 cation
1 14 cation
1 14 donor
1 16 donor
1 2 acceptor
1 2 donor
1 3 acceptor
1 3 donor
1 4 acceptor
1 4 donor
1 5 acceptor
1 5 donor
1 6 acceptor
1 7 acceptor
1 8 donor
1 9 donor
5 13 19 22 24 26 rings
5 14 25 28 30 32 rings
5 15 27 29 33 35 rings
6 1 17 18 20 21 23 rings
6 19 22 25 27 28 29 rings
6 24 26 34 36 37 38 rings
6 30 32 39 40 41 43 rings

> <PUBCHEM_HEAVY_ATOM_COUNT>
45

> <PUBCHEM_ATOM_DEF_STEREO_COUNT>
0

> <PUBCHEM_ATOM_UDEF_STEREO_COUNT>
5

> <PUBCHEM_BOND_DEF_STEREO_COUNT>
0

> <PUBCHEM_BOND_UDEF_STEREO_COUNT>
0

> <PUBCHEM_ISOTOPIC_ATOM_COUNT>
0

> <PUBCHEM_COMPONENT_COUNT>
1

> <PUBCHEM_CACTVS_TAUTO_COUNT>
612

> <PUBCHEM_CONFORMER_ID>
02A496EE00000002

> <PUBCHEM_MMFF94_ENERGY>
166.4298

> <PUBCHEM_FEATURE_SELFOVERLAP>
147.699

> <PUBCHEM_SHAPE_FINGERPRINT>
10050765 1 18051410966172018371
102385 1 17907009934694580567
10675989 125 17038080846888592405
10864689 126 18337660924244797957
1100329 8 18338793532747950227
12058002 1 17487369068528095859
12633046 712 18265043820247921006
12788726 201 18262795151940076458
13140716 1 18050275157464361808
13911987 19 18335692789915036711
140371 6 18342178877510414216
14040222 275 18343592845458729508
14790565 3 18339077073482890113
14937079 2 18411132571835493921
14955137 171 18336554905504061915
15198563 99 18268431222674740228
15320467 1 18410847755447794033
15324884 4 17751057302256843509
15439362 3 18267290122899865265
15927050 60 17907295807770407085
15950262 2 15575834980914849596
16087824 20 18339079264501968433
16628084 112 18123746457463289806
19311894 1 18412257363366610363
19319366 153 17822285756599871234
19611394 137 18187942715108570723
20775438 99 17694461091455529918
21796203 349 18120689965503574377
22311459 1 18411698764251664890
22440779 20 16664335253168617074
23559900 14 18341604984154168848
23576562 1 18115869775241645295
24771750 20 17974864066316228156
3178227 256 18408892836937975123
5171179 24 18122064479260315082
5265222 85 18260554462985616350
6700243 42 17842314491240419374
9961470 85 18126553742577307641

> <PUBCHEM_SHAPE_MULTIPOLES>
835.72
14.87
7.87
1.25
8.44
6.31
-0.33
-9.03
-3.3
1.06
1.24
-0.85
0.05
1.55

> <PUBCHEM_SHAPE_SELFOVERLAP>
1884.985

> <PUBCHEM_SHAPE_VOLUME>
436.3

> <PUBCHEM_COORDINATE_TYPE>
2
5
10

$$$$
