25165085
  -OEChem-10052115143D

 34 37  0     0  0  0  0  0  0999 V2000
    0.4535   -0.8186   -0.3111 N   0  0  0  0  0  0  0  0  0  0  0  0
    5.7147    0.3887    0.6269 N   0  0  0  0  0  0  0  0  0  0  0  0
   -0.1510   -1.9490    0.0891 N   0  0  0  0  0  0  0  0  0  0  0  0
   -1.4148   -1.8848   -0.3153 N   0  0  0  0  0  0  0  0  0  0  0  0
    5.8779    1.5958    0.0602 N   0  0  0  0  0  0  0  0  0  0  0  0
    1.7888   -0.5776   -0.0402 C   0  0  0  0  0  0  0  0  0  0  0  0
   -2.8853   -0.3241   -1.5453 C   0  0  0  0  0  0  0  0  0  0  0  0
    3.7313    0.8433   -0.1905 C   0  0  0  0  0  0  0  0  0  0  0  0
   -1.5860   -0.6979   -0.9723 C   0  0  0  0  0  0  0  0  0  0  0  0
    4.4486   -0.1188    0.5116 C   0  0  0  0  0  0  0  0  0  0  0  0
    2.3744    0.6175   -0.4763 C   0  0  0  0  0  0  0  0  0  0  0  0
   -0.4038   -0.0011   -0.9809 C   0  0  0  0  0  0  0  0  0  0  0  0
    2.5325   -1.5268    0.6633 C   0  0  0  0  0  0  0  0  0  0  0  0
   -3.9059    0.1849   -0.5330 C   0  0  0  0  0  0  0  0  0  0  0  0
    3.8841   -1.3165    0.9555 C   0  0  0  0  0  0  0  0  0  0  0  0
    4.6692    1.8690   -0.4362 C   0  0  0  0  0  0  0  0  0  0  0  0
   -4.6245   -0.7204    0.2481 C   0  0  0  0  0  0  0  0  0  0  0  0
   -4.1204    1.5554   -0.3874 C   0  0  0  0  0  0  0  0  0  0  0  0
   -5.5577   -0.2551    1.1745 C   0  0  0  0  0  0  0  0  0  0  0  0
   -5.0536    2.0207    0.5392 C   0  0  0  0  0  0  0  0  0  0  0  0
   -5.7721    1.1154    1.3201 C   0  0  0  0  0  0  0  0  0  0  0  0
   -3.3185   -1.1889   -2.0654 H   0  0  0  0  0  0  0  0  0  0  0  0
   -2.7470    0.4348   -2.3268 H   0  0  0  0  0  0  0  0  0  0  0  0
    1.8406    1.3842   -1.0245 H   0  0  0  0  0  0  0  0  0  0  0  0
   -0.1583    0.9634   -1.4010 H   0  0  0  0  0  0  0  0  0  0  0  0
    2.0934   -2.4601    1.0094 H   0  0  0  0  0  0  0  0  0  0  0  0
    4.4636   -2.0523    1.5017 H   0  0  0  0  0  0  0  0  0  0  0  0
    4.5202    2.8045   -0.9568 H   0  0  0  0  0  0  0  0  0  0  0  0
    6.5129   -0.0382    1.0802 H   0  0  0  0  0  0  0  0  0  0  0  0
   -4.4672   -1.7905    0.1430 H   0  0  0  0  0  0  0  0  0  0  0  0
   -3.5655    2.2712   -0.9881 H   0  0  0  0  0  0  0  0  0  0  0  0
   -6.1173   -0.9599    1.7825 H   0  0  0  0  0  0  0  0  0  0  0  0
   -5.2202    3.0878    0.6532 H   0  0  0  0  0  0  0  0  0  0  0  0
   -6.4986    1.4777    2.0416 H   0  0  0  0  0  0  0  0  0  0  0  0
  1  3  1  0  0  0  0
  1  6  1  0  0  0  0
  1 12  1  0  0  0  0
  2  5  1  0  0  0  0
  2 10  1  0  0  0  0
  2 29  1  0  0  0  0
  3  4  2  0  0  0  0
  4  9  1  0  0  0  0
  5 16  2  0  0  0  0
  6 11  2  0  0  0  0
  6 13  1  0  0  0  0
  7  9  1  0  0  0  0
  7 14  1  0  0  0  0
  7 22  1  0  0  0  0
  7 23  1  0  0  0  0
  8 10  2  0  0  0  0
  8 11  1  0  0  0  0
  8 16  1  0  0  0  0
  9 12  2  0  0  0  0
 10 15  1  0  0  0  0
 11 24  1  0  0  0  0
 12 25  1  0  0  0  0
 13 15  2  0  0  0  0
 13 26  1  0  0  0  0
 14 17  2  0  0  0  0
 14 18  1  0  0  0  0
 15 27  1  0  0  0  0
 16 28  1  0  0  0  0
 17 19  1  0  0  0  0
 17 30  1  0  0  0  0
 18 20  2  0  0  0  0
 18 31  1  0  0  0  0
 19 21  2  0  0  0  0
 19 32  1  0  0  0  0
 20 21  1  0  0  0  0
 20 33  1  0  0  0  0
 21 34  1  0  0  0  0
M  END
> <PUBCHEM_COMPOUND_CID>
25165085

> <PUBCHEM_CONFORMER_RMSD>
0.6

> <PUBCHEM_CONFORMER_DIVERSEORDER>
1
3
45
31
9
21
17
8
27
34
2
12
42
10
30
40
5
43
32
18
15
19
6
44
37
11
26
20
24
22
28
41
25
7
39
4
23
16
33
14
29
36
13
38
35

> <PUBCHEM_MMFF94_PARTIAL_CHARGES>
31
1 0.59
10 -0.15
11 -0.15
12 -0.3
13 -0.15
14 -0.14
15 -0.15
16 0.14
17 -0.15
18 -0.15
19 -0.15
2 0.3
20 -0.15
21 -0.15
24 0.15
25 0.15
26 0.15
27 0.15
28 0.15
29 0.27
3 -0.42
30 0.15
31 0.15
32 0.15
33 0.15
34 0.15
4 -0.23
5 -0.71
6 -0.02
7 0.32
9 0.05

> <PUBCHEM_EFFECTIVE_ROTOR_COUNT>
3

> <PUBCHEM_PHARMACOPHORE_FEATURES>
6
1 2 donor
1 5 acceptor
5 1 3 4 9 12 rings
5 2 5 8 10 16 rings
6 14 17 18 19 20 21 rings
6 6 8 10 11 13 15 rings

> <PUBCHEM_HEAVY_ATOM_COUNT>
21

> <PUBCHEM_ATOM_DEF_STEREO_COUNT>
0

> <PUBCHEM_ATOM_UDEF_STEREO_COUNT>
0

> <PUBCHEM_BOND_DEF_STEREO_COUNT>
0

> <PUBCHEM_BOND_UDEF_STEREO_COUNT>
0

> <PUBCHEM_ISOTOPIC_ATOM_COUNT>
0

> <PUBCHEM_COMPONENT_COUNT>
1

> <PUBCHEM_CACTVS_TAUTO_COUNT>
2

> <PUBCHEM_CONFORMER_ID>
017FFD1D00000001

> <PUBCHEM_MMFF94_ENERGY>
48.1783

> <PUBCHEM_FEATURE_SELFOVERLAP>
30.539

> <PUBCHEM_SHAPE_FINGERPRINT>
10 15 18333457530310454369
10354089 29 18333170574601864036
105312 117 16415477160252132053
10670039 82 16845304790959284528
10803635 8 8790886264248194081
10912923 1 18341036484760544879
11370993 144 17968659294551148507
11796584 16 16415480467872900374
12107183 9 17904192633917114011
12236239 1 18272649052225370578
12596602 18 18114183016993479049
12670543 26 12535353384950311555
12788726 201 17703795773419257128
12892183 10 17749671788318638551
13167372 99 18342175540558176272
13398642 44 17026295597803341492
13583140 156 16081632431709558391
13782708 43 15141227773336022594
13785724 45 17835519315548942082
14251764 75 17899427664498817324
14341114 176 18187369796503717385
14341114 328 18341614798312630707
14848160 23 11963394072000634877
14848178 5 11818991885583449321
14849402 71 17969791963427495396
15081414 286 18260825995497937972
15183329 4 11527954426550285513
15188451 53 14201398309250359209
15238133 3 17988915661641220154
15475509 35 15792281585001214002
1601671 61 17703789219367552368
16760501 71 18188214320002345724
17844677 252 18336549300492534631
17857418 61 8718833089151325820
18222031 100 11963391838533498206
18785283 64 16733841920131938156
193927 3 12901556697938446801
20028762 73 13695876942906130369
20281389 69 17917708002501827929
20739085 24 18041849402297006420
21637258 2 12757154610442431811
21756936 100 18272647978404581431
22061861 79 11600005444407915945
221357 26 12319740237244275027
22224240 67 18187086161707336683
22393880 68 12463278186131802565
2303208 19 16588300536836801186
23198884 109 14908184140613876409
25122255 55 11963663387740717472
2838139 119 17275097297940588321
29717793 49 9079122176169567154
3004659 81 10735877253084499492
312425 54 16878229658669776625
314194 84 8790880821801924156
38570 142 17533808093742934620
465052 167 11386373625165554872
5104073 3 17604701166852717345
5283173 99 11887684948360516291
542803 24 18202843270664470822
5718773 13 13768508525944462681
59682541 52 14261077493856206653
602551 16 14851612084946363456
633830 44 18342734070647683831
7495541 125 13118002210539006014
76465 3 8070027770053643799
8272917 22 18342738486443821494
960060 61 11671777178470885274

> <PUBCHEM_SHAPE_MULTIPOLES>
407.27
15.38
1.91
1.14
0.88
0.21
0.03
7.52
-5.2
-0.33
-0.14
1.03
-0.05
-1.05

> <PUBCHEM_SHAPE_SELFOVERLAP>
912.021

> <PUBCHEM_SHAPE_VOLUME>
217.2

> <PUBCHEM_COORDINATE_TYPE>
2
5
10

$$$$
