24905230
  -OEChem-10052115143D

 43 47  0     0  0  0  0  0  0999 V2000
    4.9093   -0.6104    1.2703 O   0  0  0  0  0  0  0  0  0  0  0  0
    3.6618   -0.6607   -2.6144 O   0  0  0  0  0  0  0  0  0  0  0  0
   -2.5685   -0.2402   -0.0076 N   0  0  0  0  0  0  0  0  0  0  0  0
   -1.3725   -0.8097    0.2308 N   0  0  0  0  0  0  0  0  0  0  0  0
   -3.5383    1.9500   -0.3610 N   0  0  0  0  0  0  0  0  0  0  0  0
   -1.8519    3.7098   -0.2618 N   0  0  0  0  0  0  0  0  0  0  0  0
    0.4582    3.2615    0.1375 N   0  0  0  0  0  0  0  0  0  0  0  0
   -3.8001   -1.1108   -0.1186 C   0  0  0  0  0  0  0  0  0  0  0  0
   -4.1151   -1.9379    1.1452 C   0  0  0  0  0  0  0  0  0  0  0  0
   -3.7009   -2.1293   -1.2684 C   0  0  0  0  0  0  0  0  0  0  0  0
   -4.0309   -3.3986    0.7164 C   0  0  0  0  0  0  0  0  0  0  0  0
   -4.4190   -3.3666   -0.7513 C   0  0  0  0  0  0  0  0  0  0  0  0
   -2.5126    1.1169   -0.1245 C   0  0  0  0  0  0  0  0  0  0  0  0
   -1.1836    1.4608    0.0503 C   0  0  0  0  0  0  0  0  0  0  0  0
   -0.5332    0.2313    0.2650 C   0  0  0  0  0  0  0  0  0  0  0  0
    0.8664    0.0123    0.5030 C   0  0  0  0  0  0  0  0  0  0  0  0
   -0.8649    2.8126   -0.0254 C   0  0  0  0  0  0  0  0  0  0  0  0
    1.7300   -0.2025   -0.5721 C   0  0  0  0  0  0  0  0  0  0  0  0
    1.3580    0.0166    1.8096 C   0  0  0  0  0  0  0  0  0  0  0  0
   -3.1094    3.2297   -0.4127 C   0  0  0  0  0  0  0  0  0  0  0  0
    3.0893   -0.4132   -0.3305 C   0  0  0  0  0  0  0  0  0  0  0  0
    2.7164   -0.1940    2.0483 C   0  0  0  0  0  0  0  0  0  0  0  0
    3.5826   -0.4090    0.9762 C   0  0  0  0  0  0  0  0  0  0  0  0
    4.0250   -0.6426   -1.4467 C   0  0  0  0  0  0  0  0  0  0  0  0
    5.4377   -0.8535   -1.0759 C   0  0  0  0  0  0  0  0  0  0  0  0
    5.7665   -0.8225    0.2180 C   0  0  0  0  0  0  0  0  0  0  0  0
   -4.6275   -0.4160   -0.3070 H   0  0  0  0  0  0  0  0  0  0  0  0
   -5.1381   -1.7151    1.4728 H   0  0  0  0  0  0  0  0  0  0  0  0
   -3.4484   -1.7244    1.9866 H   0  0  0  0  0  0  0  0  0  0  0  0
   -2.6596   -2.3781   -1.5045 H   0  0  0  0  0  0  0  0  0  0  0  0
   -4.1604   -1.7479   -2.1861 H   0  0  0  0  0  0  0  0  0  0  0  0
   -4.6870   -4.0430    1.3085 H   0  0  0  0  0  0  0  0  0  0  0  0
   -3.0026   -3.7627    0.8275 H   0  0  0  0  0  0  0  0  0  0  0  0
   -4.1178   -4.2739   -1.2825 H   0  0  0  0  0  0  0  0  0  0  0  0
   -5.5039   -3.2488   -0.8569 H   0  0  0  0  0  0  0  0  0  0  0  0
    1.3440   -0.2045   -1.5888 H   0  0  0  0  0  0  0  0  0  0  0  0
    0.6938    0.1838    2.6546 H   0  0  0  0  0  0  0  0  0  0  0  0
   -3.8750    3.9748   -0.6007 H   0  0  0  0  0  0  0  0  0  0  0  0
    3.0903   -0.1886    3.0684 H   0  0  0  0  0  0  0  0  0  0  0  0
    1.2142    2.6167    0.3150 H   0  0  0  0  0  0  0  0  0  0  0  0
    0.6461    4.2531    0.0753 H   0  0  0  0  0  0  0  0  0  0  0  0
    6.1690   -1.0268   -1.8548 H   0  0  0  0  0  0  0  0  0  0  0  0
    6.7767   -0.9671    0.5752 H   0  0  0  0  0  0  0  0  0  0  0  0
  1 23  1  0  0  0  0
  1 26  1  0  0  0  0
  2 24  2  0  0  0  0
  3  4  1  0  0  0  0
  3  8  1  0  0  0  0
  3 13  1  0  0  0  0
  4 15  2  0  0  0  0
  5 13  2  0  0  0  0
  5 20  1  0  0  0  0
  6 17  1  0  0  0  0
  6 20  2  0  0  0  0
  7 17  1  0  0  0  0
  7 40  1  0  0  0  0
  7 41  1  0  0  0  0
  8  9  1  0  0  0  0
  8 10  1  0  0  0  0
  8 27  1  0  0  0  0
  9 11  1  0  0  0  0
  9 28  1  0  0  0  0
  9 29  1  0  0  0  0
 10 12  1  0  0  0  0
 10 30  1  0  0  0  0
 10 31  1  0  0  0  0
 11 12  1  0  0  0  0
 11 32  1  0  0  0  0
 11 33  1  0  0  0  0
 12 34  1  0  0  0  0
 12 35  1  0  0  0  0
 13 14  1  0  0  0  0
 14 15  1  0  0  0  0
 14 17  2  0  0  0  0
 15 16  1  0  0  0  0
 16 18  2  0  0  0  0
 16 19  1  0  0  0  0
 18 21  1  0  0  0  0
 18 36  1  0  0  0  0
 19 22  2  0  0  0  0
 19 37  1  0  0  0  0
 20 38  1  0  0  0  0
 21 23  2  0  0  0  0
 21 24  1  0  0  0  0
 22 23  1  0  0  0  0
 22 39  1  0  0  0  0
 24 25  1  0  0  0  0
 25 26  2  0  0  0  0
 25 42  1  0  0  0  0
 26 43  1  0  0  0  0
M  END
> <PUBCHEM_COMPOUND_CID>
24905230

> <PUBCHEM_CONFORMER_RMSD>
0.6

> <PUBCHEM_CONFORMER_DIVERSEORDER>
2
17
8
12
6
3
5
9
16
15
14
13
4
7
1
10
11

> <PUBCHEM_MMFF94_PARTIAL_CHARGES>
29
1 -0.16
13 0.11
15 0.23
16 0.05
17 0.41
18 -0.15
19 -0.15
2 -0.57
20 0.47
21 0.09
22 -0.15
23 0.08
24 0.47
25 -0.14
26 -0.07
3 0.31
36 0.15
37 0.15
38 0.15
39 0.15
4 -0.71
40 0.4
41 0.4
42 0.15
43 0.15
5 -0.57
6 -0.62
7 -0.9
8 0.26

> <PUBCHEM_EFFECTIVE_ROTOR_COUNT>
3

> <PUBCHEM_PHARMACOPHORE_FEATURES>
12
1 1 acceptor
1 2 acceptor
1 4 acceptor
1 7 cation
1 7 donor
3 3 5 13 cation
3 5 6 20 cation
5 3 4 13 14 15 rings
5 8 9 10 11 12 rings
6 1 21 23 24 25 26 rings
6 16 18 19 21 22 23 rings
6 5 6 13 14 17 20 rings

> <PUBCHEM_HEAVY_ATOM_COUNT>
26

> <PUBCHEM_ATOM_DEF_STEREO_COUNT>
0

> <PUBCHEM_ATOM_UDEF_STEREO_COUNT>
0

> <PUBCHEM_BOND_DEF_STEREO_COUNT>
0

> <PUBCHEM_BOND_UDEF_STEREO_COUNT>
0

> <PUBCHEM_ISOTOPIC_ATOM_COUNT>
0

> <PUBCHEM_COMPONENT_COUNT>
1

> <PUBCHEM_CACTVS_TAUTO_COUNT>
5

> <PUBCHEM_CONFORMER_ID>
017C060E00000002

> <PUBCHEM_MMFF94_ENERGY>
68.1046

> <PUBCHEM_FEATURE_SELFOVERLAP>
61.206

> <PUBCHEM_SHAPE_FINGERPRINT>
10411042 1 18265330784715126371
11056379 131 18409732820101535823
11069576 57 16688770950277671743
11370993 144 16916799461066814931
11796584 16 18125723388413646038
12128747 34 16485875522688111251
12236239 1 17531531953969702256
12363563 72 18264766735113057251
12553582 1 18335138747898055267
12616971 3 16950847994873433112
12623949 98 17558834137314958238
12714826 92 18272934912173825571
12788726 201 18187362100180844883
13140716 1 18410851110133893601
13583140 156 17916574346369540286
13782708 43 18059859446485798766
14114206 34 17822559591182429375
14251757 5 18333728005859803527
15131766 46 15576723536628575693
15250474 111 18043515145524232466
15842332 3 17604700050335060186
16087824 20 18336823075980903581
17138139 8 17387404855670460890
17349148 13 17749109993706392170
1813 80 18270122456130459343
18222031 100 18270396238863148767
20101258 96 18335990843449652929
20505436 4 17534635815001861416
20511986 3 17386279870760294292
20775438 99 17255951798346118899
21033650 10 18119555179573016142
21065201 7 18341607063039847770
21792961 116 17631737068050155870
23402539 116 18187645778301671918
23557571 272 18272365339312495736
23559900 14 18340475733746028537
255183 451 18051414269276383751
314173 85 18341050813182803539
474 4 16588887667725046224
4921388 177 18270966730367490245
495365 180 12613018527197999048
621550 5 17988930006294126664
7471813 234 18188489189477156148
7495541 125 18060419149274528466
7970288 3 18265895937602584083
84936 182 8068382901138688335

> <PUBCHEM_SHAPE_MULTIPOLES>
498.42
11.3
3.84
1.54
8.56
2.43
-0.08
-9.02
-1.64
-7.42
-0.5
1.73
-0.67
0.59

> <PUBCHEM_SHAPE_SELFOVERLAP>
1120.073

> <PUBCHEM_SHAPE_VOLUME>
262.3

> <PUBCHEM_COORDINATE_TYPE>
2
5
10

$$$$
