136027062
  -OEChem-10052115173D

 38 40  0     0  0  0  0  0  0999 V2000
    0.7603    4.0930    0.5595 O   0  0  0  0  0  0  0  0  0  0  0  0
   -2.1260    0.5947   -0.4572 N   0  0  0  0  0  0  0  0  0  0  0  0
   -0.6571    2.3380    0.0500 N   0  0  0  0  0  0  0  0  0  0  0  0
    0.1662    0.1534   -0.2427 N   0  0  0  0  0  0  0  0  0  0  0  0
    4.6523   -2.1542   -0.0456 N   0  0  0  0  0  0  0  0  0  0  0  0
   -2.4869   -0.7789   -0.7540 C   0  0  0  0  0  0  0  0  0  0  0  0
   -3.8351   -0.8238   -1.4804 C   0  0  0  0  0  0  0  0  0  0  0  0
   -2.5145   -1.6056    0.5355 C   0  0  0  0  0  0  0  0  0  0  0  0
   -5.0106   -0.4725   -0.5681 C   0  0  0  0  0  0  0  0  0  0  0  0
   -3.6952   -1.2524    1.4402 C   0  0  0  0  0  0  0  0  0  0  0  0
   -5.0222   -1.3319    0.6920 C   0  0  0  0  0  0  0  0  0  0  0  0
   -0.8356    0.9882   -0.2194 C   0  0  0  0  0  0  0  0  0  0  0  0
    1.4265    0.6525    0.0083 C   0  0  0  0  0  0  0  0  0  0  0  0
    0.5717    2.9060    0.3161 C   0  0  0  0  0  0  0  0  0  0  0  0
    1.6917    1.9406    0.2873 C   0  0  0  0  0  0  0  0  0  0  0  0
    2.5439   -0.3194   -0.0103 C   0  0  0  0  0  0  0  0  0  0  0  0
    3.6036   -0.1480   -0.8941 C   0  0  0  0  0  0  0  0  0  0  0  0
    2.5372   -1.4071    0.8559 C   0  0  0  0  0  0  0  0  0  0  0  0
    4.6241   -1.0849   -0.8724 C   0  0  0  0  0  0  0  0  0  0  0  0
    3.6055   -2.2877    0.7993 C   0  0  0  0  0  0  0  0  0  0  0  0
   -1.7377   -1.2046   -1.4335 H   0  0  0  0  0  0  0  0  0  0  0  0
   -3.9901   -1.8349   -1.8782 H   0  0  0  0  0  0  0  0  0  0  0  0
   -3.8279   -0.1431   -2.3404 H   0  0  0  0  0  0  0  0  0  0  0  0
   -1.5827   -1.4920    1.1012 H   0  0  0  0  0  0  0  0  0  0  0  0
   -2.5872   -2.6680    0.2685 H   0  0  0  0  0  0  0  0  0  0  0  0
   -5.9498   -0.6148   -1.1150 H   0  0  0  0  0  0  0  0  0  0  0  0
   -4.9696    0.5869   -0.2892 H   0  0  0  0  0  0  0  0  0  0  0  0
   -3.7164   -1.9351    2.2974 H   0  0  0  0  0  0  0  0  0  0  0  0
   -3.5624   -0.2415    1.8442 H   0  0  0  0  0  0  0  0  0  0  0  0
   -5.2251   -2.3750    0.4198 H   0  0  0  0  0  0  0  0  0  0  0  0
   -5.8369   -1.0102    1.3505 H   0  0  0  0  0  0  0  0  0  0  0  0
   -2.8695    1.2832   -0.3920 H   0  0  0  0  0  0  0  0  0  0  0  0
   -1.4743    2.9410    0.0535 H   0  0  0  0  0  0  0  0  0  0  0  0
    2.6869    2.3161    0.4974 H   0  0  0  0  0  0  0  0  0  0  0  0
    3.6454    0.6833   -1.5905 H   0  0  0  0  0  0  0  0  0  0  0  0
    1.7299   -1.5742    1.5615 H   0  0  0  0  0  0  0  0  0  0  0  0
    5.4727   -0.9975   -1.5429 H   0  0  0  0  0  0  0  0  0  0  0  0
    3.6483   -3.1517    1.4543 H   0  0  0  0  0  0  0  0  0  0  0  0
  1 14  2  0  0  0  0
  2  6  1  0  0  0  0
  2 12  1  0  0  0  0
  2 32  1  0  0  0  0
  3 12  1  0  0  0  0
  3 14  1  0  0  0  0
  3 33  1  0  0  0  0
  4 12  2  0  0  0  0
  4 13  1  0  0  0  0
  5 19  2  0  0  0  0
  5 20  1  0  0  0  0
  6  7  1  0  0  0  0
  6  8  1  0  0  0  0
  6 21  1  0  0  0  0
  7  9  1  0  0  0  0
  7 22  1  0  0  0  0
  7 23  1  0  0  0  0
  8 10  1  0  0  0  0
  8 24  1  0  0  0  0
  8 25  1  0  0  0  0
  9 11  1  0  0  0  0
  9 26  1  0  0  0  0
  9 27  1  0  0  0  0
 10 11  1  0  0  0  0
 10 28  1  0  0  0  0
 10 29  1  0  0  0  0
 11 30  1  0  0  0  0
 11 31  1  0  0  0  0
 13 15  2  0  0  0  0
 13 16  1  0  0  0  0
 14 15  1  0  0  0  0
 15 34  1  0  0  0  0
 16 17  2  0  0  0  0
 16 18  1  0  0  0  0
 17 19  1  0  0  0  0
 17 35  1  0  0  0  0
 18 20  2  0  0  0  0
 18 36  1  0  0  0  0
 19 37  1  0  0  0  0
 20 38  1  0  0  0  0
M  END
> <PUBCHEM_COMPOUND_CID>
136027062

> <PUBCHEM_CONFORMER_RMSD>
0.6

> <PUBCHEM_CONFORMER_DIVERSEORDER>
1
40
47
41
63
5
49
58
15
3
31
46
59
7
56
10
27
57
6
29
45
50
33
64
18
4
43
30
54
65
20
12
51
60
61
35
23
25
36
22
62
24
28
55
26
32
16
9
48
44
17
21
38
52
13
11
42
8
19
37
2
14
53
39
34

> <PUBCHEM_MMFF94_PARTIAL_CHARGES>
22
1 -0.57
12 0.56
13 0.14
14 0.62
15 -0.14
16 0.03
17 -0.15
18 -0.15
19 0.16
2 -0.82
20 0.16
3 -0.49
32 0.4
33 0.37
34 0.15
35 0.15
36 0.15
37 0.15
38 0.15
4 -0.62
5 -0.62
6 0.37

> <PUBCHEM_EFFECTIVE_ROTOR_COUNT>
4.2

> <PUBCHEM_PHARMACOPHORE_FEATURES>
7
1 1 acceptor
1 2 donor
1 3 donor
1 5 acceptor
6 3 4 12 13 14 15 rings
6 5 16 17 18 19 20 rings
6 6 7 8 9 10 11 rings

> <PUBCHEM_HEAVY_ATOM_COUNT>
20

> <PUBCHEM_ATOM_DEF_STEREO_COUNT>
0

> <PUBCHEM_ATOM_UDEF_STEREO_COUNT>
0

> <PUBCHEM_BOND_DEF_STEREO_COUNT>
0

> <PUBCHEM_BOND_UDEF_STEREO_COUNT>
0

> <PUBCHEM_ISOTOPIC_ATOM_COUNT>
0

> <PUBCHEM_COMPONENT_COUNT>
1

> <PUBCHEM_CACTVS_TAUTO_COUNT>
-1

> <PUBCHEM_CONFORMER_ID>
081B9BB600000001

> <PUBCHEM_MMFF94_ENERGY>
42.7588

> <PUBCHEM_FEATURE_SELFOVERLAP>
35.565

> <PUBCHEM_SHAPE_FINGERPRINT>
10616163 171 18123187901303460590
11265709 11 18413388713686548212
11543360 7 16370730335172645294
12107183 9 18270694086782128475
12363563 72 18412826863134063062
12403259 118 11743542289373018159
12516196 113 18412543219188363690
12553582 1 18412822482330958454
12707595 3 18409727386978663831
12714826 92 18114455678412357397
12760667 363 18337390431188538366
12788726 201 18191580848348971354
12841375 25 18411700989107728844
13052359 8 17905885881697781669
13103583 49 18198366046964340411
13134695 92 18340483456181447573
13140716 1 18270117903301933392
13533116 47 18195250142923088995
13544653 18 18409448085413420270
13955234 65 18125722545950924097
14252887 29 18272927250247510136
14347329 18 16589967358194809941
14739800 52 16127525058936255177
14767858 380 18262817254226747748
14866123 147 17834674894664863891
15042514 8 18124319302577917800
15188451 53 16486674953625207655
17349148 13 17489589008822889135
17834072 32 9222932786582033390
1813 80 18130801048256486284
18222031 100 18131346414592822143
193927 3 18337116665931292838
20291156 8 18410856542665713694
20369508 70 18410287055708783959
20645477 70 18267856354054261479
20671657 53 18412263947608847737
20693207 138 17968087668631790743
20832881 197 18335699421454973355
20871999 31 18114462258112259716
21250096 35 18409727348318787310
221357 26 18333444348950275847
221490 88 18335142054357662907
2215653 11 18187918496214957103
22182313 1 18266998666070693948
2255824 54 18198061584726471100
22950370 63 18411708664019179446
23175994 123 18410012135258407399
235170 7 16443059491345184294
23558518 356 17474665053356062359
23559900 14 17895471544246172125
2871803 45 18186520986375390714
3004659 81 17894910685847404226
3091708 16 9138894935254220520
314173 41 18410859888408580542
314173 85 18272089370626159854
314194 84 18411701014656279030
3421961 26 18340205292555807336
458136 41 17831872612982569621
46194498 28 17096092527214285727
465052 167 18342463663912574991
4921388 177 15574726802364946243
5104073 3 18198898124877227170
5486654 36 18335995181371773385
6049 1 18041270088966787973
7364860 26 18197495332048953932
7970288 3 18413105039524052486
8863177 126 18043823180821229539
9709674 26 18191862542965249035
9841814 1 18337096952009928680

> <PUBCHEM_SHAPE_MULTIPOLES>
385.8
10.09
3.23
1.1
4.13
3.49
0.05
-8.65
0.99
-2.39
-1.03
0.62
-0.37
0.32

> <PUBCHEM_SHAPE_SELFOVERLAP>
823.438

> <PUBCHEM_SHAPE_VOLUME>
210.5

> <PUBCHEM_COORDINATE_TYPE>
2
5
10

$$$$
