44370465
  -OEChem-10062121593D

 68 74  0     1  0  0  0  0  0999 V2000
   -3.0731   -4.0175   -0.2454 Cl  0  0  0  0  0  0  0  0  0  0  0  0
   -3.1784    3.7675   -0.1269 Cl  0  0  0  0  0  0  0  0  0  0  0  0
    5.0151    0.9662   -2.3928 Cl  0  0  0  0  0  0  0  0  0  0  0  0
   -2.6575    0.1899   -0.8729 O   0  0  0  0  0  0  0  0  0  0  0  0
   -2.6761    0.0529    2.0445 O   0  0  0  0  0  0  0  0  0  0  0  0
   -6.1652    1.0894   -0.1807 O   0  0  0  0  0  0  0  0  0  0  0  0
   -5.4869   -1.5606    0.4037 O   0  0  0  0  0  0  0  0  0  0  0  0
   -3.7358   -0.2029   -3.3915 O   0  0  0  0  0  0  0  0  0  0  0  0
    4.2664   -2.3086    0.6034 O   0  0  0  0  0  0  0  0  0  0  0  0
    4.2072    2.3207    0.6730 O   0  0  0  0  0  0  0  0  0  0  0  0
    7.4414   -0.8862   -0.9256 O   0  0  0  0  0  0  0  0  0  0  0  0
   -1.1180   -1.4501    0.0150 N   0  0  0  0  0  0  0  0  0  0  0  0
   -1.1566    1.3317    0.0572 N   0  0  0  0  0  0  0  0  0  0  0  0
    4.6492    0.0120    0.6798 N   0  0  0  0  0  0  0  0  0  0  0  0
   -2.5709   -1.0389   -0.1397 C   0  0  1  0  0  0  0  0  0  0  0  0
   -3.2989   -0.9282    1.2152 C   0  0  2  0  0  0  0  0  0  0  0  0
   -4.7538   -0.4989    1.0073 C   0  0  1  0  0  0  0  0  0  0  0  0
    0.0271   -0.7448    0.1542 C   0  0  0  0  0  0  0  0  0  0  0  0
   -4.8180    0.7521    0.1226 C   0  0  1  0  0  0  0  0  0  0  0  0
   -3.9887    0.6298   -1.1637 C   0  0  2  0  0  0  0  0  0  0  0  0
    1.3122   -1.3699    0.2868 C   0  0  0  0  0  0  0  0  0  0  0  0
   -0.6306   -2.7481    0.0476 C   0  0  0  0  0  0  0  0  0  0  0  0
    0.0077    0.6546    0.1755 C   0  0  0  0  0  0  0  0  0  0  0  0
    0.7963   -2.7444    0.2061 C   0  0  0  0  0  0  0  0  0  0  0  0
    2.5284   -0.7082    0.4333 C   0  0  0  0  0  0  0  0  0  0  0  0
    1.2749    1.3110    0.3277 C   0  0  0  0  0  0  0  0  0  0  0  0
    2.5094    0.6794    0.4544 C   0  0  0  0  0  0  0  0  0  0  0  0
   -4.6169   -0.2004   -2.2832 C   0  0  0  0  0  0  0  0  0  0  0  0
    0.7205    2.6725    0.2892 C   0  0  0  0  0  0  0  0  0  0  0  0
    3.9050   -1.1480    0.5802 C   0  0  0  0  0  0  0  0  0  0  0  0
   -0.7060    2.6411    0.1298 C   0  0  0  0  0  0  0  0  0  0  0  0
   -1.3597   -3.9428   -0.0533 C   0  0  0  0  0  0  0  0  0  0  0  0
    3.8737    1.1531    0.6145 C   0  0  0  0  0  0  0  0  0  0  0  0
    1.4431   -4.0029    0.2562 C   0  0  0  0  0  0  0  0  0  0  0  0
   -0.6733   -5.1564    0.0026 C   0  0  0  0  0  0  0  0  0  0  0  0
    0.7066   -5.1880    0.1548 C   0  0  0  0  0  0  0  0  0  0  0  0
    1.3318    3.9466    0.3789 C   0  0  0  0  0  0  0  0  0  0  0  0
    6.0903    0.0295    0.8360 C   0  0  0  0  0  0  0  0  0  0  0  0
   -1.4683    3.8175    0.0648 C   0  0  0  0  0  0  0  0  0  0  0  0
   -6.9064    1.3529    0.9992 C   0  0  0  0  0  0  0  0  0  0  0  0
    0.5623    5.1133    0.3130 C   0  0  0  0  0  0  0  0  0  0  0  0
   -0.8161    5.0476    0.1582 C   0  0  0  0  0  0  0  0  0  0  0  0
    6.7504    0.0518   -0.5289 C   0  0  0  0  0  0  0  0  0  0  0  0
    6.4363    1.2624   -1.3802 C   0  0  0  0  0  0  0  0  0  0  0  0
   -3.0049   -1.7592   -0.8173 H   0  0  0  0  0  0  0  0  0  0  0  0
   -3.2484   -1.8843    1.7465 H   0  0  0  0  0  0  0  0  0  0  0  0
   -5.2109   -0.3035    1.9834 H   0  0  0  0  0  0  0  0  0  0  0  0
   -4.3866    1.5627    0.7168 H   0  0  0  0  0  0  0  0  0  0  0  0
   -3.8802    1.6269   -1.6007 H   0  0  0  0  0  0  0  0  0  0  0  0
   -5.5736    0.2272   -2.5993 H   0  0  0  0  0  0  0  0  0  0  0  0
   -4.7813   -1.2403   -1.9933 H   0  0  0  0  0  0  0  0  0  0  0  0
   -2.1011    1.0664    0.2358 H   0  0  0  0  0  0  0  0  0  0  0  0
   -3.1421    0.0563    2.8978 H   0  0  0  0  0  0  0  0  0  0  0  0
    2.5199   -4.0690    0.3742 H   0  0  0  0  0  0  0  0  0  0  0  0
   -5.4159   -2.3355    0.9867 H   0  0  0  0  0  0  0  0  0  0  0  0
   -1.2102   -6.0998   -0.0728 H   0  0  0  0  0  0  0  0  0  0  0  0
    1.2228   -6.1436    0.1958 H   0  0  0  0  0  0  0  0  0  0  0  0
    2.4063    4.0388    0.4999 H   0  0  0  0  0  0  0  0  0  0  0  0
    6.4124   -0.8693    1.3714 H   0  0  0  0  0  0  0  0  0  0  0  0
    6.4023    0.9166    1.3959 H   0  0  0  0  0  0  0  0  0  0  0  0
   -7.8199    1.8791    0.7058 H   0  0  0  0  0  0  0  0  0  0  0  0
   -6.3593    1.9971    1.6952 H   0  0  0  0  0  0  0  0  0  0  0  0
   -7.2159    0.4245    1.4871 H   0  0  0  0  0  0  0  0  0  0  0  0
   -4.1578   -0.7273   -4.0931 H   0  0  0  0  0  0  0  0  0  0  0  0
    1.0515    6.0812    0.3839 H   0  0  0  0  0  0  0  0  0  0  0  0
   -1.3832    5.9747    0.1107 H   0  0  0  0  0  0  0  0  0  0  0  0
    6.2921    2.1556   -0.7687 H   0  0  0  0  0  0  0  0  0  0  0  0
    7.2897    1.4524   -2.0385 H   0  0  0  0  0  0  0  0  0  0  0  0
  1 32  1  0  0  0  0
  2 39  1  0  0  0  0
  3 44  1  0  0  0  0
  4 15  1  0  0  0  0
  4 20  1  0  0  0  0
  5 16  1  0  0  0  0
  5 53  1  0  0  0  0
  6 19  1  0  0  0  0
  6 40  1  0  0  0  0
  7 17  1  0  0  0  0
  7 55  1  0  0  0  0
  8 28  1  0  0  0  0
  8 64  1  0  0  0  0
  9 30  2  0  0  0  0
 10 33  2  0  0  0  0
 11 43  2  0  0  0  0
 12 15  1  0  0  0  0
 12 18  1  0  0  0  0
 12 22  1  0  0  0  0
 13 23  1  0  0  0  0
 13 31  1  0  0  0  0
 13 52  1  0  0  0  0
 14 30  1  0  0  0  0
 14 33  1  0  0  0  0
 14 38  1  0  0  0  0
 15 16  1  0  0  0  0
 15 45  1  0  0  0  0
 16 17  1  0  0  0  0
 16 46  1  0  0  0  0
 17 19  1  0  0  0  0
 17 47  1  0  0  0  0
 18 21  1  0  0  0  0
 18 23  2  0  0  0  0
 19 20  1  0  0  0  0
 19 48  1  0  0  0  0
 20 28  1  0  0  0  0
 20 49  1  0  0  0  0
 21 24  1  0  0  0  0
 21 25  2  0  0  0  0
 22 24  2  0  0  0  0
 22 32  1  0  0  0  0
 23 26  1  0  0  0  0
 24 34  1  0  0  0  0
 25 27  1  0  0  0  0
 25 30  1  0  0  0  0
 26 27  2  0  0  0  0
 26 29  1  0  0  0  0
 27 33  1  0  0  0  0
 28 50  1  0  0  0  0
 28 51  1  0  0  0  0
 29 31  2  0  0  0  0
 29 37  1  0  0  0  0
 31 39  1  0  0  0  0
 32 35  2  0  0  0  0
 34 36  2  0  0  0  0
 34 54  1  0  0  0  0
 35 36  1  0  0  0  0
 35 56  1  0  0  0  0
 36 57  1  0  0  0  0
 37 41  2  0  0  0  0
 37 58  1  0  0  0  0
 38 43  1  0  0  0  0
 38 59  1  0  0  0  0
 38 60  1  0  0  0  0
 39 42  2  0  0  0  0
 40 61  1  0  0  0  0
 40 62  1  0  0  0  0
 40 63  1  0  0  0  0
 41 42  1  0  0  0  0
 41 65  1  0  0  0  0
 42 66  1  0  0  0  0
 43 44  1  0  0  0  0
 44 67  1  0  0  0  0
 44 68  1  0  0  0  0
M  END
> <PUBCHEM_COMPOUND_CID>
44370465

> <PUBCHEM_CONFORMER_RMSD>
1

> <PUBCHEM_CONFORMER_DIVERSEORDER>
1
27
21
2
4
5
12
22
28
8
15
20
9
3

> <PUBCHEM_MMFF94_PARTIAL_CHARGES>
52
1 -0.18
10 -0.57
11 -0.57
12 -0.04
13 -0.05
14 -0.42
15 0.54
16 0.28
17 0.28
18 -0.05
19 0.28
2 -0.18
20 0.28
21 -0.01
22 -0.15
23 -0.05
25 0.09
26 -0.01
27 0.09
28 0.28
3 -0.29
30 0.54
31 -0.15
32 0.18
33 0.54
34 -0.15
35 -0.15
36 -0.15
37 -0.15
38 0.36
39 0.18
4 -0.56
40 0.28
41 -0.15
42 -0.15
43 0.45
44 0.35
5 -0.68
52 0.27
53 0.4
54 0.15
55 0.4
56 0.15
57 0.15
58 0.15
6 -0.56
64 0.4
65 0.15
66 0.15
7 -0.68
8 -0.68
9 -0.57

> <PUBCHEM_EFFECTIVE_ROTOR_COUNT>
7.4

> <PUBCHEM_PHARMACOPHORE_FEATURES>
21
1 10 acceptor
1 11 acceptor
1 12 cation
1 13 cation
1 13 donor
1 4 acceptor
1 5 acceptor
1 5 donor
1 6 acceptor
1 7 acceptor
1 7 donor
1 8 acceptor
1 8 donor
1 9 acceptor
5 12 18 21 22 24 rings
5 13 23 26 29 31 rings
5 14 25 27 30 33 rings
6 18 21 23 25 26 27 rings
6 22 24 32 34 35 36 rings
6 29 31 37 39 41 42 rings
6 4 15 16 17 19 20 rings

> <PUBCHEM_HEAVY_ATOM_COUNT>
44

> <PUBCHEM_ATOM_DEF_STEREO_COUNT>
0

> <PUBCHEM_ATOM_UDEF_STEREO_COUNT>
5

> <PUBCHEM_BOND_DEF_STEREO_COUNT>
0

> <PUBCHEM_BOND_UDEF_STEREO_COUNT>
0

> <PUBCHEM_ISOTOPIC_ATOM_COUNT>
0

> <PUBCHEM_COMPONENT_COUNT>
1

> <PUBCHEM_CACTVS_TAUTO_COUNT>
18

> <PUBCHEM_CONFORMER_ID>
02A50A2100000001

> <PUBCHEM_MMFF94_ENERGY>
196.982

> <PUBCHEM_FEATURE_SELFOVERLAP>
107.063

> <PUBCHEM_SHAPE_FINGERPRINT>
10190108 129 18267882600631692513
102385 1 17690564087239397936
1100329 8 18266739262740311889
11135926 11 18336541625686715519
11136131 41 18045495314447322554
11285246 1 17767933752954231767
12058002 1 17414475862953909008
12677640 9 18269274737503892851
12788726 201 18334010563105177536
13140716 1 18267018539099916345
13911987 19 18335130994912036207
14068700 675 18060695100586414161
14117953 113 18412267220611492589
14394314 77 18411984654465403057
14790565 3 18410860932201762456
14955137 171 18191600837327051650
15320467 1 18410852136119081937
15324884 4 17607501812781024685
15328829 1 17604412039430981584
15927050 60 17765432046189057348
15950262 2 15719942524075376212
16087824 20 18338238159513296473
19311894 1 18268144430190685454
19319366 153 17822005420052893898
19611394 137 18042701674650113483
20764821 26 18336536231054687581
20775438 99 16974723065221330671
21796203 349 17901988357948117057
22311459 1 18411136918394872097
22440779 20 16376951565753420394
23559900 14 18270392936391858168
24771293 8 18057870519897454624
3178227 256 18337405910809193425
350125 39 18410293580165293200
5265222 85 18336553819135837668
9961470 85 18055062413838405481

> <PUBCHEM_SHAPE_MULTIPOLES>
849.21
13.48
6.87
1.43
8.89
1.09
1.18
-2.22
2.55
-2.04
-0.74
-0.64
-0.16
-0.51

> <PUBCHEM_SHAPE_SELFOVERLAP>
1890.27

> <PUBCHEM_SHAPE_VOLUME>
454.5

> <PUBCHEM_COORDINATE_TYPE>
2
5
10

$$$$
