56835089
  -OEChem-10052115173D

 55 60  0     1  0  0  0  0  0999 V2000
    5.8992   -2.9023    0.8850 F   0  0  0  0  0  0  0  0  0  0  0  0
    1.3733    3.6827    0.3547 O   0  0  0  0  0  0  0  0  0  0  0  0
   -2.3949   -1.8321   -0.4447 N   0  0  2  0  0  0  0  0  0  0  0  0
   -0.2028    1.9617    0.1062 N   0  0  0  0  0  0  0  0  0  0  0  0
   -3.2889   -5.3397   -0.0930 N   0  0  0  0  0  0  0  0  0  0  0  0
    2.4142    0.5002    0.8659 N   0  0  0  0  0  0  0  0  0  0  0  0
   -2.0647    0.4579   -0.3741 C   0  0  2  0  0  0  0  0  0  0  0  0
   -2.7379   -0.6807    0.3927 C   0  0  0  0  0  0  0  0  0  0  0  0
   -2.3506    0.0940   -1.8411 C   0  0  0  0  0  0  0  0  0  0  0  0
   -2.6478   -1.4080   -1.8246 C   0  0  0  0  0  0  0  0  0  0  0  0
   -0.5387    0.5341   -0.0969 C   0  0  0  0  0  0  0  0  0  0  0  0
   -3.1367   -3.0299   -0.0824 C   0  0  2  0  0  0  0  0  0  0  0  0
   -2.5034    1.8463   -0.0058 C   0  0  0  0  0  0  0  0  0  0  0  0
   -1.4082    2.6847    0.2251 C   0  0  0  0  0  0  0  0  0  0  0  0
   -2.8784   -3.4763    1.3509 C   0  0  0  0  0  0  0  0  0  0  0  0
   -2.7268   -4.2492   -0.8888 C   0  0  0  0  0  0  0  0  0  0  0  0
   -3.0606   -4.9912    1.3116 C   0  0  0  0  0  0  0  0  0  0  0  0
   -3.8009    2.3382    0.0712 C   0  0  0  0  0  0  0  0  0  0  0  0
   -1.5901    4.0263    0.5322 C   0  0  0  0  0  0  0  0  0  0  0  0
    1.0733    2.5038    0.1869 C   0  0  0  0  0  0  0  0  0  0  0  0
   -3.9927    3.6836    0.3855 C   0  0  0  0  0  0  0  0  0  0  0  0
   -2.8942    4.5218    0.6129 C   0  0  0  0  0  0  0  0  0  0  0  0
    2.1971    1.5669    0.0357 C   0  0  0  0  0  0  0  0  0  0  0  0
    3.1942    1.5755   -0.9122 C   0  0  0  0  0  0  0  0  0  0  0  0
    3.5400   -0.1872    0.4715 C   0  0  0  0  0  0  0  0  0  0  0  0
    4.0513    0.4705   -0.6494 C   0  0  0  0  0  0  0  0  0  0  0  0
    4.1386   -1.3291    1.0156 C   0  0  0  0  0  0  0  0  0  0  0  0
    5.2167   -0.0347   -1.2592 C   0  0  0  0  0  0  0  0  0  0  0  0
    5.2939   -1.8117    0.3943 C   0  0  0  0  0  0  0  0  0  0  0  0
    5.8265   -1.1762   -0.7256 C   0  0  0  0  0  0  0  0  0  0  0  0
   -2.3532   -0.7707    1.4143 H   0  0  0  0  0  0  0  0  0  0  0  0
   -3.8253   -0.5402    0.4500 H   0  0  0  0  0  0  0  0  0  0  0  0
   -1.5098    0.3296   -2.5032 H   0  0  0  0  0  0  0  0  0  0  0  0
   -3.2262    0.6279   -2.2307 H   0  0  0  0  0  0  0  0  0  0  0  0
   -3.6910   -1.5690   -2.1249 H   0  0  0  0  0  0  0  0  0  0  0  0
   -2.0012   -1.9428   -2.5279 H   0  0  0  0  0  0  0  0  0  0  0  0
   -0.2764    0.0119    0.8307 H   0  0  0  0  0  0  0  0  0  0  0  0
    0.0721    0.1178   -0.9053 H   0  0  0  0  0  0  0  0  0  0  0  0
   -4.2183   -2.8644   -0.2042 H   0  0  0  0  0  0  0  0  0  0  0  0
   -3.5656   -2.9982    2.0571 H   0  0  0  0  0  0  0  0  0  0  0  0
   -1.8527   -3.2464    1.6666 H   0  0  0  0  0  0  0  0  0  0  0  0
   -3.1423   -4.2476   -1.9009 H   0  0  0  0  0  0  0  0  0  0  0  0
   -1.6364   -4.3520   -0.9555 H   0  0  0  0  0  0  0  0  0  0  0  0
   -3.9125   -5.3084    1.9208 H   0  0  0  0  0  0  0  0  0  0  0  0
   -2.1638   -5.4911    1.6943 H   0  0  0  0  0  0  0  0  0  0  0  0
   -4.6562    1.6982   -0.1194 H   0  0  0  0  0  0  0  0  0  0  0  0
   -2.8475   -6.2275   -0.3249 H   0  0  0  0  0  0  0  0  0  0  0  0
   -0.7642    4.7007    0.7219 H   0  0  0  0  0  0  0  0  0  0  0  0
   -4.9999    4.0859    0.4492 H   0  0  0  0  0  0  0  0  0  0  0  0
   -3.0587    5.5682    0.8557 H   0  0  0  0  0  0  0  0  0  0  0  0
    1.8437    0.2570    1.6639 H   0  0  0  0  0  0  0  0  0  0  0  0
    3.2985    2.2972   -1.7115 H   0  0  0  0  0  0  0  0  0  0  0  0
    3.7249   -1.8247    1.8873 H   0  0  0  0  0  0  0  0  0  0  0  0
    5.6426    0.4509   -2.1325 H   0  0  0  0  0  0  0  0  0  0  0  0
    6.7259   -1.5702   -1.1912 H   0  0  0  0  0  0  0  0  0  0  0  0
  1 29  1  0  0  0  0
  2 20  2  0  0  0  0
  3  8  1  0  0  0  0
  3 10  1  0  0  0  0
  3 12  1  0  0  0  0
  4 11  1  0  0  0  0
  4 14  1  0  0  0  0
  4 20  1  0  0  0  0
  5 16  1  0  0  0  0
  5 17  1  0  0  0  0
  5 47  1  0  0  0  0
  6 23  1  0  0  0  0
  6 25  1  0  0  0  0
  6 51  1  0  0  0  0
  7  8  1  0  0  0  0
  7  9  1  0  0  0  0
  7 11  1  0  0  0  0
  7 13  1  0  0  0  0
  8 31  1  0  0  0  0
  8 32  1  0  0  0  0
  9 10  1  0  0  0  0
  9 33  1  0  0  0  0
  9 34  1  0  0  0  0
 10 35  1  0  0  0  0
 10 36  1  0  0  0  0
 11 37  1  0  0  0  0
 11 38  1  0  0  0  0
 12 15  1  0  0  0  0
 12 16  1  0  0  0  0
 12 39  1  0  0  0  0
 13 14  1  0  0  0  0
 13 18  2  0  0  0  0
 14 19  2  0  0  0  0
 15 17  1  0  0  0  0
 15 40  1  0  0  0  0
 15 41  1  0  0  0  0
 16 42  1  0  0  0  0
 16 43  1  0  0  0  0
 17 44  1  0  0  0  0
 17 45  1  0  0  0  0
 18 21  1  0  0  0  0
 18 46  1  0  0  0  0
 19 22  1  0  0  0  0
 19 48  1  0  0  0  0
 20 23  1  0  0  0  0
 21 22  2  0  0  0  0
 21 49  1  0  0  0  0
 22 50  1  0  0  0  0
 23 24  2  0  0  0  0
 24 26  1  0  0  0  0
 24 52  1  0  0  0  0
 25 26  2  0  0  0  0
 25 27  1  0  0  0  0
 26 28  1  0  0  0  0
 27 29  2  0  0  0  0
 27 53  1  0  0  0  0
 28 30  2  0  0  0  0
 28 54  1  0  0  0  0
 29 30  1  0  0  0  0
 30 55  1  0  0  0  0
M  END
> <PUBCHEM_COMPOUND_CID>
56835089

> <PUBCHEM_CONFORMER_RMSD>
0.8

> <PUBCHEM_CONFORMER_DIVERSEORDER>
1
12
49
19
43
35
5
62
65
61
54
28
55
8
7
40
34
45
48
60
41
56
53
6
33
20
38
13
10
29
52
47
63
17
27
11
26
50
59
16
15
64
39
46
30
51
57
18
37
25
31
24
44
23
36
42
21
22
2
14
9
58
4
32
3

> <PUBCHEM_MMFF94_PARTIAL_CHARGES>
37
1 -0.19
10 0.27
11 0.3
12 0.27
13 -0.14
14 0.12
16 0.27
17 0.27
18 -0.15
19 -0.15
2 -0.57
20 0.71
21 -0.15
22 -0.15
23 -0.24
24 -0.15
25 -0.15
27 -0.15
28 -0.15
29 0.19
3 -0.81
30 -0.15
4 -0.48
46 0.15
47 0.36
48 0.15
49 0.15
5 -0.9
50 0.15
51 0.27
52 0.15
53 0.15
54 0.15
55 0.15
6 0.03
7 0.14
8 0.27

> <PUBCHEM_EFFECTIVE_ROTOR_COUNT>
5.2

> <PUBCHEM_PHARMACOPHORE_FEATURES>
12
1 2 acceptor
1 3 cation
1 5 cation
1 5 donor
1 6 cation
1 6 donor
5 3 7 8 9 10 rings
5 4 7 11 13 14 rings
5 5 12 15 16 17 rings
5 6 23 24 25 26 rings
6 13 14 18 19 21 22 rings
6 25 26 27 28 29 30 rings

> <PUBCHEM_HEAVY_ATOM_COUNT>
30

> <PUBCHEM_ATOM_DEF_STEREO_COUNT>
1

> <PUBCHEM_ATOM_UDEF_STEREO_COUNT>
1

> <PUBCHEM_BOND_DEF_STEREO_COUNT>
0

> <PUBCHEM_BOND_UDEF_STEREO_COUNT>
0

> <PUBCHEM_ISOTOPIC_ATOM_COUNT>
0

> <PUBCHEM_COMPONENT_COUNT>
1

> <PUBCHEM_CACTVS_TAUTO_COUNT>
5

> <PUBCHEM_CONFORMER_ID>
03633C1100000001

> <PUBCHEM_MMFF94_ENERGY>
83.2108

> <PUBCHEM_FEATURE_SELFOVERLAP>
61.089

> <PUBCHEM_SHAPE_FINGERPRINT>
10305334 12 18052249596706302807
107951 10 18198065772556754087
10928967 22 18124602143766257422
10940486 97 18334584508090922156
11014199 57 18337955722035993732
11227688 84 17837483416618556820
114674 6 17325763081305554523
11763715 3 17974592465168091797
11991303 11 18186518792200542839
12236239 1 17971765376345792704
12633046 712 17975973482417949351
12788726 201 18408877447901504235
13726171 33 17985578686970443604
13785724 45 17980780538343124703
14040221 310 18337686273943203588
14251757 5 18411986827702776868
14508693 111 18189313784986634986
14659021 117 18337654361592694800
14790565 3 17907299853793481064
14866123 147 18340205198636199963
15042514 8 18412268350472890401
15131766 46 17024340550375951076
15250474 111 18334854988141063606
15320294 125 17899408689332711722
15439362 3 16895955735455809853
15927050 60 17982167813048095623
16628084 112 18191576463915505287
16719943 64 18196089932665272776
17859628 70 17257937525098431043
17909252 39 18194124247052549674
20771845 38 18051695439051142097
20775530 9 18116147959936127402
21133410 171 17617040002637143706
21133410 52 16473438204000549468
21133665 82 17767971935603558206
21315759 227 18190446354745325654
21703447 108 18127679650915608128
22849339 104 18268732540062001236
23559900 14 18130499731380941016
24893989 43 16041705101493383422
3383291 50 18339637833424730595
3737641 26 17977955905264867534
4015057 19 16915348079869797696
4073 2 18412259507525196098
44062 13 18341897355426018582
44426695 248 17765196867012972097
44880168 125 17345777281440247990
4616759 239 18058150775419360864
463206 1 18337387120364566498
508706 21 18272660004376652174
5309563 4 17979640361384533639
5385378 56 17477210427666307265
5912855 24 18265910226725967724
613672 6 17980456160426066443
6376802 90 18044345392398081076
7970288 3 18123191470099764070
79837 15 18269280067141361569
9981440 41 18050295760929013049

> <PUBCHEM_SHAPE_MULTIPOLES>
584.32
11.21
7.42
1.24
19.28
4.86
0.31
6.54
0.11
-12.14
-2.22
-0.21
0.78
-0.83

> <PUBCHEM_SHAPE_SELFOVERLAP>
1309.923

> <PUBCHEM_SHAPE_VOLUME>
315.4

> <PUBCHEM_COORDINATE_TYPE>
2
5
10

$$$$
