49830435
  -OEChem-10052120443D

 47 50  0     1  0  0  0  0  0999 V2000
   -6.2348    1.1572    0.7916 F   0  0  0  0  0  0  0  0  0  0  0  0
    2.1008   -1.4153    1.0483 O   0  0  0  0  0  0  0  0  0  0  0  0
    1.4041    2.6690    1.2456 N   0  0  0  0  0  0  0  0  0  0  0  0
    5.7048   -1.2279    0.4859 N   0  0  0  0  0  0  0  0  0  0  0  0
   -0.1887   -3.2885   -1.1043 N   0  0  0  0  0  0  0  0  0  0  0  0
    4.2496    0.7161    0.0528 C   0  0  0  0  0  0  0  0  0  0  0  0
    4.3881   -0.6538    0.7798 C   0  0  1  0  0  0  0  0  0  0  0  0
    2.9831    1.4399    0.2848 C   0  0  0  0  0  0  0  0  0  0  0  0
    1.8832    1.5321   -0.6132 C   0  0  0  0  0  0  0  0  0  0  0  0
    3.3159   -1.6639    0.3539 C   0  0  0  0  0  0  0  0  0  0  0  0
    0.9062    2.3083    0.0138 C   0  0  0  0  0  0  0  0  0  0  0  0
    2.6587    2.1488    1.4185 C   0  0  0  0  0  0  0  0  0  0  0  0
    1.6241    1.0280   -1.9032 C   0  0  0  0  0  0  0  0  0  0  0  0
   -0.3218    2.6070   -0.5872 C   0  0  0  0  0  0  0  0  0  0  0  0
    0.4001    1.3185   -2.5167 C   0  0  0  0  0  0  0  0  0  0  0  0
   -0.5564    2.0961   -1.8670 C   0  0  0  0  0  0  0  0  0  0  0  0
    0.9421   -1.7908    0.4199 C   0  0  0  0  0  0  0  0  0  0  0  0
   -0.2472   -1.1048    0.6399 C   0  0  0  0  0  0  0  0  0  0  0  0
   -1.4075   -1.5095   -0.0110 C   0  0  0  0  0  0  0  0  0  0  0  0
   -2.6577   -0.8175    0.1969 C   0  0  0  0  0  0  0  0  0  0  0  0
    0.9186   -2.8659   -0.4537 C   0  0  0  0  0  0  0  0  0  0  0  0
   -1.3259   -2.5975   -0.8652 C   0  0  0  0  0  0  0  0  0  0  0  0
   -2.9169   -0.1965    1.4188 C   0  0  0  0  0  0  0  0  0  0  0  0
   -3.6069   -0.7712   -0.8242 C   0  0  0  0  0  0  0  0  0  0  0  0
   -4.1253    0.4703    1.6198 C   0  0  0  0  0  0  0  0  0  0  0  0
   -4.8155   -0.1043   -0.6232 C   0  0  0  0  0  0  0  0  0  0  0  0
   -5.0746    0.5164    0.5988 C   0  0  0  0  0  0  0  0  0  0  0  0
    4.4003    0.5676   -1.0250 H   0  0  0  0  0  0  0  0  0  0  0  0
    5.0774    1.3653    0.3725 H   0  0  0  0  0  0  0  0  0  0  0  0
    4.3136   -0.4834    1.8614 H   0  0  0  0  0  0  0  0  0  0  0  0
    3.1932   -1.6143   -0.7366 H   0  0  0  0  0  0  0  0  0  0  0  0
    3.6326   -2.6809    0.6196 H   0  0  0  0  0  0  0  0  0  0  0  0
    3.2060    2.3297    2.3332 H   0  0  0  0  0  0  0  0  0  0  0  0
    0.9133    3.2349    1.9239 H   0  0  0  0  0  0  0  0  0  0  0  0
    2.3562    0.4179   -2.4243 H   0  0  0  0  0  0  0  0  0  0  0  0
    6.4339   -0.5851    0.7926 H   0  0  0  0  0  0  0  0  0  0  0  0
    5.8345   -2.0840    1.0237 H   0  0  0  0  0  0  0  0  0  0  0  0
   -1.0683    3.2100   -0.0813 H   0  0  0  0  0  0  0  0  0  0  0  0
    0.1937    0.9303   -3.5105 H   0  0  0  0  0  0  0  0  0  0  0  0
   -1.5016    2.3071   -2.3607 H   0  0  0  0  0  0  0  0  0  0  0  0
   -0.2279   -0.2526    1.3131 H   0  0  0  0  0  0  0  0  0  0  0  0
    1.7944   -3.4709   -0.6629 H   0  0  0  0  0  0  0  0  0  0  0  0
   -2.1848   -2.9999   -1.3931 H   0  0  0  0  0  0  0  0  0  0  0  0
   -2.2189   -0.2303    2.2508 H   0  0  0  0  0  0  0  0  0  0  0  0
   -3.4360   -1.2163   -1.8006 H   0  0  0  0  0  0  0  0  0  0  0  0
   -4.3303    0.9491    2.5727 H   0  0  0  0  0  0  0  0  0  0  0  0
   -5.5526   -0.0624   -1.4197 H   0  0  0  0  0  0  0  0  0  0  0  0
  1 27  1  0  0  0  0
  2 10  1  0  0  0  0
  2 17  1  0  0  0  0
  3 11  1  0  0  0  0
  3 12  1  0  0  0  0
  3 34  1  0  0  0  0
  4  7  1  0  0  0  0
  4 36  1  0  0  0  0
  4 37  1  0  0  0  0
  5 21  1  0  0  0  0
  5 22  2  0  0  0  0
  6  7  1  0  0  0  0
  6  8  1  0  0  0  0
  6 28  1  0  0  0  0
  6 29  1  0  0  0  0
  7 10  1  0  0  0  0
  7 30  1  0  0  0  0
  8  9  1  0  0  0  0
  8 12  2  0  0  0  0
  9 11  1  0  0  0  0
  9 13  2  0  0  0  0
 10 31  1  0  0  0  0
 10 32  1  0  0  0  0
 11 14  2  0  0  0  0
 12 33  1  0  0  0  0
 13 15  1  0  0  0  0
 13 35  1  0  0  0  0
 14 16  1  0  0  0  0
 14 38  1  0  0  0  0
 15 16  2  0  0  0  0
 15 39  1  0  0  0  0
 16 40  1  0  0  0  0
 17 18  1  0  0  0  0
 17 21  2  0  0  0  0
 18 19  2  0  0  0  0
 18 41  1  0  0  0  0
 19 20  1  0  0  0  0
 19 22  1  0  0  0  0
 20 23  2  0  0  0  0
 20 24  1  0  0  0  0
 21 42  1  0  0  0  0
 22 43  1  0  0  0  0
 23 25  1  0  0  0  0
 23 44  1  0  0  0  0
 24 26  2  0  0  0  0
 24 45  1  0  0  0  0
 25 27  2  0  0  0  0
 25 46  1  0  0  0  0
 26 27  1  0  0  0  0
 26 47  1  0  0  0  0
M  END
> <PUBCHEM_COMPOUND_CID>
49830435

> <PUBCHEM_CONFORMER_RMSD>
1

> <PUBCHEM_CONFORMER_DIVERSEORDER>
1
144
105
44
151
134
78
25
215
58
137
218
26
174
209
11
65
161
141
47
189
38
114
8
216
68
143
125
51
67
178
7
19
147
33
79
99
50
154
62
108
81
168
165
89
205
207
21
138
53
121
229
177
5
72
183
15
199
166
35
195
30
20
36
148
37
135
3
13
206
164
184
200
18
80
213
98
198
40
203
42
14
181
2
153
117
194
126
60
86
31
92
123
111
12
157
201
64
133
100
188
27
139
173
52
150
149
180
24
145
102
167
90
192
75
61
34
230
54
118
48
71
46
142
69
208
43
66
231
110
55
9
10
94
16
23
219
104
170
128
41
103
146
87
6
136
74
32
91
107
232
28
186
57
225
22
190
93
159
221
163
82
169
152
228
49
88
155
212
222
85
160
127
182
224
172
29
84
162
101
130
158
45
116
176
59
175
220
187
39
202
112
132
179
77
171
109
129
4
122
120
115
191
140
196
197
119
95
124
210
227
96
106
76
73
217
17
204
214
63
131
193
226
223
83
97
113
185
211
156
56
70

> <PUBCHEM_MMFF94_PARTIAL_CHARGES>
39
1 -0.19
10 0.28
11 -0.15
12 -0.3
13 -0.15
14 -0.15
15 -0.15
16 -0.15
17 0.08
18 -0.15
2 -0.36
21 0.16
22 0.16
23 -0.15
24 -0.15
25 -0.15
26 -0.15
27 0.19
3 0.03
33 0.15
34 0.27
35 0.15
36 0.36
37 0.36
38 0.15
39 0.15
4 -0.99
40 0.15
41 0.15
42 0.15
43 0.15
44 0.15
45 0.15
46 0.15
47 0.15
5 -0.62
6 0.18
7 0.27
8 -0.18

> <PUBCHEM_EFFECTIVE_ROTOR_COUNT>
6

> <PUBCHEM_PHARMACOPHORE_FEATURES>
10
1 2 acceptor
1 3 cation
1 3 donor
1 4 cation
1 4 donor
1 5 acceptor
5 3 8 9 11 12 rings
6 20 23 24 25 26 27 rings
6 5 17 18 19 21 22 rings
6 9 11 13 14 15 16 rings

> <PUBCHEM_HEAVY_ATOM_COUNT>
27

> <PUBCHEM_ATOM_DEF_STEREO_COUNT>
0

> <PUBCHEM_ATOM_UDEF_STEREO_COUNT>
1

> <PUBCHEM_BOND_DEF_STEREO_COUNT>
0

> <PUBCHEM_BOND_UDEF_STEREO_COUNT>
0

> <PUBCHEM_ISOTOPIC_ATOM_COUNT>
0

> <PUBCHEM_COMPONENT_COUNT>
1

> <PUBCHEM_CACTVS_TAUTO_COUNT>
1

> <PUBCHEM_CONFORMER_ID>
02F85A2300000001

> <PUBCHEM_MMFF94_ENERGY>
66.3777

> <PUBCHEM_FEATURE_SELFOVERLAP>
50.838

> <PUBCHEM_SHAPE_FINGERPRINT>
104564 63 18261106314748338540
10688039 33 17603866646138139052
10708813 3 18268422623769547375
12156800 1 16764832471478008422
12422481 6 18116997689039866673
12633257 1 18273212019390348592
13075007 39 17823438109335954987
13140716 1 18336828696710745146
13402501 40 18187921717034026245
13726171 33 16515685490176888148
13965767 371 18265031665516567346
14178342 30 17689988355726969808
14840074 17 18260835903565080604
14955137 171 18339095829457593218
1601671 61 18410855434532762786
17357779 13 18187352195516677094
20691752 17 17677595622847533978
21033648 29 17458891692015222567
21298829 104 18129102230431788913
23184049 59 18335421291677673707
23559900 14 17274279321508476140
27425 322 15696559274601553523
3459 110 18043267910284982715
474 4 18342740689635417803
508706 21 17458611334051950863
513532 50 17774735164015399743
550186 7 15961485862601717180
58260988 393 15357690869221396124
5895379 119 16988021400334241201
6328613 192 18268435810016056376
7832392 63 18267297828007182746

> <PUBCHEM_SHAPE_MULTIPOLES>
527.56
9.44
3.43
1.69
6.13
0.69
-0.58
-0.34
3.77
-1.58
-0.69
0.26
-0.79
-0.53

> <PUBCHEM_SHAPE_SELFOVERLAP>
1165.13

> <PUBCHEM_SHAPE_VOLUME>
285.1

> <PUBCHEM_COORDINATE_TYPE>
2
5
10

$$$$
