49830432
  -OEChem-10052115183D

 46 50  0     0  0  0  0  0  0999 V2000
   -1.7119   -1.6012    0.7616 N   0  0  0  0  0  0  0  0  0  0  0  0
   -0.0527   -2.8636    0.2318 N   0  0  0  0  0  0  0  0  0  0  0  0
   -1.3640   -2.8588    0.4444 N   0  0  0  0  0  0  0  0  0  0  0  0
    5.6297    0.0758   -0.3304 N   0  0  0  0  0  0  0  0  0  0  0  0
    5.5403    0.9951   -1.3060 N   0  0  0  0  0  0  0  0  0  0  0  0
    3.6456    1.8161   -2.5173 N   0  0  0  0  0  0  0  0  0  0  0  0
   -0.6360   -0.7678    0.7617 C   0  0  0  0  0  0  0  0  0  0  0  0
    0.4085   -1.5906    0.4220 C   0  0  0  0  0  0  0  0  0  0  0  0
    1.7855   -1.2051    0.2800 C   0  0  0  0  0  0  0  0  0  0  0  0
   -3.0911   -1.2875    1.0460 C   0  0  0  0  0  0  0  0  0  0  0  0
    3.4860    0.1286   -0.7895 C   0  0  0  0  0  0  0  0  0  0  0  0
   -0.7006    0.6410    1.0636 C   0  0  0  0  0  0  0  0  0  0  0  0
    2.1343   -0.2335   -0.6664 C   0  0  0  0  0  0  0  0  0  0  0  0
    4.4319   -0.4829    0.0258 C   0  0  0  0  0  0  0  0  0  0  0  0
    2.7559   -1.8034    1.0861 C   0  0  0  0  0  0  0  0  0  0  0  0
   -3.7991   -0.6110   -0.1015 C   0  0  0  0  0  0  0  0  0  0  0  0
    4.1055   -1.4533    0.9756 C   0  0  0  0  0  0  0  0  0  0  0  0
    4.2347    1.0250   -1.5824 C   0  0  0  0  0  0  0  0  0  0  0  0
   -0.9215    1.5639    0.0413 C   0  0  0  0  0  0  0  0  0  0  0  0
   -0.5423    1.0806    2.3778 C   0  0  0  0  0  0  0  0  0  0  0  0
   -4.3969    0.6354    0.0850 C   0  0  0  0  0  0  0  0  0  0  0  0
   -3.8561   -1.2320   -1.3491 C   0  0  0  0  0  0  0  0  0  0  0  0
   -0.9840    2.9265    0.3331 C   0  0  0  0  0  0  0  0  0  0  0  0
   -0.6047    2.4431    2.6698 C   0  0  0  0  0  0  0  0  0  0  0  0
   -0.8256    3.3661    1.6474 C   0  0  0  0  0  0  0  0  0  0  0  0
   -5.0518    1.2607   -0.9762 C   0  0  0  0  0  0  0  0  0  0  0  0
   -4.5108   -0.6069   -2.4102 C   0  0  0  0  0  0  0  0  0  0  0  0
   -5.1088    0.6395   -2.2237 C   0  0  0  0  0  0  0  0  0  0  0  0
   -3.6138   -2.2193    1.2953 H   0  0  0  0  0  0  0  0  0  0  0  0
   -3.1085   -0.6695    1.9511 H   0  0  0  0  0  0  0  0  0  0  0  0
    1.3891    0.2237   -1.3106 H   0  0  0  0  0  0  0  0  0  0  0  0
    2.4755   -2.5565    1.8204 H   0  0  0  0  0  0  0  0  0  0  0  0
    4.8605   -1.9164    1.6010 H   0  0  0  0  0  0  0  0  0  0  0  0
   -1.0487    1.2385   -0.9885 H   0  0  0  0  0  0  0  0  0  0  0  0
   -0.3696    0.3739    3.1860 H   0  0  0  0  0  0  0  0  0  0  0  0
    6.5445   -0.1266    0.0530 H   0  0  0  0  0  0  0  0  0  0  0  0
   -4.3599    1.1313    1.0513 H   0  0  0  0  0  0  0  0  0  0  0  0
   -3.4043   -2.2066   -1.5115 H   0  0  0  0  0  0  0  0  0  0  0  0
   -1.1568    3.6448   -0.4628 H   0  0  0  0  0  0  0  0  0  0  0  0
   -0.4816    2.7855    3.6930 H   0  0  0  0  0  0  0  0  0  0  0  0
   -0.8746    4.4270    1.8747 H   0  0  0  0  0  0  0  0  0  0  0  0
   -5.5168    2.2314   -0.8310 H   0  0  0  0  0  0  0  0  0  0  0  0
   -4.5569   -1.0912   -3.3812 H   0  0  0  0  0  0  0  0  0  0  0  0
    4.1834    2.4609   -3.0879 H   0  0  0  0  0  0  0  0  0  0  0  0
    2.6464    1.8108   -2.6982 H   0  0  0  0  0  0  0  0  0  0  0  0
   -5.6188    1.1262   -3.0499 H   0  0  0  0  0  0  0  0  0  0  0  0
  1  3  1  0  0  0  0
  1  7  1  0  0  0  0
  1 10  1  0  0  0  0
  2  3  2  0  0  0  0
  2  8  1  0  0  0  0
  4  5  1  0  0  0  0
  4 14  1  0  0  0  0
  4 36  1  0  0  0  0
  5 18  2  0  0  0  0
  6 18  1  0  0  0  0
  6 44  1  0  0  0  0
  6 45  1  0  0  0  0
  7  8  2  0  0  0  0
  7 12  1  0  0  0  0
  8  9  1  0  0  0  0
  9 13  2  0  0  0  0
  9 15  1  0  0  0  0
 10 16  1  0  0  0  0
 10 29  1  0  0  0  0
 10 30  1  0  0  0  0
 11 13  1  0  0  0  0
 11 14  2  0  0  0  0
 11 18  1  0  0  0  0
 12 19  2  0  0  0  0
 12 20  1  0  0  0  0
 13 31  1  0  0  0  0
 14 17  1  0  0  0  0
 15 17  2  0  0  0  0
 15 32  1  0  0  0  0
 16 21  2  0  0  0  0
 16 22  1  0  0  0  0
 17 33  1  0  0  0  0
 19 23  1  0  0  0  0
 19 34  1  0  0  0  0
 20 24  2  0  0  0  0
 20 35  1  0  0  0  0
 21 26  1  0  0  0  0
 21 37  1  0  0  0  0
 22 27  2  0  0  0  0
 22 38  1  0  0  0  0
 23 25  2  0  0  0  0
 23 39  1  0  0  0  0
 24 25  1  0  0  0  0
 24 40  1  0  0  0  0
 25 41  1  0  0  0  0
 26 28  2  0  0  0  0
 26 42  1  0  0  0  0
 27 28  1  0  0  0  0
 27 43  1  0  0  0  0
 28 46  1  0  0  0  0
M  END
> <PUBCHEM_COMPOUND_CID>
49830432

> <PUBCHEM_CONFORMER_RMSD>
0.8

> <PUBCHEM_CONFORMER_DIVERSEORDER>
1
29
14
17
23
25
13
32
24
21
18
31
26
4
30
3
20
22
19
10
28
15
12
2
27
8
16
7
11
6
9
5

> <PUBCHEM_MMFF94_PARTIAL_CHARGES>
43
1 0.31
10 0.4
12 0.05
13 -0.15
14 -0.15
15 -0.15
16 -0.14
17 -0.15
18 0.37
19 -0.15
2 -0.23
20 -0.15
21 -0.15
22 -0.15
23 -0.15
24 -0.15
25 -0.15
26 -0.15
27 -0.15
28 -0.15
3 -0.42
31 0.15
32 0.15
33 0.15
34 0.15
35 0.15
36 0.27
37 0.15
38 0.15
39 0.15
4 0.3
40 0.15
41 0.15
42 0.15
43 0.15
44 0.4
45 0.4
46 0.15
5 -0.71
6 -0.88
7 -0.2
8 0.17
9 0.05

> <PUBCHEM_EFFECTIVE_ROTOR_COUNT>
4

> <PUBCHEM_PHARMACOPHORE_FEATURES>
8
1 4 donor
1 6 donor
3 5 6 18 cation
5 1 2 3 7 8 rings
5 4 5 11 14 18 rings
6 12 19 20 23 24 25 rings
6 16 21 22 26 27 28 rings
6 9 11 13 14 15 17 rings

> <PUBCHEM_HEAVY_ATOM_COUNT>
28

> <PUBCHEM_ATOM_DEF_STEREO_COUNT>
0

> <PUBCHEM_ATOM_UDEF_STEREO_COUNT>
0

> <PUBCHEM_BOND_DEF_STEREO_COUNT>
0

> <PUBCHEM_BOND_UDEF_STEREO_COUNT>
0

> <PUBCHEM_ISOTOPIC_ATOM_COUNT>
0

> <PUBCHEM_COMPONENT_COUNT>
1

> <PUBCHEM_CACTVS_TAUTO_COUNT>
13

> <PUBCHEM_CONFORMER_ID>
02F85A2000000001

> <PUBCHEM_MMFF94_ENERGY>
67.6374

> <PUBCHEM_FEATURE_SELFOVERLAP>
40.69

> <PUBCHEM_SHAPE_FINGERPRINT>
10692045 39 13840526446968797272
11961588 58 16950827181815643639
12293681 160 18412261731294830371
12788726 201 18272092630448543105
13149001 5 18055905735262154243
13544653 18 13614238217734306639
13583140 156 16805619048351804776
13911987 19 18411143554029784119
14251757 17 17749388208650022317
14713325 29 17242185749836005083
14739800 52 14852703840433032365
15420108 30 16825015245478479474
15775530 1 17763736994438365995
16752209 62 18342738477405097818
17349148 13 18337952281951825458
17357779 13 17917994992121536328
17492 54 18409442588113783103
17959699 21 17822009826203516086
1813 80 17060048276903055141
19319366 153 18120932799192194123
19438510 23 15720504336385216325
20511986 3 18041830814216554146
20642791 239 18336270148993294384
20715895 44 17968649398661519205
20775438 99 17121380315644073703
21033648 29 14346084070351026565
21304303 64 18187374220579047333
2132832 1 17974835191066279418
22182313 1 18052807333059459459
22907989 373 18340502100787434160
23402539 116 18202004326139209542
23558518 356 17906743501078443451
23559900 14 18335698304764217130
2838139 119 17385713690901224327
3298306 158 17624689455312745224
3493558 16 17895471415101735037
394222 165 17676479506496715611
4017518 198 16122435532077671144
465052 167 10879696741752970959
532947 4 17914040156245013952
6913067 236 16988837259795511574

> <PUBCHEM_SHAPE_MULTIPOLES>
546.34
11.04
3.06
2.27
3.51
1.47
-0.61
-0.57
-8.31
-0.97
1.58
-0.39
1.04
-1.71

> <PUBCHEM_SHAPE_SELFOVERLAP>
1232.21

> <PUBCHEM_SHAPE_VOLUME>
289

> <PUBCHEM_COORDINATE_TYPE>
2
5
10

$$$$
