600129
  -OEChem-10062121523D

 31 33  0     1  0  0  0  0  0999 V2000
    2.6779    0.0612   -2.5861 I   0  0  0  0  0  0  0  0  0  0  0  0
   -2.7079   -0.3446    0.6178 O   0  0  0  0  0  0  0  0  0  0  0  0
   -1.9041    2.8672   -0.0496 N   0  0  0  0  0  0  0  0  0  0  0  0
   -2.7683    1.9745    0.4793 N   0  0  0  0  0  0  0  0  0  0  0  0
   -2.7171   -2.6618    0.6438 N   0  0  0  0  0  0  0  0  0  0  0  0
    0.3243   -3.7714   -0.9628 N   0  0  0  0  0  0  0  0  0  0  0  0
   -0.0813   -0.2390   -0.7239 C   0  0  1  0  0  0  0  0  0  0  0  0
   -0.9065    0.9474   -0.3873 C   0  0  0  0  0  0  0  0  0  0  0  0
    1.1638   -0.0484    0.0799 C   0  0  0  0  0  0  0  0  0  0  0  0
   -0.8159   -1.5291   -0.3362 C   0  0  0  0  0  0  0  0  0  0  0  0
   -0.7792    2.3011   -0.5914 C   0  0  0  0  0  0  0  0  0  0  0  0
   -2.1443    0.8225    0.2535 C   0  0  0  0  0  0  0  0  0  0  0  0
   -2.0304   -1.5330    0.2849 C   0  0  0  0  0  0  0  0  0  0  0  0
    2.4198    0.0966   -0.5102 C   0  0  0  0  0  0  0  0  0  0  0  0
    1.0396   -0.0179    1.4694 C   0  0  0  0  0  0  0  0  0  0  0  0
    0.2700    3.1115   -1.2318 C   0  0  0  0  0  0  0  0  0  0  0  0
    3.5502    0.2718    0.2881 C   0  0  0  0  0  0  0  0  0  0  0  0
    2.1700    0.1573    2.2677 C   0  0  0  0  0  0  0  0  0  0  0  0
   -0.1860   -2.7681   -0.6823 C   0  0  0  0  0  0  0  0  0  0  0  0
    3.4254    0.3022    1.6771 C   0  0  0  0  0  0  0  0  0  0  0  0
    0.0437   -0.2523   -1.8077 H   0  0  0  0  0  0  0  0  0  0  0  0
   -2.1494    3.8488   -0.0121 H   0  0  0  0  0  0  0  0  0  0  0  0
    0.0834   -0.1342    1.9718 H   0  0  0  0  0  0  0  0  0  0  0  0
    1.2030    3.0571   -0.6629 H   0  0  0  0  0  0  0  0  0  0  0  0
    0.4612    2.7585   -2.2496 H   0  0  0  0  0  0  0  0  0  0  0  0
   -0.0171    4.1663   -1.2977 H   0  0  0  0  0  0  0  0  0  0  0  0
    4.5392    0.3870   -0.1484 H   0  0  0  0  0  0  0  0  0  0  0  0
    2.0734    0.1793    3.3493 H   0  0  0  0  0  0  0  0  0  0  0  0
    4.3053    0.4382    2.2990 H   0  0  0  0  0  0  0  0  0  0  0  0
   -2.3393   -3.5822    0.4611 H   0  0  0  0  0  0  0  0  0  0  0  0
   -3.6148   -2.5617    1.1005 H   0  0  0  0  0  0  0  0  0  0  0  0
  1 14  1  0  0  0  0
  2 12  1  0  0  0  0
  2 13  1  0  0  0  0
  3  4  1  0  0  0  0
  3 11  1  0  0  0  0
  3 22  1  0  0  0  0
  4 12  2  0  0  0  0
  5 13  1  0  0  0  0
  5 30  1  0  0  0  0
  5 31  1  0  0  0  0
  6 19  3  0  0  0  0
  7  8  1  0  0  0  0
  7  9  1  0  0  0  0
  7 10  1  0  0  0  0
  7 21  1  0  0  0  0
  8 11  2  0  0  0  0
  8 12  1  0  0  0  0
  9 14  1  0  0  0  0
  9 15  2  0  0  0  0
 10 13  2  0  0  0  0
 10 19  1  0  0  0  0
 11 16  1  0  0  0  0
 14 17  2  0  0  0  0
 15 18  1  0  0  0  0
 15 23  1  0  0  0  0
 16 24  1  0  0  0  0
 16 25  1  0  0  0  0
 16 26  1  0  0  0  0
 17 20  1  0  0  0  0
 17 27  1  0  0  0  0
 18 20  2  0  0  0  0
 18 28  1  0  0  0  0
 20 29  1  0  0  0  0
M  END
> <PUBCHEM_COMPOUND_CID>
600129

> <PUBCHEM_CONFORMER_RMSD>
0.6

> <PUBCHEM_CONFORMER_DIVERSEORDER>
1
2

> <PUBCHEM_MMFF94_PARTIAL_CHARGES>
27
1 -0.08
10 -0.07
11 -0.33
12 0.35
13 0.18
14 0.08
15 -0.15
16 0.18
17 -0.15
18 -0.15
19 0.49
2 -0.14
20 -0.15
22 0.27
23 0.15
27 0.15
28 0.15
29 0.15
3 0.3
30 0.4
31 0.4
4 -0.71
5 -0.9
6 -0.56
7 0.46
8 -0.18
9 -0.14

> <PUBCHEM_EFFECTIVE_ROTOR_COUNT>
1.4

> <PUBCHEM_PHARMACOPHORE_FEATURES>
8
1 1 hydrophobe
1 3 donor
1 5 cation
1 5 donor
1 6 acceptor
5 3 4 8 11 12 rings
6 2 7 8 10 12 13 rings
6 9 14 15 17 18 20 rings

> <PUBCHEM_HEAVY_ATOM_COUNT>
20

> <PUBCHEM_ATOM_DEF_STEREO_COUNT>
0

> <PUBCHEM_ATOM_UDEF_STEREO_COUNT>
1

> <PUBCHEM_BOND_DEF_STEREO_COUNT>
0

> <PUBCHEM_BOND_UDEF_STEREO_COUNT>
0

> <PUBCHEM_ISOTOPIC_ATOM_COUNT>
0

> <PUBCHEM_COMPONENT_COUNT>
1

> <PUBCHEM_CACTVS_TAUTO_COUNT>
4

> <PUBCHEM_CONFORMER_ID>
0009284100000001

> <PUBCHEM_MMFF94_ENERGY>
49.3288

> <PUBCHEM_FEATURE_SELFOVERLAP>
40.712

> <PUBCHEM_SHAPE_FINGERPRINT>
10165383 225 17910706200713569712
11112241 14 16698316571270484754
12716301 132 18342736312757385202
13140716 1 18266187317178885761
13538477 17 18113330908087246512
13583140 156 17482220086415011442
14022347 108 18120952851382324766
14817 1 14682520296334389688
15375462 175 18339094751515325174
15852999 172 17902480754331185549
16945 1 18337121102526572709
19049666 15 17775014431647925482
20600515 1 18053082197632789727
21421861 104 16608285637814001403
22112679 90 18113903783747142196
22149856 69 17615420156592148369
2334 1 17978241778863069869
23419403 2 17345217561074638612
23526113 38 17631741443914935806
23557571 272 18270413809927687364
23598288 3 18115012095826269514
23598294 1 18335707177986607204
2748010 2 18341621390613118287
3286 77 16557372468542733215
34934 24 17618511325171442837
350125 39 17762627191973671441
5845 1 17620716876587334944
7364860 26 17551221870438831207
77492 1 17603590746303161540
81228 2 18125415734840671594
90525 40 18334289834257138970

> <PUBCHEM_SHAPE_MULTIPOLES>
397.73
4.67
3.44
1.93
1.32
0.63
0.03
-0.09
-0.95
-2.71
1.31
2.48
0
0.09

> <PUBCHEM_SHAPE_SELFOVERLAP>
857.649

> <PUBCHEM_SHAPE_VOLUME>
223.7

> <PUBCHEM_COORDINATE_TYPE>
2
5
10

$$$$
