49830930
  -OEChem-10062121523D

 36 38  0     0  0  0  0  0  0999 V2000
    3.6356   -0.5945   -1.6432 F   0  0  0  0  0  0  0  0  0  0  0  0
    5.8089    1.0369   -1.5156 F   0  0  0  0  0  0  0  0  0  0  0  0
   -5.0871   -0.6917   -0.1252 O   0  0  0  0  0  0  0  0  0  0  0  0
   -2.9246    0.2144   -0.0032 N   0  0  0  0  0  0  0  0  0  0  0  0
   -1.4965   -2.9513    0.1331 N   0  0  0  0  0  0  0  0  0  0  0  0
   -2.5950   -2.1778    0.0528 N   0  0  0  0  0  0  0  0  0  0  0  0
    0.9121   -2.7248    0.2804 N   0  0  0  0  0  0  0  0  0  0  0  0
    1.8875   -1.8290    0.3281 N   0  0  0  0  0  0  0  0  0  0  0  0
   -0.6953   -0.9068    0.1528 C   0  0  0  0  0  0  0  0  0  0  0  0
   -2.1011   -0.9345    0.0653 C   0  0  0  0  0  0  0  0  0  0  0  0
   -0.3366   -2.2405    0.1951 C   0  0  0  0  0  0  0  0  0  0  0  0
   -4.7981    1.7015   -0.1728 C   0  0  0  0  0  0  0  0  0  0  0  0
    0.3264    0.0374    0.2029 C   0  0  0  0  0  0  0  0  0  0  0  0
    1.6026   -0.5007    0.2907 C   0  0  0  0  0  0  0  0  0  0  0  0
   -6.3159    1.8397   -0.2717 C   0  0  0  0  0  0  0  0  0  0  0  0
   -4.3132    0.2592   -0.0908 C   0  0  0  0  0  0  0  0  0  0  0  0
    2.7594    0.3614    0.3503 C   0  0  0  0  0  0  0  0  0  0  0  0
   -6.7658    3.2919   -0.3515 C   0  0  0  0  0  0  0  0  0  0  0  0
    3.7458    0.2801   -0.6326 C   0  0  0  0  0  0  0  0  0  0  0  0
    2.8896    1.2765    1.3951 C   0  0  0  0  0  0  0  0  0  0  0  0
    4.8623    1.1137   -0.5708 C   0  0  0  0  0  0  0  0  0  0  0  0
    4.0062    2.1101    1.4568 C   0  0  0  0  0  0  0  0  0  0  0  0
    4.9927    2.0287    0.4739 C   0  0  0  0  0  0  0  0  0  0  0  0
   -4.3291    2.1670   -1.0484 H   0  0  0  0  0  0  0  0  0  0  0  0
   -4.4388    2.2306    0.7184 H   0  0  0  0  0  0  0  0  0  0  0  0
    0.1325    1.1029    0.1704 H   0  0  0  0  0  0  0  0  0  0  0  0
   -6.7869    1.3651    0.5975 H   0  0  0  0  0  0  0  0  0  0  0  0
   -6.6784    1.3028   -1.1566 H   0  0  0  0  0  0  0  0  0  0  0  0
   -2.4161    1.0955    0.0136 H   0  0  0  0  0  0  0  0  0  0  0  0
   -1.6146   -3.9568    0.1406 H   0  0  0  0  0  0  0  0  0  0  0  0
   -6.4518    3.8475    0.5378 H   0  0  0  0  0  0  0  0  0  0  0  0
   -7.8566    3.3480   -0.4211 H   0  0  0  0  0  0  0  0  0  0  0  0
   -6.3421    3.7843   -1.2325 H   0  0  0  0  0  0  0  0  0  0  0  0
    2.1355    1.3523    2.1750 H   0  0  0  0  0  0  0  0  0  0  0  0
    4.1086    2.8217    2.2709 H   0  0  0  0  0  0  0  0  0  0  0  0
    5.8621    2.6776    0.5217 H   0  0  0  0  0  0  0  0  0  0  0  0
  1 19  1  0  0  0  0
  2 21  1  0  0  0  0
  3 16  2  0  0  0  0
  4 10  1  0  0  0  0
  4 16  1  0  0  0  0
  4 29  1  0  0  0  0
  5  6  1  0  0  0  0
  5 11  1  0  0  0  0
  5 30  1  0  0  0  0
  6 10  2  0  0  0  0
  7  8  1  0  0  0  0
  7 11  2  0  0  0  0
  8 14  2  0  0  0  0
  9 10  1  0  0  0  0
  9 11  1  0  0  0  0
  9 13  2  0  0  0  0
 12 15  1  0  0  0  0
 12 16  1  0  0  0  0
 12 24  1  0  0  0  0
 12 25  1  0  0  0  0
 13 14  1  0  0  0  0
 13 26  1  0  0  0  0
 14 17  1  0  0  0  0
 15 18  1  0  0  0  0
 15 27  1  0  0  0  0
 15 28  1  0  0  0  0
 17 19  2  0  0  0  0
 17 20  1  0  0  0  0
 18 31  1  0  0  0  0
 18 32  1  0  0  0  0
 18 33  1  0  0  0  0
 19 21  1  0  0  0  0
 20 22  2  0  0  0  0
 20 34  1  0  0  0  0
 21 23  2  0  0  0  0
 22 23  1  0  0  0  0
 22 35  1  0  0  0  0
 23 36  1  0  0  0  0
M  END
> <PUBCHEM_COMPOUND_CID>
49830930

> <PUBCHEM_CONFORMER_RMSD>
0.8

> <PUBCHEM_CONFORMER_DIVERSEORDER>
1
34
32
49
10
36
20
26
40
37
11
45
9
33
48
38
18
13
39
31
17
21
46
27
47
24
29
35
12
41
22
42
15
44
16
2
14
8
25
28
3
43
30
6
19
5
23
7
4

> <PUBCHEM_MMFF94_PARTIAL_CHARGES>
25
1 -0.19
10 0.35
11 0.11
12 0.06
13 -0.15
14 0.31
16 0.57
19 0.19
2 -0.19
20 -0.15
21 0.19
22 -0.15
23 -0.15
26 0.15
29 0.37
3 -0.57
30 0.27
34 0.15
35 0.15
36 0.15
4 -0.49
5 0.3
6 -0.71
7 -0.26
8 -0.31

> <PUBCHEM_EFFECTIVE_ROTOR_COUNT>
5

> <PUBCHEM_PHARMACOPHORE_FEATURES>
9
1 18 hydrophobe
1 3 acceptor
1 4 donor
1 5 donor
1 8 acceptor
3 5 7 11 cation
5 5 6 9 10 11 rings
6 17 19 20 21 22 23 rings
6 7 8 9 11 13 14 rings

> <PUBCHEM_HEAVY_ATOM_COUNT>
23

> <PUBCHEM_ATOM_DEF_STEREO_COUNT>
0

> <PUBCHEM_ATOM_UDEF_STEREO_COUNT>
0

> <PUBCHEM_BOND_DEF_STEREO_COUNT>
0

> <PUBCHEM_BOND_UDEF_STEREO_COUNT>
0

> <PUBCHEM_ISOTOPIC_ATOM_COUNT>
0

> <PUBCHEM_COMPONENT_COUNT>
1

> <PUBCHEM_CACTVS_TAUTO_COUNT>
15

> <PUBCHEM_CONFORMER_ID>
02F85C1200000001

> <PUBCHEM_MMFF94_ENERGY>
47.5031

> <PUBCHEM_FEATURE_SELFOVERLAP>
45.782

> <PUBCHEM_SHAPE_FINGERPRINT>
10378564 45 18131073693165551684
10411042 1 17330269473058111475
10498660 4 18341895216131541168
11796584 16 10447660062856880791
12293681 160 18060420188440323913
12390115 104 18413116065379152147
12403259 118 17822579412219052121
12403259 415 18342461490516009689
12596602 18 16298384690737403233
12633257 1 16081093692702997045
12730499 353 18341902887233580699
12892183 10 13840251577023429310
13540713 5 18265029428092826683
13878862 14 17973139774411893029
13944108 23 17981047405877676585
14251740 57 8069737524927891993
14251764 75 18199190582238865761
14341114 328 16660361514865625953
14528608 73 18343294847895850301
14790565 3 18335424624841918621
14848178 96 18342174453667829873
14931854 50 18059583446890737640
15238133 3 18339067238287149888
15475509 35 15793417324145680691
1601671 61 18114181942940606708
18186145 218 17987246697516778130
200 152 15769233742402987594
20645477 56 18340773753057920267
20645477 70 16916802820089501614
20715895 44 18412257337691590056
21033648 29 18340481261543005737
21279426 13 18272658939261093992
221357 26 17632580443779516873
22289505 5 18060421322333151984
23559900 14 18201444731346212384
270888 7 18409163299328608797
2748736 6 18335126558870780245
2838139 119 18342448274875330829
293599 30 18409731759613917805
312425 54 11891601396136196493
335352 9 18339078194970527406
350125 39 18262513672578590610
495365 180 17346031281827046186
5104073 3 18186799137506201635
56616090 163 18411704291747759859
59682541 35 18260842484605407209
59682541 52 16988564558888419269
636775 72 18123183774051490128
76465 3 10231752293052217791
77188 2 17256240446186992203
7808743 9 18334573593998396936
8863177 126 11958577150815980525

> <PUBCHEM_SHAPE_MULTIPOLES>
428.01
14.78
3.24
1.01
14.52
0.48
-0.09
-16.29
-3.07
2.72
0.37
-1.62
-0.37
1.01

> <PUBCHEM_SHAPE_SELFOVERLAP>
935.008

> <PUBCHEM_SHAPE_VOLUME>
232.8

> <PUBCHEM_COORDINATE_TYPE>
2
5
10

$$$$
