9796455
  -OEChem-10052115143D

 43 45  0     0  0  0  0  0  0999 V2000
    6.5075   -0.2578    1.4054 O   0  0  0  0  0  0  0  0  0  0  0  0
   -4.2279   -1.9748   -0.4508 O   0  0  0  0  0  0  0  0  0  0  0  0
   -5.2372    0.4186    0.5452 O   0  0  0  0  0  0  0  0  0  0  0  0
    2.3373    0.8333   -0.4608 N   0  0  0  0  0  0  0  0  0  0  0  0
    0.1506   -0.1206   -0.4646 N   0  0  0  0  0  0  0  0  0  0  0  0
   -0.8570    2.2692    0.5319 N   0  0  0  0  0  0  0  0  0  0  0  0
    2.9744   -0.3621   -0.9776 C   0  0  0  0  0  0  0  0  0  0  0  0
    3.1441   -1.3976    0.1384 C   0  0  0  0  0  0  0  0  0  0  0  0
    4.3096    0.0022   -1.6328 C   0  0  0  0  0  0  0  0  0  0  0  0
    5.5590   -0.7094    0.4448 C   0  0  0  0  0  0  0  0  0  0  0  0
    4.2368   -1.0268    1.1395 C   0  0  0  0  0  0  0  0  0  0  0  0
    5.3858    0.3747   -0.6153 C   0  0  0  0  0  0  0  0  0  0  0  0
    0.9802    0.9296   -0.2206 C   0  0  0  0  0  0  0  0  0  0  0  0
    0.4540    2.1097    0.2759 C   0  0  0  0  0  0  0  0  0  0  0  0
   -1.1632    0.0188   -0.2152 C   0  0  0  0  0  0  0  0  0  0  0  0
   -1.6735    1.2289    0.2893 C   0  0  0  0  0  0  0  0  0  0  0  0
   -2.0384   -1.0382   -0.4544 C   0  0  0  0  0  0  0  0  0  0  0  0
   -3.0402    1.3375    0.5359 C   0  0  0  0  0  0  0  0  0  0  0  0
   -3.4044   -0.9192   -0.2042 C   0  0  0  0  0  0  0  0  0  0  0  0
   -3.9074    0.2738    0.2930 C   0  0  0  0  0  0  0  0  0  0  0  0
   -4.4396   -2.8963    0.6177 C   0  0  0  0  0  0  0  0  0  0  0  0
   -6.0507    0.9065   -0.5205 C   0  0  0  0  0  0  0  0  0  0  0  0
    2.3390   -0.7906   -1.7637 H   0  0  0  0  0  0  0  0  0  0  0  0
    3.4106   -2.3593   -0.3195 H   0  0  0  0  0  0  0  0  0  0  0  0
    2.2043   -1.5637    0.6772 H   0  0  0  0  0  0  0  0  0  0  0  0
    4.1760    0.8301   -2.3398 H   0  0  0  0  0  0  0  0  0  0  0  0
    4.6636   -0.8575   -2.2162 H   0  0  0  0  0  0  0  0  0  0  0  0
    5.9574   -1.6220   -0.0145 H   0  0  0  0  0  0  0  0  0  0  0  0
    3.9192   -0.1660    1.7420 H   0  0  0  0  0  0  0  0  0  0  0  0
    4.3838   -1.8458    1.8541 H   0  0  0  0  0  0  0  0  0  0  0  0
    6.3392    0.5397   -1.1325 H   0  0  0  0  0  0  0  0  0  0  0  0
    5.1481    1.3324   -0.1355 H   0  0  0  0  0  0  0  0  0  0  0  0
    2.9268    1.5181    0.0009 H   0  0  0  0  0  0  0  0  0  0  0  0
    7.3412   -0.0838    0.9362 H   0  0  0  0  0  0  0  0  0  0  0  0
    1.0741    2.9745    0.4858 H   0  0  0  0  0  0  0  0  0  0  0  0
   -1.6497   -1.9771   -0.8454 H   0  0  0  0  0  0  0  0  0  0  0  0
   -3.4413    2.2712    0.9269 H   0  0  0  0  0  0  0  0  0  0  0  0
   -4.8948   -2.3925    1.4762 H   0  0  0  0  0  0  0  0  0  0  0  0
   -3.4951   -3.3639    0.9132 H   0  0  0  0  0  0  0  0  0  0  0  0
   -5.1216   -3.6758    0.2674 H   0  0  0  0  0  0  0  0  0  0  0  0
   -5.7299    1.9095   -0.8193 H   0  0  0  0  0  0  0  0  0  0  0  0
   -7.0836    0.9604   -0.1658 H   0  0  0  0  0  0  0  0  0  0  0  0
   -6.0099    0.2275   -1.3781 H   0  0  0  0  0  0  0  0  0  0  0  0
  1 10  1  0  0  0  0
  1 34  1  0  0  0  0
  2 19  1  0  0  0  0
  2 21  1  0  0  0  0
  3 20  1  0  0  0  0
  3 22  1  0  0  0  0
  4  7  1  0  0  0  0
  4 13  1  0  0  0  0
  4 33  1  0  0  0  0
  5 13  2  0  0  0  0
  5 15  1  0  0  0  0
  6 14  2  0  0  0  0
  6 16  1  0  0  0  0
  7  8  1  0  0  0  0
  7  9  1  0  0  0  0
  7 23  1  0  0  0  0
  8 11  1  0  0  0  0
  8 24  1  0  0  0  0
  8 25  1  0  0  0  0
  9 12  1  0  0  0  0
  9 26  1  0  0  0  0
  9 27  1  0  0  0  0
 10 11  1  0  0  0  0
 10 12  1  0  0  0  0
 10 28  1  0  0  0  0
 11 29  1  0  0  0  0
 11 30  1  0  0  0  0
 12 31  1  0  0  0  0
 12 32  1  0  0  0  0
 13 14  1  0  0  0  0
 14 35  1  0  0  0  0
 15 16  1  0  0  0  0
 15 17  2  0  0  0  0
 16 18  2  0  0  0  0
 17 19  1  0  0  0  0
 17 36  1  0  0  0  0
 18 20  1  0  0  0  0
 18 37  1  0  0  0  0
 19 20  2  0  0  0  0
 21 38  1  0  0  0  0
 21 39  1  0  0  0  0
 21 40  1  0  0  0  0
 22 41  1  0  0  0  0
 22 42  1  0  0  0  0
 22 43  1  0  0  0  0
M  END
> <PUBCHEM_COMPOUND_CID>
9796455

> <PUBCHEM_CONFORMER_RMSD>
0.8

> <PUBCHEM_CONFORMER_DIVERSEORDER>
1
23
35
26
5
28
17
9
12
30
27
21
18
20
4
15
6
34
32
19
16
13
31
7
29
2
33
24
14
10
11
8
3
25
22

> <PUBCHEM_MMFF94_PARTIAL_CHARGES>
23
1 -0.68
10 0.28
13 0.41
14 0.16
15 0.31
16 0.31
17 -0.15
18 -0.15
19 0.08
2 -0.36
20 0.08
21 0.28
22 0.28
3 -0.36
33 0.4
34 0.4
35 0.15
36 0.15
37 0.15
4 -0.87
5 -0.62
6 -0.62
7 0.37

> <PUBCHEM_EFFECTIVE_ROTOR_COUNT>
5.2

> <PUBCHEM_PHARMACOPHORE_FEATURES>
10
1 1 acceptor
1 1 donor
1 2 acceptor
1 3 acceptor
1 4 donor
1 6 acceptor
3 4 5 13 cation
6 15 16 17 18 19 20 rings
6 5 6 13 14 15 16 rings
6 7 8 9 10 11 12 rings

> <PUBCHEM_HEAVY_ATOM_COUNT>
22

> <PUBCHEM_ATOM_DEF_STEREO_COUNT>
0

> <PUBCHEM_ATOM_UDEF_STEREO_COUNT>
0

> <PUBCHEM_BOND_DEF_STEREO_COUNT>
0

> <PUBCHEM_BOND_UDEF_STEREO_COUNT>
0

> <PUBCHEM_ISOTOPIC_ATOM_COUNT>
0

> <PUBCHEM_COMPONENT_COUNT>
1

> <PUBCHEM_CACTVS_TAUTO_COUNT>
2

> <PUBCHEM_CONFORMER_ID>
00957B6700000001

> <PUBCHEM_MMFF94_ENERGY>
81.7803

> <PUBCHEM_FEATURE_SELFOVERLAP>
50.787

> <PUBCHEM_SHAPE_FINGERPRINT>
10 15 17632001015133255202
10354089 29 12967121710379843542
10803635 8 18113894945105113989
10906281 52 18129398020597410333
11045515 52 17748825211193784340
11552529 35 13685711983755915476
11796584 16 18335423465036854503
11809386 21 18187927339500079875
12107183 9 17615687332792925768
12236239 1 18040719155756672212
12516196 113 17775846808904862729
12596602 18 18335700576853949466
12616971 3 17531252755093374662
12788726 201 18337963276757062264
13533116 47 17967812713842742338
13583140 156 14189565356284974671
13862211 1 18342737403947947757
14251752 14 17676763189292058317
14251764 18 18411703197279847811
14341114 328 18408890620560607594
15196674 1 18341617074344838037
15788980 27 17167861958984944958
17349148 13 17748829592761246498
17857418 61 18333729117718282162
1813 80 17822585910251279668
18785283 64 17273401980345036320
200 152 17095525072014295604
20374829 77 18410575102096298677
20511986 3 18114450228341490582
21033648 29 16056308428169097178
21267235 1 18341344343683976887
21315763 178 18187639206933429810
22061861 79 15213018233008171506
22224240 67 17203596091736656486
23366157 5 18119531195822319541
23402539 116 18410853269742463335
23536379 177 16805606945239732101
23557571 272 17845669035948520588
23559900 14 18342734160979120745
23622692 118 17844234332678498215
26918003 58 18411980260708045013
300161 21 18333731316583321310
3004659 81 18334584546618474988
3009799 131 18272641313032335805
314173 85 17988929963370930713
335352 9 18413108364793239661
339767 52 18412822477872116462
3411729 13 18058159721736803520
439807 62 17677616526612295187
5104073 3 18271533112421638617
54446538 1 10375866372789244898
67856867 119 18263084465121773844
7226269 152 17917714540196849089
8863177 126 17900835056530480683

> <PUBCHEM_SHAPE_MULTIPOLES>
420.2
14.52
2.11
1.05
6.04
0.59
0.06
3.95
-1.31
-2.61
-0.42
1.24
0.08
-0.5

> <PUBCHEM_SHAPE_SELFOVERLAP>
895.974

> <PUBCHEM_SHAPE_VOLUME>
233.2

> <PUBCHEM_COORDINATE_TYPE>
2
5
10

$$$$
