4458892
  -OEChem-10062121553D

 47 50  0     1  0  0  0  0  0999 V2000
   -2.3330    0.6718    0.3118 S   0  0  0  0  0  0  0  0  0  0  0  0
    3.8831    2.3591    0.2864 S   0  0  0  0  0  0  0  0  0  0  0  0
   -6.0997   -0.4123    0.9289 S   0  0  0  0  0  0  0  0  0  0  0  0
    3.9125   -1.4324   -0.2585 O   0  0  0  0  0  0  0  0  0  0  0  0
   -1.6734   -3.0170   -0.4850 O   0  0  0  0  0  0  0  0  0  0  0  0
    0.0779    3.3843    0.2715 O   0  0  0  0  0  0  0  0  0  0  0  0
    3.6135   -1.7351    2.0172 O   0  0  0  0  0  0  0  0  0  0  0  0
   -0.4424   -1.1050    0.1733 N   0  0  0  0  0  0  0  0  0  0  0  0
    1.0055   -3.0317    0.1662 N   0  0  0  0  0  0  0  0  0  0  0  0
   -0.1219    2.6956    2.4663 N   0  0  0  0  0  0  0  0  0  0  0  0
    1.7775    0.6487    0.7913 C   0  0  1  0  0  0  0  0  0  0  0  0
    0.3322    1.0958    0.7707 C   0  0  0  0  0  0  0  0  0  0  0  0
    1.8847   -0.8632    0.6502 C   0  0  0  0  0  0  0  0  0  0  0  0
   -0.6518    0.2413    0.4463 C   0  0  0  0  0  0  0  0  0  0  0  0
    0.8402   -1.6716    0.3289 C   0  0  0  0  0  0  0  0  0  0  0  0
    2.5986    1.3653   -0.2320 C   0  0  0  0  0  0  0  0  0  0  0  0
   -1.5843   -1.8326   -0.1908 C   0  0  0  0  0  0  0  0  0  0  0  0
   -2.7534   -0.9213   -0.1688 C   0  0  0  0  0  0  0  0  0  0  0  0
    0.0857    2.5076    1.1245 C   0  0  0  0  0  0  0  0  0  0  0  0
    3.2391   -1.4003    0.9137 C   0  0  0  0  0  0  0  0  0  0  0  0
    2.4598    1.3373   -1.5925 C   0  0  0  0  0  0  0  0  0  0  0  0
   -3.9866   -1.3222   -0.4864 C   0  0  0  0  0  0  0  0  0  0  0  0
    3.4346    2.1541   -2.2349 C   0  0  0  0  0  0  0  0  0  0  0  0
    4.2726    2.7680   -1.3302 C   0  0  0  0  0  0  0  0  0  0  0  0
   -5.1952   -0.4782   -0.4882 C   0  0  0  0  0  0  0  0  0  0  0  0
    5.2502   -1.9332   -0.1671 C   0  0  0  0  0  0  0  0  0  0  0  0
   -5.6555    0.2512   -1.5129 C   0  0  0  0  0  0  0  0  0  0  0  0
    5.8796   -1.9124   -1.5438 C   0  0  0  0  0  0  0  0  0  0  0  0
   -6.8479    0.9302   -1.1296 C   0  0  0  0  0  0  0  0  0  0  0  0
   -7.2023    0.6580    0.1734 C   0  0  0  0  0  0  0  0  0  0  0  0
    2.1514    0.8806    1.8007 H   0  0  0  0  0  0  0  0  0  0  0  0
    1.7044    0.7659   -2.1168 H   0  0  0  0  0  0  0  0  0  0  0  0
    1.9182   -3.4553    0.2744 H   0  0  0  0  0  0  0  0  0  0  0  0
    0.2081   -3.6110   -0.0594 H   0  0  0  0  0  0  0  0  0  0  0  0
   -4.1574   -2.3559   -0.7802 H   0  0  0  0  0  0  0  0  0  0  0  0
    3.5171    2.2846   -3.3060 H   0  0  0  0  0  0  0  0  0  0  0  0
    5.0951    3.4368   -1.5412 H   0  0  0  0  0  0  0  0  0  0  0  0
   -0.3024    3.6212    2.8407 H   0  0  0  0  0  0  0  0  0  0  0  0
   -0.1039    1.9321    3.1354 H   0  0  0  0  0  0  0  0  0  0  0  0
    5.8310   -1.3014    0.5144 H   0  0  0  0  0  0  0  0  0  0  0  0
    5.2311   -2.9599    0.2157 H   0  0  0  0  0  0  0  0  0  0  0  0
   -5.1986    0.3227   -2.4918 H   0  0  0  0  0  0  0  0  0  0  0  0
    6.9058   -2.2888   -1.5108 H   0  0  0  0  0  0  0  0  0  0  0  0
    5.2997   -2.5254   -2.2416 H   0  0  0  0  0  0  0  0  0  0  0  0
    5.8886   -0.8943   -1.9471 H   0  0  0  0  0  0  0  0  0  0  0  0
   -7.4170    1.5852   -1.7766 H   0  0  0  0  0  0  0  0  0  0  0  0
   -8.0559    1.0365    0.7179 H   0  0  0  0  0  0  0  0  0  0  0  0
  1 14  1  0  0  0  0
  1 18  1  0  0  0  0
  2 16  1  0  0  0  0
  2 24  1  0  0  0  0
  3 25  1  0  0  0  0
  3 30  1  0  0  0  0
  4 20  1  0  0  0  0
  4 26  1  0  0  0  0
  5 17  2  0  0  0  0
  6 19  2  0  0  0  0
  7 20  2  0  0  0  0
  8 14  1  0  0  0  0
  8 15  1  0  0  0  0
  8 17  1  0  0  0  0
  9 15  1  0  0  0  0
  9 33  1  0  0  0  0
  9 34  1  0  0  0  0
 10 19  1  0  0  0  0
 10 38  1  0  0  0  0
 10 39  1  0  0  0  0
 11 12  1  0  0  0  0
 11 13  1  0  0  0  0
 11 16  1  0  0  0  0
 11 31  1  0  0  0  0
 12 14  2  0  0  0  0
 12 19  1  0  0  0  0
 13 15  2  0  0  0  0
 13 20  1  0  0  0  0
 16 21  2  0  0  0  0
 17 18  1  0  0  0  0
 18 22  2  3  0  0  0
 21 23  1  0  0  0  0
 21 32  1  0  0  0  0
 22 25  1  0  0  0  0
 22 35  1  0  0  0  0
 23 24  2  0  0  0  0
 23 36  1  0  0  0  0
 24 37  1  0  0  0  0
 25 27  2  0  0  0  0
 26 28  1  0  0  0  0
 26 40  1  0  0  0  0
 26 41  1  0  0  0  0
 27 29  1  0  0  0  0
 27 42  1  0  0  0  0
 28 43  1  0  0  0  0
 28 44  1  0  0  0  0
 28 45  1  0  0  0  0
 29 30  2  0  0  0  0
 29 46  1  0  0  0  0
 30 47  1  0  0  0  0
M  END
> <PUBCHEM_COMPOUND_CID>
4458892

> <PUBCHEM_CONFORMER_RMSD>
0.8

> <PUBCHEM_CONFORMER_DIVERSEORDER>
1
42
31
47
38
29
14
44
46
39
12
34
4
23
11
32
20
35
13
18
48
37
3
22
45
36
33
43
15
17
30
6
16
2
40
9
26
5
25
7
41
27
8
19
10
21
24
28

> <PUBCHEM_MMFF94_PARTIAL_CHARGES>
40
1 -0.2
10 -0.8
11 0.46
12 -0.12
13 -0.12
14 0.21
15 0.21
16 -0.14
17 0.62
18 0.12
19 0.62
2 -0.08
20 0.71
21 -0.15
22 -0.11
23 -0.15
24 -0.11
25 -0.01
26 0.28
27 -0.15
29 -0.15
3 -0.08
30 -0.11
32 0.15
33 0.4
34 0.4
35 0.15
36 0.15
37 0.15
38 0.37
39 0.37
4 -0.43
42 0.15
46 0.15
47 0.15
5 -0.57
6 -0.57
7 -0.57
8 -0.28
9 -0.9

> <PUBCHEM_EFFECTIVE_ROTOR_COUNT>
6.2

> <PUBCHEM_PHARMACOPHORE_FEATURES>
10
1 10 donor
1 5 acceptor
1 6 acceptor
1 7 acceptor
1 9 cation
1 9 donor
5 1 8 14 17 18 rings
5 2 16 21 23 24 rings
5 3 25 27 29 30 rings
6 8 11 12 13 14 15 rings

> <PUBCHEM_HEAVY_ATOM_COUNT>
30

> <PUBCHEM_ATOM_DEF_STEREO_COUNT>
0

> <PUBCHEM_ATOM_UDEF_STEREO_COUNT>
1

> <PUBCHEM_BOND_DEF_STEREO_COUNT>
0

> <PUBCHEM_BOND_UDEF_STEREO_COUNT>
1

> <PUBCHEM_ISOTOPIC_ATOM_COUNT>
0

> <PUBCHEM_COMPONENT_COUNT>
1

> <PUBCHEM_CACTVS_TAUTO_COUNT>
6

> <PUBCHEM_CONFORMER_ID>
0044098C00000001

> <PUBCHEM_MMFF94_ENERGY>
74.7964

> <PUBCHEM_FEATURE_SELFOVERLAP>
50.815

> <PUBCHEM_SHAPE_FINGERPRINT>
10675989 125 18409167736114085196
10721379 63 18113338618112744524
11135609 187 18044387252130302356
12166972 35 18336262340821429364
12293681 160 18198635504306240464
12788726 201 17988936565210743681
13140716 1 18411991264683595090
14068700 675 18270115700415635808
14790565 3 18412269437036293465
14931854 50 18265074534397720740
15183329 4 17703799136964029757
15439362 3 17969231212828970012
1601671 61 18262513818560428213
16090146 7 17988657284477420611
19319366 153 18261386780112771075
20554085 129 18127686253077141696
20612939 158 18408324389046352917
20642791 105 18049426059435660633
20642791 239 18195822983400547457
21279426 13 18411418423452132639
22149856 69 18411429427817540251
22393880 68 17985823968182877901
23559900 14 18342172280388263770
23569914 2 16520420116617603533
25147074 1 18270133326371140488
3004659 81 18409445869083824738
335352 9 18342171155407337455
350125 39 18335137544979696869
3633792 109 18409173203728954540
376196 1 16837679961373506368
46194498 28 18040433261248058647
5104073 3 18335412522019464683
513532 50 17203039811266280232
58260988 647 14708602868646270002
59755656 215 18200029530294514879
6086070 43 18059571464479997555

> <PUBCHEM_SHAPE_MULTIPOLES>
590.51
14.5
3.51
1.61
20.55
0.55
0.03
-0.7
5.31
-4.39
-0.08
-0.98
0.81
-0.74

> <PUBCHEM_SHAPE_SELFOVERLAP>
1259.701

> <PUBCHEM_SHAPE_VOLUME>
331.3

> <PUBCHEM_COORDINATE_TYPE>
2
5
10

$$$$
