52941849
  -OEChem-10052115163D

 37 39  0     0  0  0  0  0  0999 V2000
    6.7642   -0.1744   -0.0703 S   0  0  0  0  0  0  0  0  0  0  0  0
   -1.4361    0.5888   -0.0084 O   0  0  0  0  0  0  0  0  0  0  0  0
    7.0164   -1.4880   -0.6460 O   0  0  0  0  0  0  0  0  0  0  0  0
    7.4132    0.9998   -0.6364 O   0  0  0  0  0  0  0  0  0  0  0  0
   -7.0121   -1.6721    0.0133 O   0  0  0  0  0  0  0  0  0  0  0  0
   -7.7379    1.0111    0.0296 O   0  0  0  0  0  0  0  0  0  0  0  0
    0.8545    0.7638   -0.0222 N   0  0  0  0  0  0  0  0  0  0  0  0
   -0.2826   -1.3563   -0.0237 N   0  0  0  0  0  0  0  0  0  0  0  0
    7.0994   -0.2326    1.6041 N   0  0  0  0  0  0  0  0  0  0  0  0
    2.2846    0.5363   -0.0329 C   0  0  0  0  0  0  0  0  0  0  0  0
    5.0398    0.0990   -0.0554 C   0  0  0  0  0  0  0  0  0  0  0  0
   -3.7281   -0.0665    0.0020 C   0  0  0  0  0  0  0  0  0  0  0  0
   -2.3336   -0.4359   -0.0075 C   0  0  0  0  0  0  0  0  0  0  0  0
    3.1627    1.6200   -0.0347 C   0  0  0  0  0  0  0  0  0  0  0  0
    2.7840   -0.7661   -0.0423 C   0  0  0  0  0  0  0  0  0  0  0  0
    4.5403    1.4014   -0.0459 C   0  0  0  0  0  0  0  0  0  0  0  0
    4.1616   -0.9847   -0.0537 C   0  0  0  0  0  0  0  0  0  0  0  0
   -0.2308   -0.0435   -0.0183 C   0  0  0  0  0  0  0  0  0  0  0  0
   -4.7120   -1.0552    0.0032 C   0  0  0  0  0  0  0  0  0  0  0  0
   -4.0925    1.2800    0.0101 C   0  0  0  0  0  0  0  0  0  0  0  0
   -1.6295   -1.6141   -0.0168 C   0  0  0  0  0  0  0  0  0  0  0  0
   -6.0603   -0.6976    0.0125 C   0  0  0  0  0  0  0  0  0  0  0  0
   -5.4407    1.6376    0.0192 C   0  0  0  0  0  0  0  0  0  0  0  0
   -6.4246    0.6489    0.0205 C   0  0  0  0  0  0  0  0  0  0  0  0
    2.7870    2.6399   -0.0262 H   0  0  0  0  0  0  0  0  0  0  0  0
    2.1363   -1.6355   -0.0399 H   0  0  0  0  0  0  0  0  0  0  0  0
    5.2058    2.2601   -0.0406 H   0  0  0  0  0  0  0  0  0  0  0  0
    4.5290   -2.0071   -0.0544 H   0  0  0  0  0  0  0  0  0  0  0  0
    0.6586    1.7637   -0.0165 H   0  0  0  0  0  0  0  0  0  0  0  0
   -4.4419   -2.1087   -0.0031 H   0  0  0  0  0  0  0  0  0  0  0  0
   -3.3539    2.0775    0.0094 H   0  0  0  0  0  0  0  0  0  0  0  0
   -2.0055   -2.6267   -0.0189 H   0  0  0  0  0  0  0  0  0  0  0  0
   -5.7109    2.6903    0.0253 H   0  0  0  0  0  0  0  0  0  0  0  0
    7.6132    0.5563    2.0152 H   0  0  0  0  0  0  0  0  0  0  0  0
    7.3434   -1.1443    2.0101 H   0  0  0  0  0  0  0  0  0  0  0  0
   -6.5767   -2.5418    0.0070 H   0  0  0  0  0  0  0  0  0  0  0  0
   -7.7987    1.9818    0.0342 H   0  0  0  0  0  0  0  0  0  0  0  0
  1  3  2  0  0  0  0
  1  4  2  0  0  0  0
  1  9  1  0  0  0  0
  1 11  1  0  0  0  0
  2 13  1  0  0  0  0
  2 18  1  0  0  0  0
  5 22  1  0  0  0  0
  5 36  1  0  0  0  0
  6 24  1  0  0  0  0
  6 37  1  0  0  0  0
  7 10  1  0  0  0  0
  7 18  1  0  0  0  0
  7 29  1  0  0  0  0
  8 18  2  0  0  0  0
  8 21  1  0  0  0  0
  9 34  1  0  0  0  0
  9 35  1  0  0  0  0
 10 14  2  0  0  0  0
 10 15  1  0  0  0  0
 11 16  2  0  0  0  0
 11 17  1  0  0  0  0
 12 13  1  0  0  0  0
 12 19  2  0  0  0  0
 12 20  1  0  0  0  0
 13 21  2  0  0  0  0
 14 16  1  0  0  0  0
 14 25  1  0  0  0  0
 15 17  2  0  0  0  0
 15 26  1  0  0  0  0
 16 27  1  0  0  0  0
 17 28  1  0  0  0  0
 19 22  1  0  0  0  0
 19 30  1  0  0  0  0
 20 23  2  0  0  0  0
 20 31  1  0  0  0  0
 21 32  1  0  0  0  0
 22 24  2  0  0  0  0
 23 24  1  0  0  0  0
 23 33  1  0  0  0  0
M  END
> <PUBCHEM_COMPOUND_CID>
52941849

> <PUBCHEM_CONFORMER_RMSD>
0.8

> <PUBCHEM_CONFORMER_DIVERSEORDER>
1
44
33
53
3
23
66
16
13
17
30
67
9
11
45
47
7
63
20
19
25
15
60
2
58
54
12
59
8
36
65
18
27
24
4
22
26
35
31
14
6
41
52
32
64
50
21
5
29
48
51
61
37
43
40
10
42
38
56
34
39
55
49
62
57
46
28

> <PUBCHEM_MMFF94_PARTIAL_CHARGES>
37
1 1.45
10 0.1
11 -0.01
12 0.05
13 0.09
14 -0.15
15 -0.15
16 -0.15
17 -0.15
18 0.56
19 -0.15
2 -0.28
20 -0.15
21 0.08
22 0.08
23 -0.15
24 0.08
25 0.15
26 0.15
27 0.15
28 0.15
29 0.4
3 -0.65
30 0.15
31 0.15
32 0.15
33 0.15
34 0.42
35 0.42
36 0.45
37 0.45
4 -0.65
5 -0.53
6 -0.53
7 -0.58
8 -0.57
9 -0.98

> <PUBCHEM_EFFECTIVE_ROTOR_COUNT>
4

> <PUBCHEM_PHARMACOPHORE_FEATURES>
10
1 3 acceptor
1 4 acceptor
1 5 donor
1 6 donor
1 7 donor
1 9 donor
3 7 8 18 cation
5 2 8 13 18 21 rings
6 10 11 14 15 16 17 rings
6 12 19 20 22 23 24 rings

> <PUBCHEM_HEAVY_ATOM_COUNT>
24

> <PUBCHEM_ATOM_DEF_STEREO_COUNT>
0

> <PUBCHEM_ATOM_UDEF_STEREO_COUNT>
0

> <PUBCHEM_BOND_DEF_STEREO_COUNT>
0

> <PUBCHEM_BOND_UDEF_STEREO_COUNT>
0

> <PUBCHEM_ISOTOPIC_ATOM_COUNT>
0

> <PUBCHEM_COMPONENT_COUNT>
1

> <PUBCHEM_CACTVS_TAUTO_COUNT>
28

> <PUBCHEM_CONFORMER_ID>
0327D41900000001

> <PUBCHEM_MMFF94_ENERGY>
44.7635

> <PUBCHEM_FEATURE_SELFOVERLAP>
50.768

> <PUBCHEM_SHAPE_FINGERPRINT>
10050765 1 18122343751145103816
100830 39 18338235964589705733
10299344 5 18113056034844326994
11315181 36 18344150293917863769
11524674 6 16774078496874530999
11719270 70 18130788941424719574
12091667 2 18409450297996875763
12166972 35 18410858793023615120
12236239 1 18260547835470776353
12516196 113 17847061090920768080
13533116 47 13542195944113593748
13885169 127 18411982433819305785
14123256 10 9079113362669841668
14170010 4 18201718458101752816
14251752 14 18343019986583206504
14251764 18 18333167280082334122
14251764 46 18408603660915850262
14933364 13 18410013238653649637
15183329 4 18411984641490421032
15419008 47 17274816943924287384
15849732 13 18412826893140610868
15927050 60 18335137609152304755
18681886 176 18340762728256432953
20281389 69 18186236238623142140
21130935 74 18271807887381781402
21267235 1 18410580595116701702
21315759 40 17385443232373312810
21315763 28 18410011056688710093
22224240 67 14562532903140458480
23402539 116 18272929445207933085
23536379 177 18411138030595872193
23559900 14 18272364325705560464
3004659 81 18407760339861112600
335352 9 18410857668495687406
3545911 37 18412826897630684926
4073 2 17968383454239494026
4325135 7 18272087215153866983
4339292 15 16414902163759510175
5104073 3 18262516022026007000
59682541 35 9294994761396419878
59755656 215 18409169879192041750
59755656 520 17749104517533685499

> <PUBCHEM_SHAPE_MULTIPOLES>
453.47
23.37
1.62
0.71
3.27
0.02
0.12
0.65
0.46
-0.73
-0.07
0.83
-0.02
-0.05

> <PUBCHEM_SHAPE_SELFOVERLAP>
981.524

> <PUBCHEM_SHAPE_VOLUME>
249.3

> <PUBCHEM_COORDINATE_TYPE>
2
5
10

$$$$
