44605035
  -OEChem-10052115143D

 59 63  0     0  0  0  0  0  0999 V2000
    5.0932    4.4867    0.0968 O   0  0  0  0  0  0  0  0  0  0  0  0
   -7.1974    0.0627   -1.0603 O   0  0  0  0  0  0  0  0  0  0  0  0
   -7.2605    0.0611    1.2245 O   0  0  0  0  0  0  0  0  0  0  0  0
   -1.1654    0.8439    0.0450 N   0  0  0  0  0  0  0  0  0  0  0  0
   -5.2807   -0.4398    0.1145 N   0  0  0  0  0  0  0  0  0  0  0  0
   -1.2771    2.1852    0.0408 N   0  0  0  0  0  0  0  0  0  0  0  0
    3.1671    2.4436   -0.0265 N   0  0  0  0  0  0  0  0  0  0  0  0
    0.5435   -0.8712    0.0277 N   0  0  0  0  0  0  0  0  0  0  0  0
    2.7854    0.0895   -0.0092 N   0  0  0  0  0  0  0  0  0  0  0  0
    4.1148   -6.1140   -0.0009 N   0  0  0  0  0  0  0  0  0  0  0  0
   -2.4180   -0.0116    0.0687 C   0  0  0  0  0  0  0  0  0  0  0  0
   -3.2879    0.2031   -1.1849 C   0  0  0  0  0  0  0  0  0  0  0  0
   -3.2512    0.2180    1.3443 C   0  0  0  0  0  0  0  0  0  0  0  0
   -4.5467   -0.6617   -1.1355 C   0  0  0  0  0  0  0  0  0  0  0  0
   -4.5096   -0.6477    1.3397 C   0  0  0  0  0  0  0  0  0  0  0  0
    0.1250    0.4044    0.0283 C   0  0  0  0  0  0  0  0  0  0  0  0
    0.9152    1.5402    0.0119 C   0  0  0  0  0  0  0  0  0  0  0  0
    2.2932    1.3517   -0.0075 C   0  0  0  0  0  0  0  0  0  0  0  0
   -0.0068    2.6035    0.0206 C   0  0  0  0  0  0  0  0  0  0  0  0
   -6.6330   -0.0924    0.1781 C   0  0  0  0  0  0  0  0  0  0  0  0
    3.1456    3.4169    1.0709 C   0  0  0  0  0  0  0  0  0  0  0  0
    4.4666    2.2805   -0.6926 C   0  0  0  0  0  0  0  0  0  0  0  0
    3.7840    4.7237    0.6131 C   0  0  0  0  0  0  0  0  0  0  0  0
    5.0338    3.6479   -1.0568 C   0  0  0  0  0  0  0  0  0  0  0  0
    1.8928   -0.9289    0.0083 C   0  0  0  0  0  0  0  0  0  0  0  0
    2.4605   -2.2537    0.0062 C   0  0  0  0  0  0  0  0  0  0  0  0
   -8.5843    0.4200   -1.0816 C   0  0  0  0  0  0  0  0  0  0  0  0
    1.7826   -3.3041    0.6252 C   0  0  0  0  0  0  0  0  0  0  0  0
    3.6875   -2.4856   -0.6152 C   0  0  0  0  0  0  0  0  0  0  0  0
    2.3318   -4.5861    0.6228 C   0  0  0  0  0  0  0  0  0  0  0  0
    4.2369   -3.7678   -0.6176 C   0  0  0  0  0  0  0  0  0  0  0  0
    3.5590   -4.8180    0.0014 C   0  0  0  0  0  0  0  0  0  0  0  0
   -2.0504   -1.0459    0.0695 H   0  0  0  0  0  0  0  0  0  0  0  0
   -3.5789    1.2588   -1.2596 H   0  0  0  0  0  0  0  0  0  0  0  0
   -2.7113   -0.0312   -2.0874 H   0  0  0  0  0  0  0  0  0  0  0  0
   -3.5404    1.2745    1.4149 H   0  0  0  0  0  0  0  0  0  0  0  0
   -2.6490   -0.0057    2.2328 H   0  0  0  0  0  0  0  0  0  0  0  0
   -5.1695   -0.4522   -2.0093 H   0  0  0  0  0  0  0  0  0  0  0  0
   -4.2811   -1.7248   -1.1713 H   0  0  0  0  0  0  0  0  0  0  0  0
   -4.2442   -1.7105    1.3835 H   0  0  0  0  0  0  0  0  0  0  0  0
   -5.1166   -0.4237    2.2226 H   0  0  0  0  0  0  0  0  0  0  0  0
    0.1834    3.6672    0.0061 H   0  0  0  0  0  0  0  0  0  0  0  0
    3.7178    3.0020    1.9101 H   0  0  0  0  0  0  0  0  0  0  0  0
    2.1343    3.6223    1.4331 H   0  0  0  0  0  0  0  0  0  0  0  0
    4.3695    1.6817   -1.6060 H   0  0  0  0  0  0  0  0  0  0  0  0
    5.1522    1.7622   -0.0110 H   0  0  0  0  0  0  0  0  0  0  0  0
    3.8765    5.4104    1.4605 H   0  0  0  0  0  0  0  0  0  0  0  0
    3.1740    5.2197   -0.1516 H   0  0  0  0  0  0  0  0  0  0  0  0
    4.4313    4.1368   -1.8320 H   0  0  0  0  0  0  0  0  0  0  0  0
    6.0507    3.5386   -1.4467 H   0  0  0  0  0  0  0  0  0  0  0  0
   -9.1832   -0.3594   -0.6011 H   0  0  0  0  0  0  0  0  0  0  0  0
   -8.7339    1.3847   -0.5876 H   0  0  0  0  0  0  0  0  0  0  0  0
   -8.8958    0.5083   -2.1258 H   0  0  0  0  0  0  0  0  0  0  0  0
    0.8298   -3.1548    1.1273 H   0  0  0  0  0  0  0  0  0  0  0  0
    4.2360   -1.6913   -1.1158 H   0  0  0  0  0  0  0  0  0  0  0  0
    1.7953   -5.3961    1.1104 H   0  0  0  0  0  0  0  0  0  0  0  0
    5.1927   -3.9365   -1.1071 H   0  0  0  0  0  0  0  0  0  0  0  0
    5.0043   -6.2827   -0.4516 H   0  0  0  0  0  0  0  0  0  0  0  0
    3.6238   -6.8762    0.4472 H   0  0  0  0  0  0  0  0  0  0  0  0
  1 23  1  0  0  0  0
  1 24  1  0  0  0  0
  2 20  1  0  0  0  0
  2 27  1  0  0  0  0
  3 20  2  0  0  0  0
  4  6  1  0  0  0  0
  4 11  1  0  0  0  0
  4 16  1  0  0  0  0
  5 14  1  0  0  0  0
  5 15  1  0  0  0  0
  5 20  1  0  0  0  0
  6 19  2  0  0  0  0
  7 18  1  0  0  0  0
  7 21  1  0  0  0  0
  7 22  1  0  0  0  0
  8 16  1  0  0  0  0
  8 25  2  0  0  0  0
  9 18  2  0  0  0  0
  9 25  1  0  0  0  0
 10 32  1  0  0  0  0
 10 58  1  0  0  0  0
 10 59  1  0  0  0  0
 11 12  1  0  0  0  0
 11 13  1  0  0  0  0
 11 33  1  0  0  0  0
 12 14  1  0  0  0  0
 12 34  1  0  0  0  0
 12 35  1  0  0  0  0
 13 15  1  0  0  0  0
 13 36  1  0  0  0  0
 13 37  1  0  0  0  0
 14 38  1  0  0  0  0
 14 39  1  0  0  0  0
 15 40  1  0  0  0  0
 15 41  1  0  0  0  0
 16 17  2  0  0  0  0
 17 18  1  0  0  0  0
 17 19  1  0  0  0  0
 19 42  1  0  0  0  0
 21 23  1  0  0  0  0
 21 43  1  0  0  0  0
 21 44  1  0  0  0  0
 22 24  1  0  0  0  0
 22 45  1  0  0  0  0
 22 46  1  0  0  0  0
 23 47  1  0  0  0  0
 23 48  1  0  0  0  0
 24 49  1  0  0  0  0
 24 50  1  0  0  0  0
 25 26  1  0  0  0  0
 26 28  2  0  0  0  0
 26 29  1  0  0  0  0
 27 51  1  0  0  0  0
 27 52  1  0  0  0  0
 27 53  1  0  0  0  0
 28 30  1  0  0  0  0
 28 54  1  0  0  0  0
 29 31  2  0  0  0  0
 29 55  1  0  0  0  0
 30 32  2  0  0  0  0
 30 56  1  0  0  0  0
 31 32  1  0  0  0  0
 31 57  1  0  0  0  0
M  END
> <PUBCHEM_COMPOUND_CID>
44605035

> <PUBCHEM_CONFORMER_RMSD>
1

> <PUBCHEM_CONFORMER_DIVERSEORDER>
1
26
6
22
24
15
16
4
19
14
3
17
27
10
18
20
21
23
9
13
25
12
28
2
11
8
7
5

> <PUBCHEM_MMFF94_PARTIAL_CHARGES>
35
1 -0.56
10 -0.9
11 0.26
14 0.3
15 0.3
16 0.11
18 0.41
19 0.14
2 -0.43
20 0.78
21 0.37
22 0.37
23 0.28
24 0.28
25 0.62
27 0.28
28 -0.15
29 -0.15
3 -0.57
30 -0.15
31 -0.15
32 0.1
4 0.31
42 0.15
5 -0.66
54 0.15
55 0.15
56 0.15
57 0.15
58 0.4
59 0.4
6 -0.71
7 -0.84
8 -0.57
9 -0.62

> <PUBCHEM_EFFECTIVE_ROTOR_COUNT>
7.4

> <PUBCHEM_PHARMACOPHORE_FEATURES>
12
1 1 acceptor
1 10 cation
1 10 donor
1 3 acceptor
1 6 acceptor
3 7 9 18 cation
3 8 9 25 cation
5 4 6 16 17 19 rings
6 1 7 21 22 23 24 rings
6 26 28 29 30 31 32 rings
6 5 11 12 13 14 15 rings
6 8 9 16 17 18 25 rings

> <PUBCHEM_HEAVY_ATOM_COUNT>
32

> <PUBCHEM_ATOM_DEF_STEREO_COUNT>
0

> <PUBCHEM_ATOM_UDEF_STEREO_COUNT>
0

> <PUBCHEM_BOND_DEF_STEREO_COUNT>
0

> <PUBCHEM_BOND_UDEF_STEREO_COUNT>
0

> <PUBCHEM_ISOTOPIC_ATOM_COUNT>
0

> <PUBCHEM_COMPONENT_COUNT>
1

> <PUBCHEM_CACTVS_TAUTO_COUNT>
6

> <PUBCHEM_CONFORMER_ID>
02A89E6B00000001

> <PUBCHEM_MMFF94_ENERGY>
92.9209

> <PUBCHEM_FEATURE_SELFOVERLAP>
61.125

> <PUBCHEM_SHAPE_FINGERPRINT>
10050765 1 18338797798115354709
10074138 170 17478020110816283856
102385 1 18266178323149193756
10319688 140 18410856538386759094
10411042 1 18123186797486458878
10721379 63 18341902865948226148
11014199 57 17834960768168334594
11135926 11 18338789130285035869
11181472 205 18341897360502454625
11297750 10 18042960965460759092
11719270 70 18337949099344188120
11763715 3 17762363331138169382
11991303 11 17754179996878512612
12107183 9 17910968950445195321
12236239 1 17702954763594889901
12788726 201 16965758248666851826
131258 43 17986398781216116998
13140716 1 18267586986864794594
13248334 5 18411418406530453384
13533116 47 18341894082966783793
13540713 5 18129956555034749841
13955234 65 18412544323163452346
14400156 413 18337942447010383981
14790565 3 17905612459874246404
15276724 80 18411982434890892653
15400415 2 18122627429398579985
15927050 60 18197498630605306887
19315958 150 18335142012574028557
19319366 153 18271242845388539572
19427546 62 18121782991641490324
20505436 4 17844814870216677733
20775438 99 18336251445039136747
21049683 118 17979054296629302152
21133410 32 16157982467793419994
21703447 108 18262230028247899777
21796203 349 17907617694290098466
22311459 1 18410856551883642618
23559900 14 18265324006766025481
23845131 108 18193556894541410938
249999 5 18410854382402678570
255183 451 18056766429760662102
27425 322 17983578786577004852
32027 91 18335424513621194667
3504750 166 16240959041704353882
3627633 1 17690280405198064590
4073 2 18260831544912026267
44280117 145 17258505445068837422
4516262 110 18339636858552122149
46194498 28 17458634384466604935
504843 32 17831862722104883852
5309563 4 18122907521227185075
5385378 56 18410859901214478105
563151 97 18124025999598715535
6669772 16 18340495581696635044
6673363 416 17980771433983707102
6679774 75 18189037838039081402
6695519 79 17981064207731145923
6697151 62 17975949013561904783
70251023 43 18265332815622474635
77188 2 18194965128634668454
7970288 3 18194964028928901191
9777508 108 17548416368406713536
9962374 69 18340473500985838719

> <PUBCHEM_SHAPE_MULTIPOLES>
606.07
16.45
7.32
1.07
41.7
5.37
0.03
-2
-2.98
-21.99
0.6
1.05
-0.16
0.23

> <PUBCHEM_SHAPE_SELFOVERLAP>
1313.553

> <PUBCHEM_SHAPE_VOLUME>
328.6

> <PUBCHEM_COORDINATE_TYPE>
2
5
10

$$$$
