49830668
  -OEChem-10052115183D

 67 70  0     0  0  0  0  0  0999 V2000
    0.5291   -3.3204   -0.4730 O   0  0  0  0  0  0  0  0  0  0  0  0
    0.5514    4.7977   -0.6975 O   0  0  0  0  0  0  0  0  0  0  0  0
    3.1571    0.0631    0.2509 N   0  0  0  0  0  0  0  0  0  0  0  0
    4.4513   -0.0538   -0.0919 N   0  0  0  0  0  0  0  0  0  0  0  0
    1.0302   -1.1570    0.2602 N   0  0  0  0  0  0  0  0  0  0  0  0
   -1.1272   -1.9460    0.4498 N   0  0  0  0  0  0  0  0  0  0  0  0
   -1.1514    3.6733    0.4426 N   0  0  0  0  0  0  0  0  0  0  0  0
   -4.7664    5.0105   -2.5410 N   0  0  0  0  0  0  0  0  0  0  0  0
    5.8081   -1.8049   -1.0917 C   0  0  0  0  0  0  0  0  0  0  0  0
    4.5212   -1.2889   -0.5956 C   0  0  0  0  0  0  0  0  0  0  0  0
    6.2598   -3.0909   -0.3184 C   0  0  0  0  0  0  0  0  0  0  0  0
    7.0328   -0.8237   -0.9842 C   0  0  0  0  0  0  0  0  0  0  0  0
    5.7377   -2.1886   -2.6095 C   0  0  0  0  0  0  0  0  0  0  0  0
    3.2813   -1.9553   -0.5746 C   0  0  0  0  0  0  0  0  0  0  0  0
    2.4133   -1.0484   -0.0173 C   0  0  0  0  0  0  0  0  0  0  0  0
    2.7010    1.2504    0.8264 C   0  0  0  0  0  0  0  0  0  0  0  0
    1.6960    1.9878    0.2004 C   0  0  0  0  0  0  0  0  0  0  0  0
    3.2496    1.6989    2.0280 C   0  0  0  0  0  0  0  0  0  0  0  0
    1.2394    3.1736    0.7758 C   0  0  0  0  0  0  0  0  0  0  0  0
    0.1851   -2.2535    0.0254 C   0  0  0  0  0  0  0  0  0  0  0  0
    2.7929    2.8846    2.6037 C   0  0  0  0  0  0  0  0  0  0  0  0
    1.7880    3.6221    1.9775 C   0  0  0  0  0  0  0  0  0  0  0  0
    0.1921    3.9435    0.1235 C   0  0  0  0  0  0  0  0  0  0  0  0
   -2.2707   -2.7526    0.3978 C   0  0  0  0  0  0  0  0  0  0  0  0
   -3.5562   -2.2055    0.2543 C   0  0  0  0  0  0  0  0  0  0  0  0
   -2.2594    4.3933   -0.1813 C   0  0  0  0  0  0  0  0  0  0  0  0
   -4.6753   -3.0707    0.2081 C   0  0  0  0  0  0  0  0  0  0  0  0
   -2.0912   -4.1328    0.4944 C   0  0  0  0  0  0  0  0  0  0  0  0
   -1.5279    2.6579    1.4162 C   0  0  0  0  0  0  0  0  0  0  0  0
   -3.7556   -0.8189    0.1556 C   0  0  0  0  0  0  0  0  0  0  0  0
   -4.4759   -4.4573    0.3067 C   0  0  0  0  0  0  0  0  0  0  0  0
   -3.1917   -4.9835    0.4489 C   0  0  0  0  0  0  0  0  0  0  0  0
   -2.7504    3.7157   -1.4550 C   0  0  0  0  0  0  0  0  0  0  0  0
   -5.9607   -2.5236    0.0646 C   0  0  0  0  0  0  0  0  0  0  0  0
   -5.0398   -0.2927    0.0135 C   0  0  0  0  0  0  0  0  0  0  0  0
   -6.1403   -1.1434   -0.0319 C   0  0  0  0  0  0  0  0  0  0  0  0
   -3.8771    4.4400   -2.0612 C   0  0  0  0  0  0  0  0  0  0  0  0
    5.5206   -3.8936   -0.4218 H   0  0  0  0  0  0  0  0  0  0  0  0
    6.3713   -2.8801    0.7516 H   0  0  0  0  0  0  0  0  0  0  0  0
    7.2171   -3.4712   -0.6925 H   0  0  0  0  0  0  0  0  0  0  0  0
    7.2138   -0.5395    0.0590 H   0  0  0  0  0  0  0  0  0  0  0  0
    6.8467    0.0951   -1.5526 H   0  0  0  0  0  0  0  0  0  0  0  0
    7.9512   -1.2784   -1.3725 H   0  0  0  0  0  0  0  0  0  0  0  0
    5.4671   -1.3171   -3.2171 H   0  0  0  0  0  0  0  0  0  0  0  0
    4.9817   -2.9623   -2.7863 H   0  0  0  0  0  0  0  0  0  0  0  0
    6.6973   -2.5730   -2.9733 H   0  0  0  0  0  0  0  0  0  0  0  0
    3.0601   -2.9554   -0.9178 H   0  0  0  0  0  0  0  0  0  0  0  0
    0.6081   -0.3454    0.7009 H   0  0  0  0  0  0  0  0  0  0  0  0
    1.2690    1.6512   -0.7424 H   0  0  0  0  0  0  0  0  0  0  0  0
    4.0305    1.1346    2.5321 H   0  0  0  0  0  0  0  0  0  0  0  0
    3.2189    3.2331    3.5400 H   0  0  0  0  0  0  0  0  0  0  0  0
    1.4394    4.5443    2.4352 H   0  0  0  0  0  0  0  0  0  0  0  0
   -1.2739   -0.9644    0.6584 H   0  0  0  0  0  0  0  0  0  0  0  0
   -3.0683    4.5007    0.5517 H   0  0  0  0  0  0  0  0  0  0  0  0
   -1.9140    5.4065   -0.4224 H   0  0  0  0  0  0  0  0  0  0  0  0
   -1.1173   -4.5863    0.6482 H   0  0  0  0  0  0  0  0  0  0  0  0
   -0.7070    2.0079    1.7186 H   0  0  0  0  0  0  0  0  0  0  0  0
   -1.9160    3.1654    2.3047 H   0  0  0  0  0  0  0  0  0  0  0  0
   -2.3177    2.0331    0.9920 H   0  0  0  0  0  0  0  0  0  0  0  0
   -2.9375   -0.1068    0.1671 H   0  0  0  0  0  0  0  0  0  0  0  0
   -5.3218   -5.1410    0.2757 H   0  0  0  0  0  0  0  0  0  0  0  0
   -3.0529   -6.0574    0.5338 H   0  0  0  0  0  0  0  0  0  0  0  0
   -1.9289    3.6447   -2.1779 H   0  0  0  0  0  0  0  0  0  0  0  0
   -3.0586    2.6864   -1.2370 H   0  0  0  0  0  0  0  0  0  0  0  0
   -6.8354   -3.1696    0.0265 H   0  0  0  0  0  0  0  0  0  0  0  0
   -5.1800    0.7816   -0.0660 H   0  0  0  0  0  0  0  0  0  0  0  0
   -7.1397   -0.7331   -0.1436 H   0  0  0  0  0  0  0  0  0  0  0  0
  1 20  2  0  0  0  0
  2 23  2  0  0  0  0
  3  4  1  0  0  0  0
  3 15  1  0  0  0  0
  3 16  1  0  0  0  0
  4 10  2  0  0  0  0
  5 15  1  0  0  0  0
  5 20  1  0  0  0  0
  5 48  1  0  0  0  0
  6 20  1  0  0  0  0
  6 24  1  0  0  0  0
  6 53  1  0  0  0  0
  7 23  1  0  0  0  0
  7 26  1  0  0  0  0
  7 29  1  0  0  0  0
  8 37  3  0  0  0  0
  9 10  1  0  0  0  0
  9 11  1  0  0  0  0
  9 12  1  0  0  0  0
  9 13  1  0  0  0  0
 10 14  1  0  0  0  0
 11 38  1  0  0  0  0
 11 39  1  0  0  0  0
 11 40  1  0  0  0  0
 12 41  1  0  0  0  0
 12 42  1  0  0  0  0
 12 43  1  0  0  0  0
 13 44  1  0  0  0  0
 13 45  1  0  0  0  0
 13 46  1  0  0  0  0
 14 15  2  0  0  0  0
 14 47  1  0  0  0  0
 16 17  1  0  0  0  0
 16 18  2  0  0  0  0
 17 19  2  0  0  0  0
 17 49  1  0  0  0  0
 18 21  1  0  0  0  0
 18 50  1  0  0  0  0
 19 22  1  0  0  0  0
 19 23  1  0  0  0  0
 21 22  2  0  0  0  0
 21 51  1  0  0  0  0
 22 52  1  0  0  0  0
 24 25  1  0  0  0  0
 24 28  2  0  0  0  0
 25 27  1  0  0  0  0
 25 30  2  0  0  0  0
 26 33  1  0  0  0  0
 26 54  1  0  0  0  0
 26 55  1  0  0  0  0
 27 31  1  0  0  0  0
 27 34  2  0  0  0  0
 28 32  1  0  0  0  0
 28 56  1  0  0  0  0
 29 57  1  0  0  0  0
 29 58  1  0  0  0  0
 29 59  1  0  0  0  0
 30 35  1  0  0  0  0
 30 60  1  0  0  0  0
 31 32  2  0  0  0  0
 31 61  1  0  0  0  0
 32 62  1  0  0  0  0
 33 37  1  0  0  0  0
 33 63  1  0  0  0  0
 33 64  1  0  0  0  0
 34 36  1  0  0  0  0
 34 65  1  0  0  0  0
 35 36  2  0  0  0  0
 35 66  1  0  0  0  0
 36 67  1  0  0  0  0
M  END
> <PUBCHEM_COMPOUND_CID>
49830668

> <PUBCHEM_CONFORMER_RMSD>
1.2

> <PUBCHEM_CONFORMER_DIVERSEORDER>
2
54
155
31
154
52
137
78
33
88
17
11
156
20
63
146
123
32
125
82
4
115
90
14
152
120
132
79
103
130
77
150
25
30
16
149
117
51
142
42
62
106
148
58
65
111
71
134
46
151
144
86
141
59
99
126
102
153
93
75
113
87
147
145
108
133
95
40
97
89
101
29
39
61
100
105
56
74
124
112
35
116
122
36
38
135
80
76
55
139
138
128
43
48
119
66
98
57
127
24
69
67
96
118
83
110
15
104
18
129
72
85
68
13
53
136
5
114
143
44
131
34
91
19
45
60
70
81
22
50
73
92
49
8
121
6
28
3
21
94
23
107
109
7
27
140
10
64
47
26
37
9
41
12
84
1

> <PUBCHEM_MMFF94_PARTIAL_CHARGES>
46
1 -0.57
10 0.11
14 -0.15
15 -0.09
16 -0.02
17 -0.15
18 -0.15
19 0.09
2 -0.57
20 0.69
21 -0.15
22 -0.15
23 0.54
24 0.12
26 0.3
28 -0.15
29 0.3
3 0.59
30 -0.15
31 -0.15
32 -0.15
33 0.2
34 -0.15
35 -0.15
36 -0.15
37 0.36
4 -0.71
47 0.15
48 0.37
49 0.15
5 -0.49
50 0.15
51 0.15
52 0.15
53 0.37
56 0.15
6 -0.55
60 0.15
61 0.15
62 0.15
65 0.15
66 0.15
67 0.15
7 -0.66
8 -0.56
9 0.18

> <PUBCHEM_EFFECTIVE_ROTOR_COUNT>
10

> <PUBCHEM_PHARMACOPHORE_FEATURES>
11
1 1 acceptor
1 2 acceptor
1 4 acceptor
1 5 donor
1 6 donor
1 8 acceptor
4 9 11 12 13 hydrophobe
5 3 4 10 14 15 rings
6 16 17 18 19 21 22 rings
6 24 25 27 28 31 32 rings
6 25 27 30 34 35 36 rings

> <PUBCHEM_HEAVY_ATOM_COUNT>
37

> <PUBCHEM_ATOM_DEF_STEREO_COUNT>
0

> <PUBCHEM_ATOM_UDEF_STEREO_COUNT>
0

> <PUBCHEM_BOND_DEF_STEREO_COUNT>
0

> <PUBCHEM_BOND_UDEF_STEREO_COUNT>
0

> <PUBCHEM_ISOTOPIC_ATOM_COUNT>
0

> <PUBCHEM_COMPONENT_COUNT>
1

> <PUBCHEM_CACTVS_TAUTO_COUNT>
7

> <PUBCHEM_CONFORMER_ID>
02F85B0C00000002

> <PUBCHEM_MMFF94_ENERGY>
128.9789

> <PUBCHEM_FEATURE_SELFOVERLAP>
55.898

> <PUBCHEM_SHAPE_FINGERPRINT>
10290309 65 17546460976843849409
10864689 126 18337663119415892525
11093857 5 18339348661297647545
11093857 51 17042041841352890229
12925494 130 18341049727152157539
14114211 80 15598107178622061787
15320467 1 18338798919074711265
15351339 4 17977939086510741659
15400415 2 17474113103569026432
16067689 391 17126207863005340606
16993438 75 18118414946954326673
19319366 153 17546717158510149988
20775438 99 17836322070795441861
21049683 271 18054806232872613628
21133410 127 17540525152016642173
21133410 62 17903358105267462261
23559900 14 18270682094379921779
25223398 141 18188494562238871101
3103668 31 18335989675038959999
4144715 1 18122068864585844843
42626532 9 17971768914824131610
437795 96 18265314279350811333
9961470 85 18272087245271827777

> <PUBCHEM_SHAPE_MULTIPOLES>
719.82
14.49
9.02
1.77
5.48
7.02
-0.32
-14.18
-5.37
-9.22
-1.72
1.18
2.38
6.83

> <PUBCHEM_SHAPE_SELFOVERLAP>
1551.926

> <PUBCHEM_SHAPE_VOLUME>
393.3

> <PUBCHEM_COORDINATE_TYPE>
2
5
10

$$$$
