11362471
  -OEChem-10062121573D

 52 54  0     0  0  0  0  0  0999 V2000
    4.6718   -2.6947    1.1255 Cl  0  0  0  0  0  0  0  0  0  0  0  0
    0.6309    1.3399   -0.3809 O   0  0  0  0  0  0  0  0  0  0  0  0
   -3.6120    1.4972    0.6960 O   0  0  0  0  0  0  0  0  0  0  0  0
    8.3643    0.8583   -1.0110 O   0  0  0  0  0  0  0  0  0  0  0  0
    0.2034   -3.5277   -0.8938 O   0  0  0  0  0  0  0  0  0  0  0  0
   -0.0715   -1.2854   -0.3432 N   0  0  0  0  0  0  0  0  0  0  0  0
   -1.9018   -2.7398   -0.6864 N   0  0  0  0  0  0  0  0  0  0  0  0
   -2.7099   -0.5593   -0.0095 N   0  0  0  0  0  0  0  0  0  0  0  0
   -5.3176   -1.5718   -0.1209 N   0  0  0  0  0  0  0  0  0  0  0  0
   -7.2110    1.0840    0.7065 N   0  0  0  0  0  0  0  0  0  0  0  0
   -1.0098    4.0798   -0.1877 C   0  0  0  0  0  0  0  0  0  0  0  0
   -0.0914    3.4857   -1.2623 C   0  0  0  0  0  0  0  0  0  0  0  0
   -1.8125    3.0781    0.6392 C   0  0  0  0  0  0  0  0  0  0  0  0
    1.0688    2.6639   -0.7004 C   0  0  0  0  0  0  0  0  0  0  0  0
    3.8684   -0.1344    0.6856 C   0  0  0  0  0  0  0  0  0  0  0  0
    5.2469    0.3274    1.0335 C   0  0  0  0  0  0  0  0  0  0  0  0
    1.6138    0.4460   -0.0169 C   0  0  0  0  0  0  0  0  0  0  0  0
   -2.7875    2.2559   -0.1959 C   0  0  0  0  0  0  0  0  0  0  0  0
    2.9191    0.8243    0.3345 C   0  0  0  0  0  0  0  0  0  0  0  0
    6.1632    0.3871   -0.1933 C   0  0  0  0  0  0  0  0  0  0  0  0
    1.2611   -0.9201   -0.0083 C   0  0  0  0  0  0  0  0  0  0  0  0
    3.5227   -1.4786    0.6995 C   0  0  0  0  0  0  0  0  0  0  0  0
    2.2271   -1.8697    0.3598 C   0  0  0  0  0  0  0  0  0  0  0  0
    7.5788    0.8112    0.1722 C   0  0  0  0  0  0  0  0  0  0  0  0
   -3.7910    0.2019    0.2706 C   0  0  0  0  0  0  0  0  0  0  0  0
   -0.5250   -2.5609   -0.6495 C   0  0  0  0  0  0  0  0  0  0  0  0
   -2.9405   -1.8366   -0.3732 C   0  0  0  0  0  0  0  0  0  0  0  0
   -5.0710   -0.3015    0.2428 C   0  0  0  0  0  0  0  0  0  0  0  0
   -4.2383   -2.3214   -0.4305 C   0  0  0  0  0  0  0  0  0  0  0  0
   -6.2492    0.4612    0.4980 C   0  0  0  0  0  0  0  0  0  0  0  0
   -0.4082    4.6926    0.4952 H   0  0  0  0  0  0  0  0  0  0  0  0
   -1.7092    4.7692   -0.6776 H   0  0  0  0  0  0  0  0  0  0  0  0
   -0.6717    2.8898   -1.9744 H   0  0  0  0  0  0  0  0  0  0  0  0
    0.3334    4.3285   -1.8221 H   0  0  0  0  0  0  0  0  0  0  0  0
   -1.1491    2.4110    1.2008 H   0  0  0  0  0  0  0  0  0  0  0  0
   -2.3782    3.6274    1.4030 H   0  0  0  0  0  0  0  0  0  0  0  0
    1.8459    2.6089   -1.4734 H   0  0  0  0  0  0  0  0  0  0  0  0
    1.4686    3.1617    0.1907 H   0  0  0  0  0  0  0  0  0  0  0  0
    5.6917   -0.2971    1.8167 H   0  0  0  0  0  0  0  0  0  0  0  0
    5.1919    1.3270    1.4864 H   0  0  0  0  0  0  0  0  0  0  0  0
   -3.4493    2.9207   -0.7630 H   0  0  0  0  0  0  0  0  0  0  0  0
   -2.2468    1.6352   -0.9189 H   0  0  0  0  0  0  0  0  0  0  0  0
    3.2194    1.8681    0.3392 H   0  0  0  0  0  0  0  0  0  0  0  0
    5.7539    1.0826   -0.9378 H   0  0  0  0  0  0  0  0  0  0  0  0
    6.2005   -0.5871   -0.6975 H   0  0  0  0  0  0  0  0  0  0  0  0
    1.9840   -2.9256    0.4204 H   0  0  0  0  0  0  0  0  0  0  0  0
    7.5940    1.7998    0.6417 H   0  0  0  0  0  0  0  0  0  0  0  0
    8.0384    0.0935    0.8584 H   0  0  0  0  0  0  0  0  0  0  0  0
   -0.7228   -0.5128   -0.4490 H   0  0  0  0  0  0  0  0  0  0  0  0
   -2.2044   -3.6783   -0.9378 H   0  0  0  0  0  0  0  0  0  0  0  0
    7.9671    1.5211   -1.6012 H   0  0  0  0  0  0  0  0  0  0  0  0
   -4.4621   -3.3434   -0.7185 H   0  0  0  0  0  0  0  0  0  0  0  0
  1 22  1  0  0  0  0
  2 14  1  0  0  0  0
  2 17  1  0  0  0  0
  3 18  1  0  0  0  0
  3 25  1  0  0  0  0
  4 24  1  0  0  0  0
  4 51  1  0  0  0  0
  5 26  2  0  0  0  0
  6 21  1  0  0  0  0
  6 26  1  0  0  0  0
  6 49  1  0  0  0  0
  7 26  1  0  0  0  0
  7 27  1  0  0  0  0
  7 50  1  0  0  0  0
  8 25  2  0  0  0  0
  8 27  1  0  0  0  0
  9 28  2  0  0  0  0
  9 29  1  0  0  0  0
 10 30  3  0  0  0  0
 11 12  1  0  0  0  0
 11 13  1  0  0  0  0
 11 31  1  0  0  0  0
 11 32  1  0  0  0  0
 12 14  1  0  0  0  0
 12 33  1  0  0  0  0
 12 34  1  0  0  0  0
 13 18  1  0  0  0  0
 13 35  1  0  0  0  0
 13 36  1  0  0  0  0
 14 37  1  0  0  0  0
 14 38  1  0  0  0  0
 15 16  1  0  0  0  0
 15 19  2  0  0  0  0
 15 22  1  0  0  0  0
 16 20  1  0  0  0  0
 16 39  1  0  0  0  0
 16 40  1  0  0  0  0
 17 19  1  0  0  0  0
 17 21  2  0  0  0  0
 18 41  1  0  0  0  0
 18 42  1  0  0  0  0
 19 43  1  0  0  0  0
 20 24  1  0  0  0  0
 20 44  1  0  0  0  0
 20 45  1  0  0  0  0
 21 23  1  0  0  0  0
 22 23  2  0  0  0  0
 23 46  1  0  0  0  0
 24 47  1  0  0  0  0
 24 48  1  0  0  0  0
 25 28  1  0  0  0  0
 27 29  2  0  0  0  0
 28 30  1  0  0  0  0
 29 52  1  0  0  0  0
M  END
> <PUBCHEM_COMPOUND_CID>
11362471

> <PUBCHEM_CONFORMER_RMSD>
0.8

> <PUBCHEM_CONFORMER_DIVERSEORDER>
1
3
33
10
26
36
35
14
37
24
29
6
16
18
4
9
21
25
5
34
28
20
32
22
19
2
30
27
12
31
8
15
7
13
11
23
17

> <PUBCHEM_MMFF94_PARTIAL_CHARGES>
32
1 -0.18
10 -0.56
14 0.28
15 -0.14
16 0.14
17 0.08
18 0.28
19 -0.15
2 -0.36
21 0.12
22 0.18
23 -0.15
24 0.28
25 0.39
26 0.69
27 0.43
28 0.38
29 0.16
3 -0.36
30 0.48
4 -0.68
43 0.15
46 0.15
49 0.37
5 -0.57
50 0.37
51 0.4
52 0.15
6 -0.55
7 -0.55
8 -0.62
9 -0.62

> <PUBCHEM_EFFECTIVE_ROTOR_COUNT>
4.8

> <PUBCHEM_PHARMACOPHORE_FEATURES>
10
1 10 acceptor
1 2 acceptor
1 4 acceptor
1 4 donor
1 5 acceptor
1 6 donor
1 7 donor
1 9 acceptor
6 15 17 19 21 22 23 rings
6 8 9 25 27 28 29 rings

> <PUBCHEM_HEAVY_ATOM_COUNT>
30

> <PUBCHEM_ATOM_DEF_STEREO_COUNT>
0

> <PUBCHEM_ATOM_UDEF_STEREO_COUNT>
0

> <PUBCHEM_BOND_DEF_STEREO_COUNT>
0

> <PUBCHEM_BOND_UDEF_STEREO_COUNT>
0

> <PUBCHEM_ISOTOPIC_ATOM_COUNT>
0

> <PUBCHEM_COMPONENT_COUNT>
1

> <PUBCHEM_CACTVS_TAUTO_COUNT>
5

> <PUBCHEM_CONFORMER_ID>
00AD60A700000001

> <PUBCHEM_MMFF94_ENERGY>
88.4493

> <PUBCHEM_FEATURE_SELFOVERLAP>
50.787

> <PUBCHEM_SHAPE_FINGERPRINT>
10050765 1 18192426378209363194
10670039 82 18413387644724858366
10939801 23 18409448102999789680
1100329 8 18265895941928102005
11014199 57 17907571781253019478
11479125 193 15504365879639227412
12788726 201 18261098678628692210
12838862 33 18339908360545965433
13757389 114 18200032988223242982
13947947 19 18339360876764204045
14028597 1 17458889475865028080
14117953 113 18411982447427109149
14294032 229 18335705993135549820
14394314 77 18412266138417339073
1454969 45 18335423478343950900
14790565 3 18263646337475935196
14856354 85 18337675333976491062
15238133 3 18260272979023046334
15276724 80 18408880746731630812
15297060 5 17989495125501736771
15328829 1 17822020835033046828
15685185 35 17171259596914995740
15961568 22 18411983554842427334
16087824 20 18409165472978063453
16110190 28 18410855451854887825
18336668 15 18186519942640394029
18608769 82 18341325665847484032
18681886 176 18269828873646326707
19611394 137 17972327471331795091
20642791 178 18337118972919301429
21033648 29 17845359093712333722
21796203 349 18047225039400442889
22113638 7 18340763853648491303
335352 9 18410852179754589701
350125 39 18412823586147771744
3680242 22 18409457973071739977
474144 1 18042139785089065517
552612 73 17915447506340133856
6328613 192 18268712873907925064
653340 110 18196932167426406265

> <PUBCHEM_SHAPE_MULTIPOLES>
570.87
16.44
4.36
0.95
12.24
1.73
-0.01
0.63
2.35
-1.9
-0.99
0.39
0.04
-1.62

> <PUBCHEM_SHAPE_SELFOVERLAP>
1192.724

> <PUBCHEM_SHAPE_VOLUME>
319.1

> <PUBCHEM_COORDINATE_TYPE>
2
5
10

$$$$
