24905144
  -OEChem-10052115143D

 34 37  0     0  0  0  0  0  0999 V2000
    2.7888   -1.7045   -0.1500 N   0  0  0  0  0  0  0  0  0  0  0  0
    1.4686   -1.8988    0.0266 N   0  0  0  0  0  0  0  0  0  0  0  0
    4.3880    0.1063   -0.3102 N   0  0  0  0  0  0  0  0  0  0  0  0
    3.3108    2.2835   -0.0867 N   0  0  0  0  0  0  0  0  0  0  0  0
    0.9607    2.5315    0.2489 N   0  0  0  0  0  0  0  0  0  0  0  0
    0.9829   -0.6573    0.1361 C   0  0  0  0  0  0  0  0  0  0  0  0
    1.9822    0.3281    0.0310 C   0  0  0  0  0  0  0  0  0  0  0  0
   -0.4248   -0.4567    0.3381 C   0  0  0  0  0  0  0  0  0  0  0  0
    3.1503   -0.3900   -0.1554 C   0  0  0  0  0  0  0  0  0  0  0  0
   -2.6528   -0.1213   -0.5796 C   0  0  0  0  0  0  0  0  0  0  0  0
   -1.2741   -0.3186   -0.7602 C   0  0  0  0  0  0  0  0  0  0  0  0
   -3.1778   -0.0637    0.7333 C   0  0  0  0  0  0  0  0  0  0  0  0
   -0.9411   -0.4000    1.6292 C   0  0  0  0  0  0  0  0  0  0  0  0
    2.0906    1.7145    0.0632 C   0  0  0  0  0  0  0  0  0  0  0  0
   -2.3083   -0.2050    1.8272 C   0  0  0  0  0  0  0  0  0  0  0  0
    3.6609   -2.8438   -0.3095 C   0  0  0  0  0  0  0  0  0  0  0  0
   -3.5222    0.0195   -1.6736 C   0  0  0  0  0  0  0  0  0  0  0  0
   -4.5565    0.1335    0.9138 C   0  0  0  0  0  0  0  0  0  0  0  0
   -4.8894    0.2150   -1.4758 C   0  0  0  0  0  0  0  0  0  0  0  0
   -5.4054    0.2721   -0.1848 C   0  0  0  0  0  0  0  0  0  0  0  0
    4.3686    1.4559   -0.2617 C   0  0  0  0  0  0  0  0  0  0  0  0
   -0.8642   -0.3633   -1.7687 H   0  0  0  0  0  0  0  0  0  0  0  0
   -0.2924   -0.5052    2.4958 H   0  0  0  0  0  0  0  0  0  0  0  0
   -2.6898   -0.1637    2.8453 H   0  0  0  0  0  0  0  0  0  0  0  0
    3.5832   -3.4627    0.5880 H   0  0  0  0  0  0  0  0  0  0  0  0
    3.3351   -3.4036   -1.1899 H   0  0  0  0  0  0  0  0  0  0  0  0
    4.6925   -2.5110   -0.4425 H   0  0  0  0  0  0  0  0  0  0  0  0
   -3.1409   -0.0216   -2.6919 H   0  0  0  0  0  0  0  0  0  0  0  0
   -4.9820    0.1813    1.9141 H   0  0  0  0  0  0  0  0  0  0  0  0
   -5.5509    0.3227   -2.3305 H   0  0  0  0  0  0  0  0  0  0  0  0
   -6.4699    0.4242   -0.0315 H   0  0  0  0  0  0  0  0  0  0  0  0
    5.3301    1.9442   -0.3784 H   0  0  0  0  0  0  0  0  0  0  0  0
    1.0842    3.5349    0.2671 H   0  0  0  0  0  0  0  0  0  0  0  0
    0.0391    2.1363    0.3642 H   0  0  0  0  0  0  0  0  0  0  0  0
  1  2  1  0  0  0  0
  1  9  1  0  0  0  0
  1 16  1  0  0  0  0
  2  6  2  0  0  0  0
  3  9  2  0  0  0  0
  3 21  1  0  0  0  0
  4 14  1  0  0  0  0
  4 21  2  0  0  0  0
  5 14  1  0  0  0  0
  5 33  1  0  0  0  0
  5 34  1  0  0  0  0
  6  7  1  0  0  0  0
  6  8  1  0  0  0  0
  7  9  1  0  0  0  0
  7 14  2  0  0  0  0
  8 11  2  0  0  0  0
  8 13  1  0  0  0  0
 10 11  1  0  0  0  0
 10 12  1  0  0  0  0
 10 17  2  0  0  0  0
 11 22  1  0  0  0  0
 12 15  1  0  0  0  0
 12 18  2  0  0  0  0
 13 15  2  0  0  0  0
 13 23  1  0  0  0  0
 15 24  1  0  0  0  0
 16 25  1  0  0  0  0
 16 26  1  0  0  0  0
 16 27  1  0  0  0  0
 17 19  1  0  0  0  0
 17 28  1  0  0  0  0
 18 20  1  0  0  0  0
 18 29  1  0  0  0  0
 19 20  2  0  0  0  0
 19 30  1  0  0  0  0
 20 31  1  0  0  0  0
 21 32  1  0  0  0  0
M  END
> <PUBCHEM_COMPOUND_CID>
24905144

> <PUBCHEM_CONFORMER_RMSD>
0.6

> <PUBCHEM_CONFORMER_DIVERSEORDER>
1
2

> <PUBCHEM_MMFF94_PARTIAL_CHARGES>
28
1 0.31
11 -0.15
13 -0.15
14 0.41
15 -0.15
16 0.26
17 -0.15
18 -0.15
19 -0.15
2 -0.71
20 -0.15
21 0.47
22 0.15
23 0.15
24 0.15
28 0.15
29 0.15
3 -0.57
30 0.15
31 0.15
32 0.15
33 0.4
34 0.4
4 -0.62
5 -0.9
6 0.23
8 0.05
9 0.11

> <PUBCHEM_EFFECTIVE_ROTOR_COUNT>
1

> <PUBCHEM_PHARMACOPHORE_FEATURES>
9
1 2 acceptor
1 5 cation
1 5 donor
3 1 3 9 cation
3 3 4 21 cation
5 1 2 6 7 9 rings
6 10 12 17 18 19 20 rings
6 3 4 7 9 14 21 rings
6 8 10 11 12 13 15 rings

> <PUBCHEM_HEAVY_ATOM_COUNT>
21

> <PUBCHEM_ATOM_DEF_STEREO_COUNT>
0

> <PUBCHEM_ATOM_UDEF_STEREO_COUNT>
0

> <PUBCHEM_BOND_DEF_STEREO_COUNT>
0

> <PUBCHEM_BOND_UDEF_STEREO_COUNT>
0

> <PUBCHEM_ISOTOPIC_ATOM_COUNT>
0

> <PUBCHEM_COMPONENT_COUNT>
1

> <PUBCHEM_CACTVS_TAUTO_COUNT>
5

> <PUBCHEM_CONFORMER_ID>
017C05B800000001

> <PUBCHEM_MMFF94_ENERGY>
59.4872

> <PUBCHEM_FEATURE_SELFOVERLAP>
45.978

> <PUBCHEM_SHAPE_FINGERPRINT>
10693767 8 18059862710602967574
11471102 20 18410294718241637248
11543360 7 18340476851138775215
12236239 1 17632580439484035939
12403259 415 17603589595531481439
12616971 3 17988365880041944027
12730499 353 18333737939402104499
13009979 54 17416977114542564186
13134695 92 18411138009210907860
13544592 145 17822017466824151003
13583140 156 18336551615881164947
13631057 29 17912637209799959207
13760787 5 18202002097372884327
14386348 63 17749113291903333779
15375358 24 17822008730891864421
15848702 151 18340488876772819431
17349148 13 17131833153391961655
17357779 13 18261393304199573212
17818456 19 16913706388591188017
1813 80 17843135701366303422
18186145 218 17749671801187631779
18222031 100 18128254489797602830
18681886 176 16415476095258464940
19862831 5 17417816179163086705
200 152 18130787854385945585
20511986 3 17561069315626222240
20612939 158 18412544292856094518
20645476 183 17846213414689843799
20645477 56 17821731658668173363
20645477 70 18409450250098588430
21033648 29 17894621565881537573
21033650 10 16127279764848188008
21065201 7 16588031203537366939
221357 26 18335694997549410149
22289505 5 18336257959970969404
23402539 116 15985106305669843081
23557571 272 17458917040822604331
23559900 14 17022906705397616890
23598291 2 17845662438630476463
25 1 18336828688399911000
341906 21 15719386218520724463
4072396 5 18335688461046684712
4409770 3 15464980895705540703
474 4 18269274723975328248
495365 180 18040424486725143066
5281201 14 18335137544795041837
602551 16 16153996853625930177
633830 44 18187920639218501453
7164475 11 17987801774404801064
7471813 234 18059288760636303192
77492 1 17632302258731521178
8272917 22 18342463607819166830
9981440 41 16550562291225974288

> <PUBCHEM_SHAPE_MULTIPOLES>
407.27
10.39
2.02
1.29
4.97
0.04
0.16
-0.9
-2.3
-3.85
-0.11
1.79
0.08
0.29

> <PUBCHEM_SHAPE_SELFOVERLAP>
924.73

> <PUBCHEM_SHAPE_VOLUME>
210.2

> <PUBCHEM_COORDINATE_TYPE>
2
5
10

$$$$
