49830355
  -OEChem-10062121543D

 46 49  0     0  0  0  0  0  0999 V2000
   -3.8318   -2.8245   -0.9092 F   0  0  0  0  0  0  0  0  0  0  0  0
    6.1200   -0.6363    2.4225 F   0  0  0  0  0  0  0  0  0  0  0  0
    2.5427    0.1874   -1.0542 O   0  0  0  0  0  0  0  0  0  0  0  0
   -6.5355    1.7952    0.0500 N   0  0  0  0  0  0  0  0  0  0  0  0
   -5.5978    2.6354    0.5187 N   0  0  0  0  0  0  0  0  0  0  0  0
    1.5838   -0.5150    0.9647 N   0  0  0  0  0  0  0  0  0  0  0  0
   -3.2632    2.3350    0.9019 N   0  0  0  0  0  0  0  0  0  0  0  0
    3.8776   -0.2952    0.8043 N   0  0  0  0  0  0  0  0  0  0  0  0
   -4.7069    0.5850    0.0295 C   0  0  0  0  0  0  0  0  0  0  0  0
   -3.9252   -0.5624   -0.1858 C   0  0  0  0  0  0  0  0  0  0  0  0
   -6.0658    0.5480   -0.2624 C   0  0  0  0  0  0  0  0  0  0  0  0
   -2.5125   -0.5502    0.1092 C   0  0  0  0  0  0  0  0  0  0  0  0
   -4.4867    1.8956    0.5048 C   0  0  0  0  0  0  0  0  0  0  0  0
   -4.5477   -1.7108   -0.6908 C   0  0  0  0  0  0  0  0  0  0  0  0
   -6.7059   -0.5864   -0.7664 C   0  0  0  0  0  0  0  0  0  0  0  0
   -2.0619   -0.9139    1.3783 C   0  0  0  0  0  0  0  0  0  0  0  0
   -1.5977   -0.1751   -0.8746 C   0  0  0  0  0  0  0  0  0  0  0  0
   -5.9145   -1.7206   -0.9754 C   0  0  0  0  0  0  0  0  0  0  0  0
    0.2182   -0.5269    0.6795 C   0  0  0  0  0  0  0  0  0  0  0  0
   -0.6966   -0.9023    1.6634 C   0  0  0  0  0  0  0  0  0  0  0  0
   -0.2324   -0.1632   -0.5895 C   0  0  0  0  0  0  0  0  0  0  0  0
    5.1838   -0.0472    0.3205 C   0  0  0  0  0  0  0  0  0  0  0  0
    2.6617   -0.1691    0.1136 C   0  0  0  0  0  0  0  0  0  0  0  0
    6.6556    0.6241   -1.4740 C   0  0  0  0  0  0  0  0  0  0  0  0
    5.3688    0.3785   -0.9949 C   0  0  0  0  0  0  0  0  0  0  0  0
    6.2857   -0.2271    1.1567 C   0  0  0  0  0  0  0  0  0  0  0  0
    7.7574    0.4443   -0.6377 C   0  0  0  0  0  0  0  0  0  0  0  0
    7.5725    0.0187    0.6777 C   0  0  0  0  0  0  0  0  0  0  0  0
    6.8542    1.0790   -2.8807 C   0  0  0  0  0  0  0  0  0  0  0  0
   -7.7675   -0.5921   -0.9868 H   0  0  0  0  0  0  0  0  0  0  0  0
   -2.7617   -1.2086    2.1567 H   0  0  0  0  0  0  0  0  0  0  0  0
   -1.9336    0.1114   -1.8686 H   0  0  0  0  0  0  0  0  0  0  0  0
   -6.3727   -2.6254   -1.3666 H   0  0  0  0  0  0  0  0  0  0  0  0
   -7.4847    2.1370   -0.0333 H   0  0  0  0  0  0  0  0  0  0  0  0
   -0.3595   -1.1878    2.6567 H   0  0  0  0  0  0  0  0  0  0  0  0
    0.4104    0.1394   -1.4037 H   0  0  0  0  0  0  0  0  0  0  0  0
    1.8350   -0.7923    1.9104 H   0  0  0  0  0  0  0  0  0  0  0  0
   -3.1338    3.2838    1.2403 H   0  0  0  0  0  0  0  0  0  0  0  0
   -2.4170    1.7799    0.8943 H   0  0  0  0  0  0  0  0  0  0  0  0
    4.5619    0.5363   -1.6961 H   0  0  0  0  0  0  0  0  0  0  0  0
    3.8255   -0.6020    1.7724 H   0  0  0  0  0  0  0  0  0  0  0  0
    8.7658    0.6304   -0.9976 H   0  0  0  0  0  0  0  0  0  0  0  0
    8.4301   -0.1219    1.3290 H   0  0  0  0  0  0  0  0  0  0  0  0
    7.8659    1.4663   -3.0421 H   0  0  0  0  0  0  0  0  0  0  0  0
    6.1560    1.8862   -3.1269 H   0  0  0  0  0  0  0  0  0  0  0  0
    6.6932    0.2456   -3.5719 H   0  0  0  0  0  0  0  0  0  0  0  0
  1 14  1  0  0  0  0
  2 26  1  0  0  0  0
  3 23  2  0  0  0  0
  4  5  1  0  0  0  0
  4 11  1  0  0  0  0
  4 34  1  0  0  0  0
  5 13  2  0  0  0  0
  6 19  1  0  0  0  0
  6 23  1  0  0  0  0
  6 37  1  0  0  0  0
  7 13  1  0  0  0  0
  7 38  1  0  0  0  0
  7 39  1  0  0  0  0
  8 22  1  0  0  0  0
  8 23  1  0  0  0  0
  8 41  1  0  0  0  0
  9 10  1  0  0  0  0
  9 11  2  0  0  0  0
  9 13  1  0  0  0  0
 10 12  1  0  0  0  0
 10 14  2  0  0  0  0
 11 15  1  0  0  0  0
 12 16  2  0  0  0  0
 12 17  1  0  0  0  0
 14 18  1  0  0  0  0
 15 18  2  0  0  0  0
 15 30  1  0  0  0  0
 16 20  1  0  0  0  0
 16 31  1  0  0  0  0
 17 21  2  0  0  0  0
 17 32  1  0  0  0  0
 18 33  1  0  0  0  0
 19 20  2  0  0  0  0
 19 21  1  0  0  0  0
 20 35  1  0  0  0  0
 21 36  1  0  0  0  0
 22 25  1  0  0  0  0
 22 26  2  0  0  0  0
 24 25  2  0  0  0  0
 24 27  1  0  0  0  0
 24 29  1  0  0  0  0
 25 40  1  0  0  0  0
 26 28  1  0  0  0  0
 27 28  2  0  0  0  0
 27 42  1  0  0  0  0
 28 43  1  0  0  0  0
 29 44  1  0  0  0  0
 29 45  1  0  0  0  0
 29 46  1  0  0  0  0
M  END
> <PUBCHEM_COMPOUND_CID>
49830355

> <PUBCHEM_CONFORMER_RMSD>
0.8

> <PUBCHEM_CONFORMER_DIVERSEORDER>
2
12
24
11
22
25
33
28
9
13
32
10
31
8
18
14
7
17
34
1
15
21
30
6
26
20
23
4
16
19
29
27
3
5

> <PUBCHEM_MMFF94_PARTIAL_CHARGES>
40
1 -0.19
11 -0.15
13 0.37
14 0.19
15 -0.15
16 -0.15
17 -0.15
18 -0.15
19 0.12
2 -0.19
20 -0.15
21 -0.15
22 0.12
23 0.69
24 -0.14
25 -0.15
26 0.19
27 -0.15
28 -0.15
29 0.14
3 -0.57
30 0.15
31 0.15
32 0.15
33 0.15
34 0.27
35 0.15
36 0.15
37 0.37
38 0.4
39 0.4
4 0.3
40 0.15
41 0.37
42 0.15
43 0.15
5 -0.71
6 -0.55
7 -0.88
8 -0.55

> <PUBCHEM_EFFECTIVE_ROTOR_COUNT>
5

> <PUBCHEM_PHARMACOPHORE_FEATURES>
10
1 3 acceptor
1 4 donor
1 6 donor
1 7 donor
1 8 donor
3 5 7 13 cation
5 4 5 9 11 13 rings
6 12 16 17 19 20 21 rings
6 22 24 25 26 27 28 rings
6 9 10 11 14 15 18 rings

> <PUBCHEM_HEAVY_ATOM_COUNT>
29

> <PUBCHEM_ATOM_DEF_STEREO_COUNT>
0

> <PUBCHEM_ATOM_UDEF_STEREO_COUNT>
0

> <PUBCHEM_BOND_DEF_STEREO_COUNT>
0

> <PUBCHEM_BOND_UDEF_STEREO_COUNT>
0

> <PUBCHEM_ISOTOPIC_ATOM_COUNT>
0

> <PUBCHEM_COMPONENT_COUNT>
1

> <PUBCHEM_CACTVS_TAUTO_COUNT>
80

> <PUBCHEM_CONFORMER_ID>
02F859D300000002

> <PUBCHEM_MMFF94_ENERGY>
83.8048

> <PUBCHEM_FEATURE_SELFOVERLAP>
50.887

> <PUBCHEM_SHAPE_FINGERPRINT>
10 15 13767929048581832510
10076449 9 17846780728957713555
10299344 5 18186517709489111846
10411042 1 17983004846846777511
10554248 39 17676206862658560230
10638233 991 18040438819384593556
10906281 52 17967545557817718666
11315181 36 18186801405164335607
12082328 90 18343300370532891678
12236239 1 18186798067705753875
13533116 47 17749098968999921914
13782708 43 17203039802613146175
14118638 360 18272369737717878327
14251764 18 18040716973907965564
14849402 71 17604441798189250372
14856354 85 18341049713840169599
150020 25 17203892942232322864
15183329 4 18187083966498844436
15198563 99 16415207719479074952
15276724 80 17385721396579053212
15328684 2 18189603965308296928
15419008 47 17275098427485540856
15419008 91 17489288798972214312
1577012 14 18186803569289860568
19489759 90 18343863325166200531
20281389 69 16226044496657110598
21756936 100 18114186316060930291
21792961 116 17131837546848262046
23081809 10 18186798093512565434
23198884 109 18408041814336617955
23522609 53 18041577870476242772
23559900 14 17489579091337188419
23576562 1 18121224435782037340
249057 3 18273210937353859309
328310 630 17386014995889470998
34797466 226 17489587913732692592
394071 54 16732986414745110282
397830 11 16987140837855332738
4073 2 18260833700274095722
4169191 19 17240486922671702262
4339292 15 17345739915678277799
44555599 121 17894635868180701316
445580 37 18342182158802027429
44880568 143 17847064380544535528
5104073 3 16588593123231504264
5265222 85 17987514982079502926
5969126 39 14261354626536228395
59755656 520 17385722504564700707
6328613 192 17676214601909799740

> <PUBCHEM_SHAPE_MULTIPOLES>
551.48
24.32
1.81
1.68
26.73
0.48
-0.25
6.16
-4.01
-2.54
0.11
1.34
0.06
-4.48

> <PUBCHEM_SHAPE_SELFOVERLAP>
1230.393

> <PUBCHEM_SHAPE_VOLUME>
294.3

> <PUBCHEM_COORDINATE_TYPE>
2
5
10

$$$$
