5329009
  -OEChem-10062121583D

 36 38  0     0  0  0  0  0  0999 V2000
    5.0751   -0.9338    2.1185 Cl  0  0  0  0  0  0  0  0  0  0  0  0
    6.4848    0.7074    0.0924 F   0  0  0  0  0  0  0  0  0  0  0  0
   -3.6745    2.3297    0.0738 O   0  0  0  0  0  0  0  0  0  0  0  0
   -5.2826    0.0974    0.4695 O   0  0  0  0  0  0  0  0  0  0  0  0
    0.9986    0.4841   -0.6509 N   0  0  0  0  0  0  0  0  0  0  0  0
   -1.5050   -2.7555   -0.0459 N   0  0  0  0  0  0  0  0  0  0  0  0
    0.6824   -1.8410   -0.4769 N   0  0  0  0  0  0  0  0  0  0  0  0
   -1.2254   -0.3799   -0.2171 C   0  0  0  0  0  0  0  0  0  0  0  0
   -2.0261   -1.5164   -0.0181 C   0  0  0  0  0  0  0  0  0  0  0  0
    0.1281   -0.6146   -0.4427 C   0  0  0  0  0  0  0  0  0  0  0  0
   -1.7812    0.9109   -0.1858 C   0  0  0  0  0  0  0  0  0  0  0  0
   -3.1432    1.0767    0.0449 C   0  0  0  0  0  0  0  0  0  0  0  0
   -3.3860   -1.3214    0.2107 C   0  0  0  0  0  0  0  0  0  0  0  0
   -3.9462   -0.0410    0.2434 C   0  0  0  0  0  0  0  0  0  0  0  0
    2.3671    0.5382   -0.4612 C   0  0  0  0  0  0  0  0  0  0  0  0
   -0.1792   -2.8505   -0.2737 C   0  0  0  0  0  0  0  0  0  0  0  0
    2.9789   -0.1438    0.6093 C   0  0  0  0  0  0  0  0  0  0  0  0
    3.1913    1.2764   -1.3338 C   0  0  0  0  0  0  0  0  0  0  0  0
    4.3598   -0.0898    0.7996 C   0  0  0  0  0  0  0  0  0  0  0  0
    4.5719    1.3304   -1.1436 C   0  0  0  0  0  0  0  0  0  0  0  0
    5.1561    0.6473   -0.0770 C   0  0  0  0  0  0  0  0  0  0  0  0
   -3.7083    2.9913    1.3373 C   0  0  0  0  0  0  0  0  0  0  0  0
   -6.1365    0.0980   -0.6728 C   0  0  0  0  0  0  0  0  0  0  0  0
   -1.1743    1.8008   -0.3307 H   0  0  0  0  0  0  0  0  0  0  0  0
   -4.0302   -2.1850    0.3688 H   0  0  0  0  0  0  0  0  0  0  0  0
    0.6257    1.1904   -1.2772 H   0  0  0  0  0  0  0  0  0  0  0  0
    2.3699   -0.7069    1.3143 H   0  0  0  0  0  0  0  0  0  0  0  0
    2.7530    1.8145   -2.1717 H   0  0  0  0  0  0  0  0  0  0  0  0
    0.2346   -3.8513   -0.2944 H   0  0  0  0  0  0  0  0  0  0  0  0
    5.1923    1.9037   -1.8260 H   0  0  0  0  0  0  0  0  0  0  0  0
   -4.3120    2.4244    2.0530 H   0  0  0  0  0  0  0  0  0  0  0  0
   -4.1646    3.9749    1.1967 H   0  0  0  0  0  0  0  0  0  0  0  0
   -2.6941    3.1278    1.7256 H   0  0  0  0  0  0  0  0  0  0  0  0
   -5.8867    0.9287   -1.3403 H   0  0  0  0  0  0  0  0  0  0  0  0
   -7.1671    0.2229   -0.3300 H   0  0  0  0  0  0  0  0  0  0  0  0
   -6.0589   -0.8526   -1.2100 H   0  0  0  0  0  0  0  0  0  0  0  0
  1 19  1  0  0  0  0
  2 21  1  0  0  0  0
  3 12  1  0  0  0  0
  3 22  1  0  0  0  0
  4 14  1  0  0  0  0
  4 23  1  0  0  0  0
  5 10  1  0  0  0  0
  5 15  1  0  0  0  0
  5 26  1  0  0  0  0
  6  9  1  0  0  0  0
  6 16  2  0  0  0  0
  7 10  2  0  0  0  0
  7 16  1  0  0  0  0
  8  9  1  0  0  0  0
  8 10  1  0  0  0  0
  8 11  2  0  0  0  0
  9 13  2  0  0  0  0
 11 12  1  0  0  0  0
 11 24  1  0  0  0  0
 12 14  2  0  0  0  0
 13 14  1  0  0  0  0
 13 25  1  0  0  0  0
 15 17  2  0  0  0  0
 15 18  1  0  0  0  0
 16 29  1  0  0  0  0
 17 19  1  0  0  0  0
 17 27  1  0  0  0  0
 18 20  2  0  0  0  0
 18 28  1  0  0  0  0
 19 21  2  0  0  0  0
 20 21  1  0  0  0  0
 20 30  1  0  0  0  0
 22 31  1  0  0  0  0
 22 32  1  0  0  0  0
 22 33  1  0  0  0  0
 23 34  1  0  0  0  0
 23 35  1  0  0  0  0
 23 36  1  0  0  0  0
M  END
> <PUBCHEM_COMPOUND_CID>
5329009

> <PUBCHEM_CONFORMER_RMSD>
0.6

> <PUBCHEM_CONFORMER_DIVERSEORDER>
2
48
21
43
17
18
45
9
33
31
46
36
28
44
38
47
6
35
22
20
34
32
39
1
13
40
23
16
15
19
30
41
24
12
37
5
42
27
29
10
3
8
14
25
11
26
4
7

> <PUBCHEM_MMFF94_PARTIAL_CHARGES>
29
1 -0.18
10 0.41
11 -0.15
12 0.08
13 -0.15
14 0.08
15 0.1
16 0.47
17 -0.15
18 -0.15
19 0.18
2 -0.19
20 -0.15
21 0.19
22 0.28
23 0.28
24 0.15
25 0.15
26 0.4
27 0.15
28 0.15
29 0.15
3 -0.36
30 0.15
4 -0.36
5 -0.6
6 -0.62
7 -0.62
9 0.31

> <PUBCHEM_EFFECTIVE_ROTOR_COUNT>
4

> <PUBCHEM_PHARMACOPHORE_FEATURES>
8
1 3 acceptor
1 4 acceptor
1 5 donor
3 5 7 10 cation
3 6 7 16 cation
6 15 17 18 19 20 21 rings
6 6 7 8 9 10 16 rings
6 8 9 11 12 13 14 rings

> <PUBCHEM_HEAVY_ATOM_COUNT>
23

> <PUBCHEM_ATOM_DEF_STEREO_COUNT>
0

> <PUBCHEM_ATOM_UDEF_STEREO_COUNT>
0

> <PUBCHEM_BOND_DEF_STEREO_COUNT>
0

> <PUBCHEM_BOND_UDEF_STEREO_COUNT>
0

> <PUBCHEM_ISOTOPIC_ATOM_COUNT>
0

> <PUBCHEM_COMPONENT_COUNT>
1

> <PUBCHEM_CACTVS_TAUTO_COUNT>
3

> <PUBCHEM_CONFORMER_ID>
0051507100000002

> <PUBCHEM_MMFF94_ENERGY>
98.7984

> <PUBCHEM_FEATURE_SELFOVERLAP>
40.772

> <PUBCHEM_SHAPE_FINGERPRINT>
10411042 1 17691970779651393431
10670039 82 18339376171037626844
10674148 151 18408045097010579874
11552529 35 17388269093558775946
12107183 9 17899969431440568536
12236239 1 17968095369402546718
12390115 104 18129959874975631217
12403260 363 18412258463152038053
12596602 18 17530965817065807537
12788726 201 17902240232037324074
12916748 109 18342185470074041613
13140716 1 18123479534114677107
13533116 47 17385435514664982194
13914758 101 17023172783428027733
14466204 15 18341329998646773896
14767858 380 18341880919192793391
15042514 8 18193846061947512363
17818456 19 18409449168167327748
1813 80 16588026762926408694
19489759 90 18131633395680604665
21033648 29 17203322304434998888
21065198 48 18186518817511488048
212916 134 18272922817725443530
23402539 116 18341326794896174071
23559900 14 18202014222450495014
23569917 315 18409732859163735679
2838139 119 17168687658506630749
345986 75 17750211653108181216
469060 322 18199490843080587969
474229 33 18410858780744770607
495365 180 17275105003623672422
5104073 3 18193286200148800611
5385378 56 18199762366159221483
5486654 2 18343021108324051343
59755656 215 18341620282949367110
6371009 1 18410849962976965109
7064713 232 18410852123271246056
7226269 152 17989488498609772664
9981440 41 18408892811057590035

> <PUBCHEM_SHAPE_MULTIPOLES>
441.24
13.47
2.53
1.18
5.14
0.37
-0.39
-4.93
-2.15
-2.23
-0.27
1.34
-0.23
-1.88

> <PUBCHEM_SHAPE_SELFOVERLAP>
956.955

> <PUBCHEM_SHAPE_VOLUME>
243.8

> <PUBCHEM_COORDINATE_TYPE>
2
5
10

$$$$
