49830511
  -OEChem-10052115183D

 65 68  0     0  0  0  0  0  0999 V2000
    2.0788   -5.2756   -0.9062 Br  0  0  0  0  0  0  0  0  0  0  0  0
   -2.5839   -3.1139   -0.6523 S   0  0  0  0  0  0  0  0  0  0  0  0
   -5.2177    2.8814   -1.8963 O   0  0  0  0  0  0  0  0  0  0  0  0
    5.0634    2.6684    0.4166 O   0  0  0  0  0  0  0  0  0  0  0  0
   -4.0280   -2.9310   -0.6276 O   0  0  0  0  0  0  0  0  0  0  0  0
   -1.8288   -2.6966   -1.8242 O   0  0  0  0  0  0  0  0  0  0  0  0
   -0.4310    2.9828   -0.2654 N   0  0  0  0  0  0  0  0  0  0  0  0
   -3.3056    3.0801   -0.5909 N   0  0  0  0  0  0  0  0  0  0  0  0
    3.6861    0.4772   -0.6884 N   0  0  0  0  0  0  0  0  0  0  0  0
    2.0328   -1.1463   -0.3452 N   0  0  0  0  0  0  0  0  0  0  0  0
    0.3744   -2.7928   -0.0034 N   0  0  0  0  0  0  0  0  0  0  0  0
    4.2168   -1.7546   -1.1619 N   0  0  0  0  0  0  0  0  0  0  0  0
   -2.2314   -4.7532   -0.3277 N   0  0  0  0  0  0  0  0  0  0  0  0
   -1.0933    2.2895   -1.3739 C   0  0  0  0  0  0  0  0  0  0  0  0
   -1.2545    3.7944    0.6341 C   0  0  0  0  0  0  0  0  0  0  0  0
   -2.4050    2.9821   -1.7367 C   0  0  0  0  0  0  0  0  0  0  0  0
   -2.6747    3.2354    0.7217 C   0  0  0  0  0  0  0  0  0  0  0  0
    0.9491    2.8989   -0.0977 C   0  0  0  0  0  0  0  0  0  0  0  0
   -4.6847    3.0122   -0.7921 C   0  0  0  0  0  0  0  0  0  0  0  0
    1.6289    1.7407   -0.4746 C   0  0  0  0  0  0  0  0  0  0  0  0
    1.6514    3.9729    0.4493 C   0  0  0  0  0  0  0  0  0  0  0  0
    3.0108    1.6565   -0.3050 C   0  0  0  0  0  0  0  0  0  0  0  0
   -5.5443    3.1130    0.4441 C   0  0  0  0  0  0  0  0  0  0  0  0
    3.0333    3.8889    0.6189 C   0  0  0  0  0  0  0  0  0  0  0  0
    3.7130    2.7305    0.2418 C   0  0  0  0  0  0  0  0  0  0  0  0
    3.2929   -0.8733   -0.7340 C   0  0  0  0  0  0  0  0  0  0  0  0
   -1.8950   -2.3028    0.7381 C   0  0  0  0  0  0  0  0  0  0  0  0
   -0.5147   -2.2232    0.9227 C   0  0  0  0  0  0  0  0  0  0  0  0
    1.6894   -2.4499   -0.4016 C   0  0  0  0  0  0  0  0  0  0  0  0
    5.5316    2.1594    1.6636 C   0  0  0  0  0  0  0  0  0  0  0  0
   -2.7577   -1.7291    1.6722 C   0  0  0  0  0  0  0  0  0  0  0  0
    0.0029   -1.5702    2.0412 C   0  0  0  0  0  0  0  0  0  0  0  0
    2.5424   -3.4501   -0.8214 C   0  0  0  0  0  0  0  0  0  0  0  0
    3.8064   -3.0396   -1.1932 C   0  0  0  0  0  0  0  0  0  0  0  0
   -2.2401   -1.0758    2.7908 C   0  0  0  0  0  0  0  0  0  0  0  0
   -0.8598   -0.9964    2.9752 C   0  0  0  0  0  0  0  0  0  0  0  0
   -2.7544   -5.3898    0.8895 C   0  0  0  0  0  0  0  0  0  0  0  0
   -1.2915    1.2498   -1.0847 H   0  0  0  0  0  0  0  0  0  0  0  0
   -0.4564    2.2820   -2.2669 H   0  0  0  0  0  0  0  0  0  0  0  0
   -1.2824    4.8271    0.2654 H   0  0  0  0  0  0  0  0  0  0  0  0
   -0.8363    3.8067    1.6481 H   0  0  0  0  0  0  0  0  0  0  0  0
   -2.8965    2.4489   -2.5574 H   0  0  0  0  0  0  0  0  0  0  0  0
   -2.2154    4.0066   -2.0797 H   0  0  0  0  0  0  0  0  0  0  0  0
   -3.2835    3.8857    1.3566 H   0  0  0  0  0  0  0  0  0  0  0  0
   -2.6611    2.2400    1.1826 H   0  0  0  0  0  0  0  0  0  0  0  0
    1.0753    0.9269   -0.9292 H   0  0  0  0  0  0  0  0  0  0  0  0
    1.1543    4.8945    0.7391 H   0  0  0  0  0  0  0  0  0  0  0  0
   -5.5020    4.1288    0.8455 H   0  0  0  0  0  0  0  0  0  0  0  0
   -5.2213    2.3921    1.1996 H   0  0  0  0  0  0  0  0  0  0  0  0
   -6.5827    2.8867    0.1831 H   0  0  0  0  0  0  0  0  0  0  0  0
    3.5745    4.7309    1.0420 H   0  0  0  0  0  0  0  0  0  0  0  0
    4.6795    0.6033   -0.8580 H   0  0  0  0  0  0  0  0  0  0  0  0
    5.2033    2.8022    2.4866 H   0  0  0  0  0  0  0  0  0  0  0  0
    5.1780    1.1359    1.8230 H   0  0  0  0  0  0  0  0  0  0  0  0
    6.6248    2.1515    1.6414 H   0  0  0  0  0  0  0  0  0  0  0  0
   -0.0231   -3.5266   -0.5807 H   0  0  0  0  0  0  0  0  0  0  0  0
   -3.8367   -1.7754    1.5594 H   0  0  0  0  0  0  0  0  0  0  0  0
    1.0733   -1.5055    2.2176 H   0  0  0  0  0  0  0  0  0  0  0  0
    4.5579   -3.7425   -1.5394 H   0  0  0  0  0  0  0  0  0  0  0  0
   -2.9115   -0.6293    3.5184 H   0  0  0  0  0  0  0  0  0  0  0  0
   -0.4570   -0.4901    3.8475 H   0  0  0  0  0  0  0  0  0  0  0  0
   -1.3876   -5.1749   -0.7341 H   0  0  0  0  0  0  0  0  0  0  0  0
   -2.8990   -6.4565    0.6965 H   0  0  0  0  0  0  0  0  0  0  0  0
   -2.0356   -5.2782    1.7052 H   0  0  0  0  0  0  0  0  0  0  0  0
   -3.7169   -4.9644    1.1838 H   0  0  0  0  0  0  0  0  0  0  0  0
  1 33  1  0  0  0  0
  2  5  2  0  0  0  0
  2  6  2  0  0  0  0
  2 13  1  0  0  0  0
  2 27  1  0  0  0  0
  3 19  2  0  0  0  0
  4 25  1  0  0  0  0
  4 30  1  0  0  0  0
  7 14  1  0  0  0  0
  7 15  1  0  0  0  0
  7 18  1  0  0  0  0
  8 16  1  0  0  0  0
  8 17  1  0  0  0  0
  8 19  1  0  0  0  0
  9 22  1  0  0  0  0
  9 26  1  0  0  0  0
  9 52  1  0  0  0  0
 10 26  1  0  0  0  0
 10 29  2  0  0  0  0
 11 28  1  0  0  0  0
 11 29  1  0  0  0  0
 11 56  1  0  0  0  0
 12 26  2  0  0  0  0
 12 34  1  0  0  0  0
 13 37  1  0  0  0  0
 13 62  1  0  0  0  0
 14 16  1  0  0  0  0
 14 38  1  0  0  0  0
 14 39  1  0  0  0  0
 15 17  1  0  0  0  0
 15 40  1  0  0  0  0
 15 41  1  0  0  0  0
 16 42  1  0  0  0  0
 16 43  1  0  0  0  0
 17 44  1  0  0  0  0
 17 45  1  0  0  0  0
 18 20  2  0  0  0  0
 18 21  1  0  0  0  0
 19 23  1  0  0  0  0
 20 22  1  0  0  0  0
 20 46  1  0  0  0  0
 21 24  2  0  0  0  0
 21 47  1  0  0  0  0
 22 25  2  0  0  0  0
 23 48  1  0  0  0  0
 23 49  1  0  0  0  0
 23 50  1  0  0  0  0
 24 25  1  0  0  0  0
 24 51  1  0  0  0  0
 27 28  1  0  0  0  0
 27 31  2  0  0  0  0
 28 32  2  0  0  0  0
 29 33  1  0  0  0  0
 30 53  1  0  0  0  0
 30 54  1  0  0  0  0
 30 55  1  0  0  0  0
 31 35  1  0  0  0  0
 31 57  1  0  0  0  0
 32 36  1  0  0  0  0
 32 58  1  0  0  0  0
 33 34  2  0  0  0  0
 34 59  1  0  0  0  0
 35 36  2  0  0  0  0
 35 60  1  0  0  0  0
 36 61  1  0  0  0  0
 37 63  1  0  0  0  0
 37 64  1  0  0  0  0
 37 65  1  0  0  0  0
M  END
> <PUBCHEM_COMPOUND_CID>
49830511

> <PUBCHEM_CONFORMER_RMSD>
1

> <PUBCHEM_CONFORMER_DIVERSEORDER>
1
24
87
119
114
50
164
158
33
74
123
176
23
146
84
60
160
165
166
59
89
175
79
111
22
75
143
41
120
51
177
128
65
44
110
161
138
135
73
147
58
81
173
12
130
136
156
181
85
46
57
29
52
168
42
117
105
13
162
100
86
101
83
77
174
25
133
171
124
67
40
78
134
99
112
170
122
106
48
121
140
39
92
125
152
17
91
144
180
14
126
145
72
142
66
115
61
167
45
37
88
69
137
159
118
149
179
155
104
9
148
157
183
129
154
36
131
71
108
94
35
70
113
82
98
116
76
54
109
182
178
53
43
153
47
63
26
169
4
141
172
93
28
64
102
107
18
95
8
55
3
30
38
96
151
56
163
32
80
150
31
97
49
27
62
68
16
90
132
139
184
11
127
15
2
10
6
19
21
34
5
103
20
7

> <PUBCHEM_MMFF94_PARTIAL_CHARGES>
48
1 -0.11
10 -0.62
11 -0.6
12 -0.62
13 -0.91
14 0.37
15 0.37
16 0.3
17 0.3
18 0.1
19 0.57
2 1.45
20 -0.15
21 -0.15
22 0.1
23 0.06
24 -0.15
25 0.08
26 0.72
27 -0.01
28 0.1
29 0.41
3 -0.57
30 0.28
31 -0.15
32 -0.15
33 0.11
34 0.16
35 -0.15
36 -0.15
37 0.36
4 -0.36
46 0.15
47 0.15
5 -0.65
51 0.15
52 0.4
56 0.4
57 0.15
58 0.15
59 0.15
6 -0.65
60 0.15
61 0.15
62 0.42
7 -0.84
8 -0.66
9 -0.6

> <PUBCHEM_EFFECTIVE_ROTOR_COUNT>
10.2

> <PUBCHEM_PHARMACOPHORE_FEATURES>
14
1 1 hydrophobe
1 11 donor
1 13 donor
1 3 acceptor
1 4 acceptor
1 5 acceptor
1 6 acceptor
1 7 cation
1 9 donor
4 9 10 12 26 cation
6 10 12 26 29 33 34 rings
6 18 20 21 22 24 25 rings
6 27 28 31 32 35 36 rings
6 7 8 14 15 16 17 rings

> <PUBCHEM_HEAVY_ATOM_COUNT>
37

> <PUBCHEM_ATOM_DEF_STEREO_COUNT>
0

> <PUBCHEM_ATOM_UDEF_STEREO_COUNT>
0

> <PUBCHEM_BOND_DEF_STEREO_COUNT>
0

> <PUBCHEM_BOND_UDEF_STEREO_COUNT>
0

> <PUBCHEM_ISOTOPIC_ATOM_COUNT>
0

> <PUBCHEM_COMPONENT_COUNT>
1

> <PUBCHEM_CACTVS_TAUTO_COUNT>
9

> <PUBCHEM_CONFORMER_ID>
02F85A6F00000001

> <PUBCHEM_MMFF94_ENERGY>
131.4536

> <PUBCHEM_FEATURE_SELFOVERLAP>
71.065

> <PUBCHEM_SHAPE_FINGERPRINT>
11578080 2 17844787249145431746
12156800 1 17906129118601632529
12597179 24 18409161100400604344
13560911 43 15095344534259495352
1361 2 18052257293656267077
13692114 37 18124849456324772553
14017579 102 18200610158412701865
14725015 67 17755860818648718088
15001296 14 18193258721106672925
15927050 60 18341610399681090204
16993438 75 18192139615089135680
19930381 70 17690284132876730455
20764821 26 18410301328196689124
20775438 99 18197473195776649695
21133410 38 18201166559115092755
25265897 201 16981023069095432855
437795 51 17899431787920466145
463206 1 17329156766936815520
5171179 24 18342464746850501134
86090 222 17897178931143802329

> <PUBCHEM_SHAPE_MULTIPOLES>
712.89
9.38
9.17
1.97
8.98
0.95
-1.11
-1.17
4.98
-5.68
-2.39
0.57
-1.15
0.87

> <PUBCHEM_SHAPE_SELFOVERLAP>
1492.345

> <PUBCHEM_SHAPE_VOLUME>
409.6

> <PUBCHEM_COORDINATE_TYPE>
2
5
10

$$$$
