11993789
  -OEChem-10062121523D

 24 26  0     0  0  0  0  0  0999 V2000
   -5.5550   -0.0904    0.0030 I   0  0  0  0  0  0  0  0  0  0  0  0
   -0.9067   -2.7873   -0.0014 O   0  0  0  0  0  0  0  0  0  0  0  0
    0.4652    1.3198   -0.0016 N   0  0  0  0  0  0  0  0  0  0  0  0
    1.0171   -1.6529   -0.0006 N   0  0  0  0  0  0  0  0  0  0  0  0
   -1.7774    1.8360   -0.0017 N   0  0  0  0  0  0  0  0  0  0  0  0
   -3.1147    1.5716   -0.0007 N   0  0  0  0  0  0  0  0  0  0  0  0
    1.7271    0.7306   -0.0001 C   0  0  0  0  0  0  0  0  0  0  0  0
    1.9805   -0.6356    0.0002 C   0  0  0  0  0  0  0  0  0  0  0  0
   -1.2274   -0.4791   -0.0004 C   0  0  0  0  0  0  0  0  0  0  0  0
   -0.8367    0.8484   -0.0014 C   0  0  0  0  0  0  0  0  0  0  0  0
   -0.3562   -1.6789   -0.0011 C   0  0  0  0  0  0  0  0  0  0  0  0
    2.8368    1.6112    0.0007 C   0  0  0  0  0  0  0  0  0  0  0  0
    3.3182   -1.0916    0.0007 C   0  0  0  0  0  0  0  0  0  0  0  0
   -2.6087   -0.7435    0.0012 C   0  0  0  0  0  0  0  0  0  0  0  0
    4.1531    1.1529    0.0014 C   0  0  0  0  0  0  0  0  0  0  0  0
    4.3952   -0.2085    0.0012 C   0  0  0  0  0  0  0  0  0  0  0  0
   -3.5103    0.2973    0.0009 C   0  0  0  0  0  0  0  0  0  0  0  0
    0.4878    2.3363   -0.0020 H   0  0  0  0  0  0  0  0  0  0  0  0
    1.4152   -2.5904   -0.0007 H   0  0  0  0  0  0  0  0  0  0  0  0
    2.6726    2.6884    0.0005 H   0  0  0  0  0  0  0  0  0  0  0  0
    3.5352   -2.1590    0.0006 H   0  0  0  0  0  0  0  0  0  0  0  0
   -2.9845   -1.7639    0.0024 H   0  0  0  0  0  0  0  0  0  0  0  0
    4.9778    1.8586    0.0019 H   0  0  0  0  0  0  0  0  0  0  0  0
    5.4127   -0.5865    0.0016 H   0  0  0  0  0  0  0  0  0  0  0  0
  1 17  1  0  0  0  0
  2 11  2  0  0  0  0
  3  7  1  0  0  0  0
  3 10  1  0  0  0  0
  3 18  1  0  0  0  0
  4  8  1  0  0  0  0
  4 11  1  0  0  0  0
  4 19  1  0  0  0  0
  5  6  1  0  0  0  0
  5 10  2  0  0  0  0
  6 17  2  0  0  0  0
  7  8  1  0  0  0  0
  7 12  2  0  0  0  0
  8 13  2  0  0  0  0
  9 10  1  0  0  0  0
  9 11  1  0  0  0  0
  9 14  2  0  0  0  0
 12 15  1  0  0  0  0
 12 20  1  0  0  0  0
 13 16  1  0  0  0  0
 13 21  1  0  0  0  0
 14 17  1  0  0  0  0
 14 22  1  0  0  0  0
 15 16  2  0  0  0  0
 15 23  1  0  0  0  0
 16 24  1  0  0  0  0
M  END
> <PUBCHEM_COMPOUND_CID>
11993789

> <PUBCHEM_CONFORMER_RMSD>
0.4

> <PUBCHEM_CONFORMER_DIVERSEORDER>
1

> <PUBCHEM_MMFF94_PARTIAL_CHARGES>
24
1 -0.08
10 0.41
11 0.54
12 -0.15
13 -0.15
14 -0.15
15 -0.15
16 -0.15
17 0.39
18 0.4
19 0.37
2 -0.57
20 0.15
21 0.15
22 0.15
23 0.15
24 0.15
3 -0.6
4 -0.55
5 -0.31
6 -0.31
7 0.1
8 0.12
9 0.09

> <PUBCHEM_EFFECTIVE_ROTOR_COUNT>
0.4

> <PUBCHEM_PHARMACOPHORE_FEATURES>
9
1 1 hydrophobe
1 2 acceptor
1 3 donor
1 4 donor
1 6 acceptor
3 3 5 10 cation
6 5 6 9 10 14 17 rings
6 7 8 12 13 15 16 rings
7 3 4 7 8 9 10 11 rings

> <PUBCHEM_HEAVY_ATOM_COUNT>
17

> <PUBCHEM_ATOM_DEF_STEREO_COUNT>
0

> <PUBCHEM_ATOM_UDEF_STEREO_COUNT>
0

> <PUBCHEM_BOND_DEF_STEREO_COUNT>
0

> <PUBCHEM_BOND_UDEF_STEREO_COUNT>
0

> <PUBCHEM_ISOTOPIC_ATOM_COUNT>
0

> <PUBCHEM_COMPONENT_COUNT>
1

> <PUBCHEM_CACTVS_TAUTO_COUNT>
7

> <PUBCHEM_CONFORMER_ID>
00B702BD00000001

> <PUBCHEM_MMFF94_ENERGY>
70.2634

> <PUBCHEM_FEATURE_SELFOVERLAP>
45.683

> <PUBCHEM_SHAPE_FINGERPRINT>
10411042 1 16465301186442281675
10608611 8 18340484573257929712
10967382 1 18410855451828338564
11132069 177 18341325660803021042
11471102 20 18410853261131312580
11578080 2 16771251772242769730
12011746 2 18408888429536404326
12236239 1 17846780702876484723
12592029 89 18335421227295564299
13140716 1 18265891556776893258
13221675 6 18410011044020241938
13380535 76 18412545413979955542
13583140 156 16805591595031838905
13862211 1 18410851075478547823
14115302 16 18262525895770782676
14787075 74 18342736343101588011
15196674 1 18410573937927929381
15309172 13 18410864239278704931
15442244 35 18337950091782196698
15536298 74 18342739594175527278
16945 1 18338799038938117508
17802600 8 18410570673737161544
18186145 218 18341898433299441876
200 152 18202559575675101109
20510252 161 18272371936361300177
20645477 70 18340205198061349526
21267235 1 18410864235015600246
21524375 3 18412262826474930783
21652331 79 18409448089713876517
23402539 116 18342450482831490623
23402655 69 18343862216679542325
23463225 33 18335420136663702500
23558518 356 17611743805158558984
23559900 14 18271804696358087600
2748010 2 18337395928666932540
2871803 45 18335416842465952109
335352 9 18410575085138008406
34934 24 18338792433478843914
3545911 37 18411702110447640428
366044 4 18409448102772825819
474 4 17241616198660710172
474229 33 18410856573115820971
495365 180 17346025775462578064
5104073 3 18338235968593964937
537710 114 18411985775272259033
54173680 148 18192996147473922923
6333272 397 18409166601699224771
69090 78 18413105078209386423
7364860 26 18125160437684576318
9709674 26 18341899618884677470

> <PUBCHEM_SHAPE_MULTIPOLES>
335.99
9.42
2.07
0.61
4.87
0.6
0
-1.55
0.01
-0.18
0
0.1
0
0

> <PUBCHEM_SHAPE_SELFOVERLAP>
719.217

> <PUBCHEM_SHAPE_VOLUME>
188.9

> <PUBCHEM_COORDINATE_TYPE>
2
5
10

$$$$
