11338033
  -OEChem-10052115113D

 42 44  0     0  0  0  0  0  0999 V2000
   -3.6026   -0.3063    2.6446 Cl  0  0  0  0  0  0  0  0  0  0  0  0
   -3.3867    0.4111   -2.7650 Cl  0  0  0  0  0  0  0  0  0  0  0  0
    1.0755    1.1059    0.3725 O   0  0  0  0  0  0  0  0  0  0  0  0
   -3.1317   -2.0991   -0.3309 O   0  0  0  0  0  0  0  0  0  0  0  0
    6.5380    0.9991   -0.6116 N   0  0  0  0  0  0  0  0  0  0  0  0
    3.1154    0.0503    0.4055 N   0  0  0  0  0  0  0  0  0  0  0  0
    1.7950   -2.3797   -0.0508 N   0  0  0  0  0  0  0  0  0  0  0  0
   -1.2863   -0.6672   -0.0427 N   0  0  0  0  0  0  0  0  0  0  0  0
    1.0077   -3.4472   -0.2675 N   0  0  0  0  0  0  0  0  0  0  0  0
    3.8813    1.2585    0.6097 C   0  0  0  0  0  0  0  0  0  0  0  0
    4.2428    1.9111   -0.7268 C   0  0  0  0  0  0  0  0  0  0  0  0
    5.1433    0.9855    1.4328 C   0  0  0  0  0  0  0  0  0  0  0  0
    5.3537    1.1537   -1.4560 C   0  0  0  0  0  0  0  0  0  0  0  0
    6.2263    0.2738    0.6196 C   0  0  0  0  0  0  0  0  0  0  0  0
    1.7264    0.0622    0.2985 C   0  0  0  0  0  0  0  0  0  0  0  0
    1.0933   -1.2425    0.0594 C   0  0  0  0  0  0  0  0  0  0  0  0
   -0.2155   -1.5267   -0.0843 C   0  0  0  0  0  0  0  0  0  0  0  0
   -0.2193   -2.9198   -0.2870 C   0  0  0  0  0  0  0  0  0  0  0  0
   -2.6491   -0.9843   -0.1640 C   0  0  0  0  0  0  0  0  0  0  0  0
   -3.5863    0.1642   -0.0491 C   0  0  0  0  0  0  0  0  0  0  0  0
   -4.0579    0.5254    1.1995 C   0  0  0  0  0  0  0  0  0  0  0  0
   -3.9617    0.8434   -1.1936 C   0  0  0  0  0  0  0  0  0  0  0  0
   -4.9357    1.6040    1.3076 C   0  0  0  0  0  0  0  0  0  0  0  0
   -4.8395    1.9221   -1.0856 C   0  0  0  0  0  0  0  0  0  0  0  0
   -5.3263    2.3024    0.1651 C   0  0  0  0  0  0  0  0  0  0  0  0
    3.2508    1.9557    1.1750 H   0  0  0  0  0  0  0  0  0  0  0  0
    4.5812    2.9388   -0.5395 H   0  0  0  0  0  0  0  0  0  0  0  0
    3.3624    1.9826   -1.3764 H   0  0  0  0  0  0  0  0  0  0  0  0
    4.9009    0.3894    2.3209 H   0  0  0  0  0  0  0  0  0  0  0  0
    5.5452    1.9421    1.7923 H   0  0  0  0  0  0  0  0  0  0  0  0
    4.9952    0.1721   -1.7891 H   0  0  0  0  0  0  0  0  0  0  0  0
    5.6335    1.7119   -2.3562 H   0  0  0  0  0  0  0  0  0  0  0  0
    7.1363    0.2030    1.2258 H   0  0  0  0  0  0  0  0  0  0  0  0
    5.9226   -0.7536    0.3860 H   0  0  0  0  0  0  0  0  0  0  0  0
    7.2556    0.4915   -1.1284 H   0  0  0  0  0  0  0  0  0  0  0  0
    3.6346   -0.8118    0.2863 H   0  0  0  0  0  0  0  0  0  0  0  0
    2.7935   -2.5363    0.0057 H   0  0  0  0  0  0  0  0  0  0  0  0
   -1.0534   -3.5868   -0.4501 H   0  0  0  0  0  0  0  0  0  0  0  0
   -1.0483    0.3107    0.1077 H   0  0  0  0  0  0  0  0  0  0  0  0
   -5.3245    1.9138    2.2744 H   0  0  0  0  0  0  0  0  0  0  0  0
   -5.1542    2.4772   -1.9657 H   0  0  0  0  0  0  0  0  0  0  0  0
   -6.0098    3.1424    0.2492 H   0  0  0  0  0  0  0  0  0  0  0  0
  1 21  1  0  0  0  0
  2 22  1  0  0  0  0
  3 15  2  0  0  0  0
  4 19  2  0  0  0  0
  5 13  1  0  0  0  0
  5 14  1  0  0  0  0
  5 35  1  0  0  0  0
  6 10  1  0  0  0  0
  6 15  1  0  0  0  0
  6 36  1  0  0  0  0
  7  9  1  0  0  0  0
  7 16  1  0  0  0  0
  7 37  1  0  0  0  0
  8 17  1  0  0  0  0
  8 19  1  0  0  0  0
  8 39  1  0  0  0  0
  9 18  2  0  0  0  0
 10 11  1  0  0  0  0
 10 12  1  0  0  0  0
 10 26  1  0  0  0  0
 11 13  1  0  0  0  0
 11 27  1  0  0  0  0
 11 28  1  0  0  0  0
 12 14  1  0  0  0  0
 12 29  1  0  0  0  0
 12 30  1  0  0  0  0
 13 31  1  0  0  0  0
 13 32  1  0  0  0  0
 14 33  1  0  0  0  0
 14 34  1  0  0  0  0
 15 16  1  0  0  0  0
 16 17  2  0  0  0  0
 17 18  1  0  0  0  0
 18 38  1  0  0  0  0
 19 20  1  0  0  0  0
 20 21  2  0  0  0  0
 20 22  1  0  0  0  0
 21 23  1  0  0  0  0
 22 24  2  0  0  0  0
 23 25  2  0  0  0  0
 23 40  1  0  0  0  0
 24 25  1  0  0  0  0
 24 41  1  0  0  0  0
 25 42  1  0  0  0  0
M  END
> <PUBCHEM_COMPOUND_CID>
11338033

> <PUBCHEM_CONFORMER_RMSD>
0.8

> <PUBCHEM_CONFORMER_DIVERSEORDER>
1
52
36
55
50
23
14
30
51
27
15
49
33
32
11
26
13
53
48
46
2
10
44
3
45
20
4
5
29
47
35
56
7
6
25
39
54
8
9
24
37
22
40
19
17
34
31
21
28
12
42
38
18
41
16
43

> <PUBCHEM_MMFF94_PARTIAL_CHARGES>
31
1 -0.18
10 0.3
13 0.27
14 0.27
15 0.71
16 -0.24
17 0.06
18 0.14
19 0.54
2 -0.18
20 0.09
21 0.18
22 0.18
23 -0.15
24 -0.15
25 -0.15
3 -0.57
35 0.36
36 0.37
37 0.27
38 0.15
39 0.37
4 -0.57
40 0.15
41 0.15
42 0.15
5 -0.9
6 -0.73
7 0.3
8 -0.49
9 -0.71

> <PUBCHEM_EFFECTIVE_ROTOR_COUNT>
7.2

> <PUBCHEM_PHARMACOPHORE_FEATURES>
11
1 3 acceptor
1 4 acceptor
1 5 cation
1 5 donor
1 6 donor
1 7 donor
1 8 donor
1 9 acceptor
5 7 9 16 17 18 rings
6 20 21 22 23 24 25 rings
6 5 10 11 12 13 14 rings

> <PUBCHEM_HEAVY_ATOM_COUNT>
25

> <PUBCHEM_ATOM_DEF_STEREO_COUNT>
0

> <PUBCHEM_ATOM_UDEF_STEREO_COUNT>
0

> <PUBCHEM_BOND_DEF_STEREO_COUNT>
0

> <PUBCHEM_BOND_UDEF_STEREO_COUNT>
0

> <PUBCHEM_ISOTOPIC_ATOM_COUNT>
0

> <PUBCHEM_COMPONENT_COUNT>
1

> <PUBCHEM_CACTVS_TAUTO_COUNT>
11

> <PUBCHEM_CONFORMER_ID>
00AD013100000001

> <PUBCHEM_MMFF94_ENERGY>
43.3866

> <PUBCHEM_FEATURE_SELFOVERLAP>
55.826

> <PUBCHEM_SHAPE_FINGERPRINT>
10319926 262 16660651700120486803
105312 117 18411982498539240590
11370993 144 15575255615517125120
12390115 104 18341338859164012831
12422481 6 17676201347519197564
12596602 18 14201116808256470972
12633257 1 16588314890606785877
12788726 201 16844454817458979193
13583140 156 16805589370011796193
13631057 29 18129368462801661543
13947920 75 15913331247876933721
14790565 3 18336831987003924900
14950920 106 15574979685596927220
15021287 119 17313652850596091900
15183329 4 16486978367046757428
1601671 61 18334574651124912676
17780758 139 13767921300234243621
1813 80 11458704950364870818
18222031 100 8070028861381310904
19377110 9 13768222600658679934
19784866 170 18261115153537949461
20567600 70 9655282731712984556
21033648 29 17387416732214668317
21279426 13 18202010910935978278
21315759 148 15140959517920729352
21756936 100 17131568175785678955
22393880 68 17417795271425911121
2303208 19 13262666016510381768
23198884 109 15841555154633154977
23559900 14 18057035818182826210
2838139 119 18202274801762697544
312425 54 13623799501956227972
314194 84 9655576335745845876
3459 83 17559970831012478078
350125 39 18267586986843766907
38570 142 17988376874878471413
439807 62 12607397815299086813
445580 182 12613023939109681933
4938544 92 13479399531936755471
5104073 3 18261678065338007683
5385378 56 18340211777945881378
5486654 36 9511462268867464095
57724786 102 18194689168237678025
59755656 520 17845670229938879315
633830 44 18201720652144395174
6431902 208 9727639405672157116
6608658 132 17632008642621464385
7226269 152 18059861692442166000
7288768 16 18261118435467749779
9862886 166 12751231523839325612

> <PUBCHEM_SHAPE_MULTIPOLES>
481.58
15.03
2.82
1.79
14.01
2.16
0.06
-11.86
-0.7
-0.46
0.48
-2.1
-0.5
-0.01

> <PUBCHEM_SHAPE_SELFOVERLAP>
1014.43

> <PUBCHEM_SHAPE_VOLUME>
269.8

> <PUBCHEM_COORDINATE_TYPE>
2
5
10

$$$$
