16007391
  -OEChem-10052115113D

 67 70  0     1  0  0  0  0  0999 V2000
    8.4106   -4.4978    1.3376 F   0  0  0  0  0  0  0  0  0  0  0  0
   -5.0514   -0.0035    1.2781 O   0  0  0  0  0  0  0  0  0  0  0  0
  -11.8883   -1.8828    1.5253 O   0  0  0  0  0  0  0  0  0  0  0  0
    7.2214    1.4853   -1.2330 O   0  0  0  0  0  0  0  0  0  0  0  0
   -9.2196   -1.1566   -0.9133 N   0  0  2  0  0  0  0  0  0  0  0  0
    1.1238    0.9192   -0.0756 N   0  0  0  0  0  0  0  0  0  0  0  0
   -1.6235    3.2365    1.9767 N   0  0  0  0  0  0  0  0  0  0  0  0
    3.9431    2.4695   -1.6722 N   0  0  0  0  0  0  0  0  0  0  0  0
    0.6002    2.8764    1.1209 N   0  0  0  0  0  0  0  0  0  0  0  0
    2.7819    2.4896   -0.9959 N   0  0  0  0  0  0  0  0  0  0  0  0
    6.6304   -0.7859   -1.1336 N   0  0  0  0  0  0  0  0  0  0  0  0
   -7.7881   -1.4292   -0.8703 C   0  0  0  0  0  0  0  0  0  0  0  0
   -7.1203   -0.5835    0.2093 C   0  0  0  0  0  0  0  0  0  0  0  0
   -9.9075   -1.8373    0.1853 C   0  0  0  0  0  0  0  0  0  0  0  0
   -9.7849   -1.5697   -2.1991 C   0  0  0  0  0  0  0  0  0  0  0  0
   -5.6188   -0.8306    0.2636 C   0  0  0  0  0  0  0  0  0  0  0  0
  -11.2499   -1.1812    0.4666 C   0  0  0  0  0  0  0  0  0  0  0  0
   -9.1303   -0.8258   -3.3508 C   0  0  0  0  0  0  0  0  0  0  0  0
   -3.7610    0.3933    1.1040 C   0  0  0  0  0  0  0  0  0  0  0  0
   -1.1310    1.2280    0.7619 C   0  0  0  0  0  0  0  0  0  0  0  0
   -2.0189    2.0564    1.4676 C   0  0  0  0  0  0  0  0  0  0  0  0
   -3.3310    1.6169    1.6259 C   0  0  0  0  0  0  0  0  0  0  0  0
   -2.8725   -0.4182    0.4073 C   0  0  0  0  0  0  0  0  0  0  0  0
   -1.5556   -0.0038    0.2341 C   0  0  0  0  0  0  0  0  0  0  0  0
    0.1712    1.7008    0.6242 C   0  0  0  0  0  0  0  0  0  0  0  0
    4.1710    1.1647   -1.8445 C   0  0  0  0  0  0  0  0  0  0  0  0
    2.2732    1.2508   -0.7372 C   0  0  0  0  0  0  0  0  0  0  0  0
    5.3852    0.7205   -2.5653 C   0  0  0  0  0  0  0  0  0  0  0  0
    3.1633    0.3581   -1.2827 C   0  0  0  0  0  0  0  0  0  0  0  0
   -0.3356    3.5821    1.7761 C   0  0  0  0  0  0  0  0  0  0  0  0
    6.5321    0.5280   -1.5757 C   0  0  0  0  0  0  0  0  0  0  0  0
    7.5702   -1.3192   -0.2194 C   0  0  0  0  0  0  0  0  0  0  0  0
    7.5262   -2.6725    0.1159 C   0  0  0  0  0  0  0  0  0  0  0  0
    8.5408   -0.4918    0.3455 C   0  0  0  0  0  0  0  0  0  0  0  0
    8.4529   -3.1983    1.0160 C   0  0  0  0  0  0  0  0  0  0  0  0
    9.4675   -1.0177    1.2457 C   0  0  0  0  0  0  0  0  0  0  0  0
    9.4235   -2.3710    1.5809 C   0  0  0  0  0  0  0  0  0  0  0  0
   -7.5905   -2.4970   -0.7069 H   0  0  0  0  0  0  0  0  0  0  0  0
   -7.2770   -1.1640   -1.7991 H   0  0  0  0  0  0  0  0  0  0  0  0
   -7.5305   -0.7773    1.2062 H   0  0  0  0  0  0  0  0  0  0  0  0
   -7.3000    0.4834    0.0198 H   0  0  0  0  0  0  0  0  0  0  0  0
   -9.3397   -1.7997    1.1216 H   0  0  0  0  0  0  0  0  0  0  0  0
  -10.0388   -2.9094   -0.0163 H   0  0  0  0  0  0  0  0  0  0  0  0
   -9.6864   -2.6508   -2.3600 H   0  0  0  0  0  0  0  0  0  0  0  0
  -10.8532   -1.3337   -2.2378 H   0  0  0  0  0  0  0  0  0  0  0  0
   -5.2016   -0.5968   -0.7246 H   0  0  0  0  0  0  0  0  0  0  0  0
   -5.4183   -1.8807    0.5061 H   0  0  0  0  0  0  0  0  0  0  0  0
  -11.9222   -1.2132   -0.3946 H   0  0  0  0  0  0  0  0  0  0  0  0
  -11.1192   -0.1377    0.7730 H   0  0  0  0  0  0  0  0  0  0  0  0
   -9.7639   -0.9084   -4.2417 H   0  0  0  0  0  0  0  0  0  0  0  0
   -8.1592   -1.2443   -3.6308 H   0  0  0  0  0  0  0  0  0  0  0  0
   -9.0146    0.2422   -3.1366 H   0  0  0  0  0  0  0  0  0  0  0  0
   -4.0420    2.2383    2.1684 H   0  0  0  0  0  0  0  0  0  0  0  0
   -3.1566   -1.3864    0.0067 H   0  0  0  0  0  0  0  0  0  0  0  0
   -0.8967   -0.6628   -0.3232 H   0  0  0  0  0  0  0  0  0  0  0  0
  -12.7357   -1.4366    1.6939 H   0  0  0  0  0  0  0  0  0  0  0  0
    0.9681   -0.0760    0.0669 H   0  0  0  0  0  0  0  0  0  0  0  0
    5.7017    1.4566   -3.3141 H   0  0  0  0  0  0  0  0  0  0  0  0
    5.1931   -0.2114   -3.1097 H   0  0  0  0  0  0  0  0  0  0  0  0
    3.1389   -0.7225   -1.3005 H   0  0  0  0  0  0  0  0  0  0  0  0
    4.4320    3.3216   -1.9300 H   0  0  0  0  0  0  0  0  0  0  0  0
   -0.0234    4.5339    2.1885 H   0  0  0  0  0  0  0  0  0  0  0  0
    5.9586   -1.4572   -1.4990 H   0  0  0  0  0  0  0  0  0  0  0  0
    6.7752   -3.3283   -0.3168 H   0  0  0  0  0  0  0  0  0  0  0  0
    8.6406    0.5634    0.1343 H   0  0  0  0  0  0  0  0  0  0  0  0
   10.2243   -0.3748    1.6859 H   0  0  0  0  0  0  0  0  0  0  0  0
   10.1450   -2.7808    2.2815 H   0  0  0  0  0  0  0  0  0  0  0  0
  1 35  1  0  0  0  0
  2 16  1  0  0  0  0
  2 19  1  0  0  0  0
  3 17  1  0  0  0  0
  3 56  1  0  0  0  0
  4 31  2  0  0  0  0
  5 12  1  0  0  0  0
  5 14  1  0  0  0  0
  5 15  1  0  0  0  0
  6 25  1  0  0  0  0
  6 27  1  0  0  0  0
  6 57  1  0  0  0  0
  7 21  1  0  0  0  0
  7 30  2  0  0  0  0
  8 10  1  0  0  0  0
  8 26  1  0  0  0  0
  8 61  1  0  0  0  0
  9 25  2  0  0  0  0
  9 30  1  0  0  0  0
 10 27  2  0  0  0  0
 11 31  1  0  0  0  0
 11 32  1  0  0  0  0
 11 63  1  0  0  0  0
 12 13  1  0  0  0  0
 12 38  1  0  0  0  0
 12 39  1  0  0  0  0
 13 16  1  0  0  0  0
 13 40  1  0  0  0  0
 13 41  1  0  0  0  0
 14 17  1  0  0  0  0
 14 42  1  0  0  0  0
 14 43  1  0  0  0  0
 15 18  1  0  0  0  0
 15 44  1  0  0  0  0
 15 45  1  0  0  0  0
 16 46  1  0  0  0  0
 16 47  1  0  0  0  0
 17 48  1  0  0  0  0
 17 49  1  0  0  0  0
 18 50  1  0  0  0  0
 18 51  1  0  0  0  0
 18 52  1  0  0  0  0
 19 22  2  0  0  0  0
 19 23  1  0  0  0  0
 20 21  2  0  0  0  0
 20 24  1  0  0  0  0
 20 25  1  0  0  0  0
 21 22  1  0  0  0  0
 22 53  1  0  0  0  0
 23 24  2  0  0  0  0
 23 54  1  0  0  0  0
 24 55  1  0  0  0  0
 26 28  1  0  0  0  0
 26 29  2  0  0  0  0
 27 29  1  0  0  0  0
 28 31  1  0  0  0  0
 28 58  1  0  0  0  0
 28 59  1  0  0  0  0
 29 60  1  0  0  0  0
 30 62  1  0  0  0  0
 32 33  2  0  0  0  0
 32 34  1  0  0  0  0
 33 35  1  0  0  0  0
 33 64  1  0  0  0  0
 34 36  2  0  0  0  0
 34 65  1  0  0  0  0
 35 37  2  0  0  0  0
 36 37  1  0  0  0  0
 36 66  1  0  0  0  0
 37 67  1  0  0  0  0
M  END
> <PUBCHEM_COMPOUND_CID>
16007391

> <PUBCHEM_CONFORMER_RMSD>
1.6

> <PUBCHEM_CONFORMER_DIVERSEORDER>
1
68
12
17
103
77
24
101
65
50
94
91
54
25
69
48
15
60
23
67
38
21
73
104
93
32
44
84
71
64
89
51
61
70
22
31
72
97
66
56
82
83
26
49
33
87
85
62
43
95
45
86
34
90
46
75
74
39
92
55
58
30
19
8
20
99
16
3
42
59
88
102
78
100
47
80
9
11
63
41
57
52
28
53
105
2
96
98
79
5
76
29
40
4
13
35
27
81
36
6
37
7
10
18
14

> <PUBCHEM_MMFF94_PARTIAL_CHARGES>
47
1 -0.19
10 -0.71
11 -0.55
12 0.27
14 0.27
15 0.27
16 0.28
17 0.28
19 0.08
2 -0.36
21 0.31
22 -0.15
23 -0.15
24 -0.15
25 0.41
26 -0.33
27 0.37
28 0.24
29 -0.15
3 -0.68
30 0.47
31 0.57
32 0.12
33 -0.15
34 -0.15
35 0.19
36 -0.15
37 -0.15
4 -0.57
5 -0.81
53 0.15
54 0.15
55 0.15
56 0.4
57 0.4
6 -0.58
60 0.15
61 0.27
62 0.15
63 0.37
64 0.15
65 0.15
66 0.15
67 0.15
7 -0.62
8 0.3
9 -0.62

> <PUBCHEM_EFFECTIVE_ROTOR_COUNT>
14

> <PUBCHEM_PHARMACOPHORE_FEATURES>
15
1 11 donor
1 2 acceptor
1 3 acceptor
1 3 donor
1 4 acceptor
1 5 cation
1 6 donor
1 8 donor
3 6 10 27 cation
3 6 9 25 cation
3 7 9 30 cation
5 8 10 26 27 29 rings
6 19 20 21 22 23 24 rings
6 32 33 34 35 36 37 rings
6 7 9 20 21 25 30 rings

> <PUBCHEM_HEAVY_ATOM_COUNT>
37

> <PUBCHEM_ATOM_DEF_STEREO_COUNT>
0

> <PUBCHEM_ATOM_UDEF_STEREO_COUNT>
0

> <PUBCHEM_BOND_DEF_STEREO_COUNT>
0

> <PUBCHEM_BOND_UDEF_STEREO_COUNT>
0

> <PUBCHEM_ISOTOPIC_ATOM_COUNT>
0

> <PUBCHEM_COMPONENT_COUNT>
1

> <PUBCHEM_CACTVS_TAUTO_COUNT>
22

> <PUBCHEM_CONFORMER_ID>
00F440DF00000001

> <PUBCHEM_MMFF94_ENERGY>
109.8045

> <PUBCHEM_FEATURE_SELFOVERLAP>
76.614

> <PUBCHEM_SHAPE_FINGERPRINT>
10254770 206 18202561791361677294
11409948 41 18040712529313867914
11966995 16 16515684412973896306
12013929 112 14273736231308711730
12120059 9 18339072825870829155
13383668 1 18201992257650541884
14026016 60 17821725023028506778
14040221 8 13984650422647219850
14664723 55 13118004396556138079
15350500 16 18201717362199277269
15392192 104 17275388699551733670
16992610 120 12251904784730602576
16993427 108 18342455920239235240
20156587 128 18187081733838511221
21033648 29 16414639217003207904
21133410 58 17095529522334001690
22002106 203 17560795559417555207
3986486 107 15574711378899782039
3991529 128 8934999295913175455
437795 160 17275106111592988929
474113 269 18260829272462727078
5874358 3 18344144778293495822
6081469 158 17967534597092581613
6201320 221 18187357680623223170
9555976 147 17841439133940341360
9962374 69 17346597534468140021

> <PUBCHEM_SHAPE_MULTIPOLES>
701.69
43.12
3.76
2.37
49.99
0.2
1.46
-51.27
1.69
-5.73
-2.16
1.02
0.27
-6.65

> <PUBCHEM_SHAPE_SELFOVERLAP>
1497.774

> <PUBCHEM_SHAPE_VOLUME>
390

> <PUBCHEM_COORDINATE_TYPE>
2
5
10

$$$$
