17755052
  -OEChem-10052115113D

 62 67  0     0  0  0  0  0  0999 V2000
    7.6043    1.3066   -1.1344 S   0  0  0  0  0  0  0  0  0  0  0  0
    0.5862   -2.3760    0.6428 S   0  0  0  0  0  0  0  0  0  0  0  0
    7.4852    1.2066   -2.5723 O   0  0  0  0  0  0  0  0  0  0  0  0
    8.8521    1.0393   -0.4536 O   0  0  0  0  0  0  0  0  0  0  0  0
   -3.5822   -5.2320   -0.9630 O   0  0  0  0  0  0  0  0  0  0  0  0
    3.9939   -0.5100    0.9501 N   0  0  0  0  0  0  0  0  0  0  0  0
    6.3704    0.3634   -0.4129 N   0  0  0  0  0  0  0  0  0  0  0  0
   -2.4787   -2.7566   -0.2190 N   0  0  0  0  0  0  0  0  0  0  0  0
   -2.9295   -0.4773    0.2602 N   0  0  0  0  0  0  0  0  0  0  0  0
   -1.2237    1.0330    1.0770 N   0  0  0  0  0  0  0  0  0  0  0  0
   -5.4546    3.3514   -1.7032 N   0  0  0  0  0  0  0  0  0  0  0  0
   -4.8922    2.4993   -2.5764 N   0  0  0  0  0  0  0  0  0  0  0  0
    4.1261   -0.6523   -0.5067 C   0  0  0  0  0  0  0  0  0  0  0  0
    5.3109   -0.5924    1.5973 C   0  0  0  0  0  0  0  0  0  0  0  0
    5.0385    0.4319   -1.0785 C   0  0  0  0  0  0  0  0  0  0  0  0
    6.2467    0.4927    1.0668 C   0  0  0  0  0  0  0  0  0  0  0  0
    3.0927   -1.5290    1.4866 C   0  0  0  0  0  0  0  0  0  0  0  0
    1.6550   -1.1745    1.2209 C   0  0  0  0  0  0  0  0  0  0  0  0
   -0.7326   -1.2788    0.5992 C   0  0  0  0  0  0  0  0  0  0  0  0
   -2.0502   -1.4977    0.2143 C   0  0  0  0  0  0  0  0  0  0  0  0
    1.0311    0.0416    1.3812 C   0  0  0  0  0  0  0  0  0  0  0  0
   -0.3498   -0.0075    1.0245 C   0  0  0  0  0  0  0  0  0  0  0  0
    7.0484    2.9199   -0.6486 C   0  0  0  0  0  0  0  0  0  0  0  0
   -3.5745   -2.8177   -1.1961 C   0  0  0  0  0  0  0  0  0  0  0  0
   -2.3764   -3.9129    0.6779 C   0  0  0  0  0  0  0  0  0  0  0  0
   -3.5530   -4.1644   -1.9102 C   0  0  0  0  0  0  0  0  0  0  0  0
   -2.4194   -5.2015   -0.1361 C   0  0  0  0  0  0  0  0  0  0  0  0
   -2.4681    0.7137    0.6842 C   0  0  0  0  0  0  0  0  0  0  0  0
   -3.4329    1.7834    0.7216 C   0  0  0  0  0  0  0  0  0  0  0  0
   -4.0811    2.1774   -0.4607 C   0  0  0  0  0  0  0  0  0  0  0  0
   -3.7485    2.4504    1.9120 C   0  0  0  0  0  0  0  0  0  0  0  0
   -5.0108    3.2103   -0.4161 C   0  0  0  0  0  0  0  0  0  0  0  0
   -4.0573    1.7866   -1.8168 C   0  0  0  0  0  0  0  0  0  0  0  0
   -4.6861    3.4847    1.9284 C   0  0  0  0  0  0  0  0  0  0  0  0
   -5.3399    3.8884    0.7596 C   0  0  0  0  0  0  0  0  0  0  0  0
    4.5287   -1.6413   -0.7646 H   0  0  0  0  0  0  0  0  0  0  0  0
    3.1500   -0.5594   -0.9968 H   0  0  0  0  0  0  0  0  0  0  0  0
    5.7601   -1.5812    1.4345 H   0  0  0  0  0  0  0  0  0  0  0  0
    5.2063   -0.4522    2.6800 H   0  0  0  0  0  0  0  0  0  0  0  0
    4.5835    1.4165   -0.9278 H   0  0  0  0  0  0  0  0  0  0  0  0
    5.1469    0.2588   -2.1541 H   0  0  0  0  0  0  0  0  0  0  0  0
    7.2280    0.3727    1.5371 H   0  0  0  0  0  0  0  0  0  0  0  0
    5.8454    1.4756    1.3357 H   0  0  0  0  0  0  0  0  0  0  0  0
    3.3502   -2.5282    1.1115 H   0  0  0  0  0  0  0  0  0  0  0  0
    3.1913   -1.5765    2.5803 H   0  0  0  0  0  0  0  0  0  0  0  0
    1.5345    0.9307    1.7406 H   0  0  0  0  0  0  0  0  0  0  0  0
    7.1169    3.0358    0.4331 H   0  0  0  0  0  0  0  0  0  0  0  0
    6.0380    3.1023   -1.0136 H   0  0  0  0  0  0  0  0  0  0  0  0
    7.7220    3.6442   -1.1156 H   0  0  0  0  0  0  0  0  0  0  0  0
   -4.5281   -2.6908   -0.6689 H   0  0  0  0  0  0  0  0  0  0  0  0
   -3.4833   -2.0193   -1.9422 H   0  0  0  0  0  0  0  0  0  0  0  0
   -1.4896   -3.9174    1.3124 H   0  0  0  0  0  0  0  0  0  0  0  0
   -3.2417   -3.8882    1.3533 H   0  0  0  0  0  0  0  0  0  0  0  0
   -4.4335   -4.2603   -2.5533 H   0  0  0  0  0  0  0  0  0  0  0  0
   -2.6648   -4.2656   -2.5455 H   0  0  0  0  0  0  0  0  0  0  0  0
   -1.5237   -5.3106   -0.7596 H   0  0  0  0  0  0  0  0  0  0  0  0
   -2.4638   -6.0649    0.5353 H   0  0  0  0  0  0  0  0  0  0  0  0
   -3.2663    2.1675    2.8456 H   0  0  0  0  0  0  0  0  0  0  0  0
   -3.4660    1.0131   -2.2865 H   0  0  0  0  0  0  0  0  0  0  0  0
   -4.9135    3.9857    2.8661 H   0  0  0  0  0  0  0  0  0  0  0  0
   -6.0685    4.6913    0.7706 H   0  0  0  0  0  0  0  0  0  0  0  0
   -6.1397    4.0100   -2.0521 H   0  0  0  0  0  0  0  0  0  0  0  0
  1  3  2  0  0  0  0
  1  4  2  0  0  0  0
  1  7  1  0  0  0  0
  1 23  1  0  0  0  0
  2 18  1  0  0  0  0
  2 19  1  0  0  0  0
  5 26  1  0  0  0  0
  5 27  1  0  0  0  0
  6 13  1  0  0  0  0
  6 14  1  0  0  0  0
  6 17  1  0  0  0  0
  7 15  1  0  0  0  0
  7 16  1  0  0  0  0
  8 20  1  0  0  0  0
  8 24  1  0  0  0  0
  8 25  1  0  0  0  0
  9 20  2  0  0  0  0
  9 28  1  0  0  0  0
 10 22  1  0  0  0  0
 10 28  2  0  0  0  0
 11 12  1  0  0  0  0
 11 32  1  0  0  0  0
 11 62  1  0  0  0  0
 12 33  2  0  0  0  0
 13 15  1  0  0  0  0
 13 36  1  0  0  0  0
 13 37  1  0  0  0  0
 14 16  1  0  0  0  0
 14 38  1  0  0  0  0
 14 39  1  0  0  0  0
 15 40  1  0  0  0  0
 15 41  1  0  0  0  0
 16 42  1  0  0  0  0
 16 43  1  0  0  0  0
 17 18  1  0  0  0  0
 17 44  1  0  0  0  0
 17 45  1  0  0  0  0
 18 21  2  0  0  0  0
 19 20  1  0  0  0  0
 19 22  2  0  0  0  0
 21 22  1  0  0  0  0
 21 46  1  0  0  0  0
 23 47  1  0  0  0  0
 23 48  1  0  0  0  0
 23 49  1  0  0  0  0
 24 26  1  0  0  0  0
 24 50  1  0  0  0  0
 24 51  1  0  0  0  0
 25 27  1  0  0  0  0
 25 52  1  0  0  0  0
 25 53  1  0  0  0  0
 26 54  1  0  0  0  0
 26 55  1  0  0  0  0
 27 56  1  0  0  0  0
 27 57  1  0  0  0  0
 28 29  1  0  0  0  0
 29 30  2  0  0  0  0
 29 31  1  0  0  0  0
 30 32  1  0  0  0  0
 30 33  1  0  0  0  0
 31 34  2  0  0  0  0
 31 58  1  0  0  0  0
 32 35  2  0  0  0  0
 33 59  1  0  0  0  0
 34 35  1  0  0  0  0
 34 60  1  0  0  0  0
 35 61  1  0  0  0  0
M  END
> <PUBCHEM_COMPOUND_CID>
17755052

> <PUBCHEM_CONFORMER_RMSD>
1.2

> <PUBCHEM_CONFORMER_DIVERSEORDER>
1
40
30
31
34
36
23
13
38
14
7
17
27
29
18
37
11
33
10
25
26
32
12
15
3
22
20
6
35
9
24
39
8
16
4
19
28
5
21
2

> <PUBCHEM_MMFF94_PARTIAL_CHARGES>
39
1 1.33
10 -0.57
11 0.3
12 -0.71
13 0.27
14 0.27
15 0.36
16 0.36
17 0.45
18 -0.14
19 0.04
2 -0.08
20 0.41
21 -0.15
22 0.26
23 0.11
24 0.37
25 0.37
26 0.28
27 0.28
28 0.62
3 -0.65
31 -0.15
32 -0.15
33 0.14
34 -0.15
35 -0.15
4 -0.65
46 0.15
5 -0.56
58 0.15
59 0.15
6 -0.81
60 0.15
61 0.15
62 0.27
7 -0.85
8 -0.84
9 -0.62

> <PUBCHEM_EFFECTIVE_ROTOR_COUNT>
7.4

> <PUBCHEM_PHARMACOPHORE_FEATURES>
14
1 11 donor
1 12 acceptor
1 3 acceptor
1 4 acceptor
1 5 acceptor
1 6 cation
3 8 9 20 cation
3 9 10 28 cation
5 11 12 30 32 33 rings
5 2 18 19 21 22 rings
6 29 30 31 32 34 35 rings
6 5 8 24 25 26 27 rings
6 6 7 13 14 15 16 rings
6 9 10 19 20 22 28 rings

> <PUBCHEM_HEAVY_ATOM_COUNT>
35

> <PUBCHEM_ATOM_DEF_STEREO_COUNT>
0

> <PUBCHEM_ATOM_UDEF_STEREO_COUNT>
0

> <PUBCHEM_BOND_DEF_STEREO_COUNT>
0

> <PUBCHEM_BOND_UDEF_STEREO_COUNT>
0

> <PUBCHEM_ISOTOPIC_ATOM_COUNT>
0

> <PUBCHEM_COMPONENT_COUNT>
1

> <PUBCHEM_CACTVS_TAUTO_COUNT>
5

> <PUBCHEM_CONFORMER_ID>
010EEBAC00000001

> <PUBCHEM_MMFF94_ENERGY>
86.4665

> <PUBCHEM_FEATURE_SELFOVERLAP>
71.356

> <PUBCHEM_SHAPE_FINGERPRINT>
10290309 65 18272098145134414011
10369192 42 18265627494199578233
10554248 39 18266451006653974710
11200772 71 18335695070189255455
11991303 11 18337104575746073487
12422481 6 16805609114319607716
12788726 201 18266996484918638123
13540713 4 17702083962911359024
13540713 5 18188756285136248378
13690498 29 18128818731913532166
13757389 114 18341900675362249041
13782708 43 17417545713200964654
13911987 19 18266448812058068425
14202776 33 18334018332310839635
14294032 229 18412553115331136339
14556957 393 18190465059148708270
14790565 3 18055068753584024561
15064981 194 18341613741587840905
15198563 99 18198613518764239271
15448158 71 17749965383682860220
15513586 35 17824280390608706257
15705408 1 16831776155379141079
1577012 14 18114181944069052936
15950262 2 16157617335928033981
16114785 44 18260842513631221235
16992828 155 17967807215457007293
19427546 20 18410854403666804202
21120745 212 18266742574687916483
21772528 278 18271808965534149437
23929065 36 18054761091727831154
249057 25 17968923302339023994
25269216 80 17489577953730530853
255183 451 17551224503756126271
2748736 6 18335416816823496032
397830 11 16878523231899564336
4258327 124 18187078447444893533
44249763 50 18409439311249447744
474113 269 8934703463024799257
504843 32 18335421227997229563
5219985 13 18194682566814954305
563151 97 18187078477700010474
6034566 193 18335420111078476171
6036956 94 18409442617916011982
6058803 2 18188750800384195490
6673363 416 17834687367941403436
6703917 75 18272379625185969521
6898599 12 18411417323697638790

> <PUBCHEM_SHAPE_MULTIPOLES>
675.51
19.64
6.4
2.04
46.53
6.36
0.7
-19.9
8.41
-14.82
1.61
-0.49
-0.93
-3.19

> <PUBCHEM_SHAPE_SELFOVERLAP>
1454.72

> <PUBCHEM_SHAPE_VOLUME>
376.5

> <PUBCHEM_COORDINATE_TYPE>
2
5
10

$$$$
