25243800
  -OEChem-10052115113D

 39 42  0     0  0  0  0  0  0999 V2000
    6.4654    1.0381    0.0462 O   0  0  0  0  0  0  0  0  0  0  0  0
   -2.8216    1.1461   -0.3178 N   0  0  0  0  0  0  0  0  0  0  0  0
   -1.5022    1.4411   -0.2051 N   0  0  0  0  0  0  0  0  0  0  0  0
   -4.0672   -1.0016   -0.1451 N   0  0  0  0  0  0  0  0  0  0  0  0
    1.3360   -0.9612   -0.0081 N   0  0  0  0  0  0  0  0  0  0  0  0
   -2.6367   -2.9597    0.0661 N   0  0  0  0  0  0  0  0  0  0  0  0
   -0.2786   -2.7717    0.1373 N   0  0  0  0  0  0  0  0  0  0  0  0
   -3.8721    2.0364    0.0989 C   0  0  0  0  0  0  0  0  0  0  0  0
   -0.7032    0.3192   -0.1206 C   0  0  0  0  0  0  0  0  0  0  0  0
   -1.6544   -0.8059   -0.0959 C   0  0  0  0  0  0  0  0  0  0  0  0
   -2.9500   -0.2611   -0.1911 C   0  0  0  0  0  0  0  0  0  0  0  0
    0.6277    0.2210   -0.0798 C   0  0  0  0  0  0  0  0  0  0  0  0
   -3.8561    3.2787   -0.7820 C   0  0  0  0  0  0  0  0  0  0  0  0
   -3.6825    2.3948    1.5672 C   0  0  0  0  0  0  0  0  0  0  0  0
   -1.5458   -2.1650    0.0305 C   0  0  0  0  0  0  0  0  0  0  0  0
    1.5527    1.3309   -0.1031 C   0  0  0  0  0  0  0  0  0  0  0  0
    2.7995    0.8673   -0.0478 C   0  0  0  0  0  0  0  0  0  0  0  0
    2.5797   -0.5887    0.0101 C   0  0  0  0  0  0  0  0  0  0  0  0
   -3.8351   -2.3273   -0.0213 C   0  0  0  0  0  0  0  0  0  0  0  0
    4.1050    1.4392   -0.0368 C   0  0  0  0  0  0  0  0  0  0  0  0
    3.7885   -1.4385    0.0810 C   0  0  0  0  0  0  0  0  0  0  0  0
    5.1594    0.6065    0.0290 C   0  0  0  0  0  0  0  0  0  0  0  0
    4.9915   -0.8384    0.0880 C   0  0  0  0  0  0  0  0  0  0  0  0
   -4.8518    1.5586   -0.0265 H   0  0  0  0  0  0  0  0  0  0  0  0
   -1.1263    2.3683   -0.3490 H   0  0  0  0  0  0  0  0  0  0  0  0
   -2.9256    3.8471   -0.6750 H   0  0  0  0  0  0  0  0  0  0  0  0
   -3.9603    3.0093   -1.8390 H   0  0  0  0  0  0  0  0  0  0  0  0
   -4.6845    3.9463   -0.5220 H   0  0  0  0  0  0  0  0  0  0  0  0
   -2.7411    2.9273    1.7432 H   0  0  0  0  0  0  0  0  0  0  0  0
   -3.6797    1.4980    2.1966 H   0  0  0  0  0  0  0  0  0  0  0  0
   -4.4970    3.0409    1.9123 H   0  0  0  0  0  0  0  0  0  0  0  0
    1.2705    2.3711   -0.1564 H   0  0  0  0  0  0  0  0  0  0  0  0
   -4.7112   -2.9646    0.0132 H   0  0  0  0  0  0  0  0  0  0  0  0
    4.2208    2.5156   -0.0810 H   0  0  0  0  0  0  0  0  0  0  0  0
    3.6751   -2.5141    0.1251 H   0  0  0  0  0  0  0  0  0  0  0  0
    0.4425   -2.4416   -0.4907 H   0  0  0  0  0  0  0  0  0  0  0  0
   -0.2903   -3.7742    0.2894 H   0  0  0  0  0  0  0  0  0  0  0  0
    5.8901   -1.4461    0.1397 H   0  0  0  0  0  0  0  0  0  0  0  0
    6.4613    2.0100    0.0034 H   0  0  0  0  0  0  0  0  0  0  0  0
  1 22  1  0  0  0  0
  1 39  1  0  0  0  0
  2  3  1  0  0  0  0
  2  8  1  0  0  0  0
  2 11  1  0  0  0  0
  3  9  1  0  0  0  0
  3 25  1  0  0  0  0
  4 11  2  0  0  0  0
  4 19  1  0  0  0  0
  5 12  1  0  0  0  0
  5 18  2  0  0  0  0
  6 15  1  0  0  0  0
  6 19  2  0  0  0  0
  7 15  1  0  0  0  0
  7 36  1  0  0  0  0
  7 37  1  0  0  0  0
  8 13  1  0  0  0  0
  8 14  1  0  0  0  0
  8 24  1  0  0  0  0
  9 10  1  0  0  0  0
  9 12  2  0  0  0  0
 10 11  1  0  0  0  0
 10 15  2  0  0  0  0
 12 16  1  0  0  0  0
 13 26  1  0  0  0  0
 13 27  1  0  0  0  0
 13 28  1  0  0  0  0
 14 29  1  0  0  0  0
 14 30  1  0  0  0  0
 14 31  1  0  0  0  0
 16 17  2  0  0  0  0
 16 32  1  0  0  0  0
 17 18  1  0  0  0  0
 17 20  1  0  0  0  0
 18 21  1  0  0  0  0
 19 33  1  0  0  0  0
 20 22  2  0  0  0  0
 20 34  1  0  0  0  0
 21 23  2  0  0  0  0
 21 35  1  0  0  0  0
 22 23  1  0  0  0  0
 23 38  1  0  0  0  0
M  END
> <PUBCHEM_COMPOUND_CID>
25243800

> <PUBCHEM_CONFORMER_RMSD>
0.6

> <PUBCHEM_CONFORMER_DIVERSEORDER>
1
2

> <PUBCHEM_MMFF94_PARTIAL_CHARGES>
30
1 -0.53
10 0.03
11 0.41
12 0.17
15 0.41
16 -0.15
17 0.01
18 0.42
19 0.47
2 -0.47
20 -0.15
21 -0.14
22 0.08
23 -0.15
25 0.4
3 -0.5
32 0.15
33 0.15
34 0.15
35 0.15
36 0.4
37 0.4
38 0.15
39 0.45
4 -0.62
5 -0.62
6 -0.62
7 -0.9
8 0.37
9 0.07

> <PUBCHEM_EFFECTIVE_ROTOR_COUNT>
1.4

> <PUBCHEM_PHARMACOPHORE_FEATURES>
12
1 1 donor
1 3 donor
1 5 acceptor
1 7 cation
1 7 donor
3 2 4 11 cation
3 4 6 19 cation
3 8 13 14 hydrophobe
5 2 3 9 10 11 rings
5 5 12 16 17 18 rings
6 17 18 20 21 22 23 rings
6 4 6 10 11 15 19 rings

> <PUBCHEM_HEAVY_ATOM_COUNT>
23

> <PUBCHEM_ATOM_DEF_STEREO_COUNT>
0

> <PUBCHEM_ATOM_UDEF_STEREO_COUNT>
0

> <PUBCHEM_BOND_DEF_STEREO_COUNT>
1

> <PUBCHEM_BOND_UDEF_STEREO_COUNT>
0

> <PUBCHEM_ISOTOPIC_ATOM_COUNT>
0

> <PUBCHEM_COMPONENT_COUNT>
1

> <PUBCHEM_CACTVS_TAUTO_COUNT>
67

> <PUBCHEM_CONFORMER_ID>
0181309800000001

> <PUBCHEM_MMFF94_ENERGY>
95.6072

> <PUBCHEM_FEATURE_SELFOVERLAP>
61.243

> <PUBCHEM_SHAPE_FINGERPRINT>
10319926 262 18340750595464361186
10411042 1 17905609157398213323
10493431 412 18340495448310471081
10595046 47 18262518221181039764
10616163 171 18411420648044939766
1100329 8 17903351515880295306
11315181 36 18187925136054794924
11405975 8 18411135801813768394
12107183 9 18046899377957972034
12236239 1 17676480687886611846
12390115 104 18270977755743679097
12403259 226 18126841827386652545
12403259 415 18060133293331137648
12500047 106 18412258424228274496
12633257 1 18263917740263641874
13073987 5 18408037421096887618
13140716 1 18121225273227020835
13167823 11 18335699464352151930
13544592 145 18198071270294494374
13583140 156 17917984014612531596
138480 1 16824741467178276991
14508225 48 18195512908942890557
14790565 3 17979641125947163257
15042514 8 18193842772013152179
15196674 1 18410292497865072414
16087824 20 18410853279846628631
17844677 252 18340211894490480608
1813 80 16950284001337885534
19591789 44 17259068389628680814
20510252 161 18342459270461009801
21033648 29 17417797470723279096
21065198 57 18411417315360879260
21236236 1 18412825789650448375
21267235 1 18336271257321683630
21279426 13 18270123405687425838
22224240 67 18269004098935554737
23402539 116 18341044233277017111
23557571 272 18272658973636955628
23558518 356 18260835924897888275
23559900 14 18268420407582526304
283562 15 18410289238248924835
335352 9 18266176120109734198
350125 39 18411140255621215457
3545911 37 18413109442033594976
4073 2 18259989301709301234
4214541 1 18410573989731443468
5104073 3 18410570678680742338
559249 180 18337386042227639218
6327066 14 18116706327618692325
77779 3 18410573998574390796
9709674 26 18341899588714573822

> <PUBCHEM_SHAPE_MULTIPOLES>
437.57
11.38
3.26
0.75
12.25
0.42
-0.15
-3.92
-0.42
-4.69
-0.04
-0.55
-0.37
-0.2

> <PUBCHEM_SHAPE_SELFOVERLAP>
979.537

> <PUBCHEM_SHAPE_VOLUME>
230.6

> <PUBCHEM_COORDINATE_TYPE>
2
5
10

$$$$
