3038522
  -OEChem-10052115113D

 83 87  0     0  0  0  0  0  0999 V2000
   -6.0676    1.6601    0.5152 O   0  0  0  0  0  0  0  0  0  0  0  0
    4.3571    1.3796    2.1741 O   0  0  0  0  0  0  0  0  0  0  0  0
   -4.0974    1.0459    2.3760 O   0  0  0  0  0  0  0  0  0  0  0  0
    9.8344   -1.1541   -0.2877 O   0  0  0  0  0  0  0  0  0  0  0  0
   -7.3925   -1.5281    0.1471 N   0  0  0  0  0  0  0  0  0  0  0  0
    0.2269    0.9729   -0.2738 N   0  0  0  0  0  0  0  0  0  0  0  0
    2.4408    0.3767    1.3658 N   0  0  0  0  0  0  0  0  0  0  0  0
   -0.4631    1.4757   -2.4505 N   0  0  0  0  0  0  0  0  0  0  0  0
    4.5067   -0.7558    1.2801 N   0  0  0  0  0  0  0  0  0  0  0  0
   -2.7898    1.8759   -2.9330 N   0  0  0  0  0  0  0  0  0  0  0  0
   -6.5380   -2.4621    0.8937 C   0  0  0  0  0  0  0  0  0  0  0  0
   -8.4822   -2.2370   -0.5383 C   0  0  0  0  0  0  0  0  0  0  0  0
   -5.9268   -3.5127   -0.0346 C   0  0  0  0  0  0  0  0  0  0  0  0
   -7.9344   -3.2803   -1.5135 C   0  0  0  0  0  0  0  0  0  0  0  0
   -7.0043   -4.2620   -0.8102 C   0  0  0  0  0  0  0  0  0  0  0  0
   -7.9313   -0.5026    1.0401 C   0  0  0  0  0  0  0  0  0  0  0  0
   -8.2752    0.7576    0.2525 C   0  0  0  0  0  0  0  0  0  0  0  0
    1.0187   -0.2424   -0.5339 C   0  0  0  0  0  0  0  0  0  0  0  0
    0.9178    2.0609    0.4348 C   0  0  0  0  0  0  0  0  0  0  0  0
    1.6848   -0.7209    0.7537 C   0  0  0  0  0  0  0  0  0  0  0  0
    1.6083    1.5323    1.6928 C   0  0  0  0  0  0  0  0  0  0  0  0
   -7.0532    1.3228   -0.4588 C   0  0  0  0  0  0  0  0  0  0  0  0
   -0.8091    1.2788   -1.1642 C   0  0  0  0  0  0  0  0  0  0  0  0
   -2.1150    1.3628   -0.6894 C   0  0  0  0  0  0  0  0  0  0  0  0
    3.8197    0.3980    1.6549 C   0  0  0  0  0  0  0  0  0  0  0  0
   -3.1007    1.6733   -1.6405 C   0  0  0  0  0  0  0  0  0  0  0  0
   -4.7628    1.5585    0.1364 C   0  0  0  0  0  0  0  0  0  0  0  0
   -2.4518    1.1528    0.6593 C   0  0  0  0  0  0  0  0  0  0  0  0
   -4.4198    1.7660   -1.2029 C   0  0  0  0  0  0  0  0  0  0  0  0
   -3.7780    1.2517    1.0688 C   0  0  0  0  0  0  0  0  0  0  0  0
   -1.4881    1.7666   -3.2676 C   0  0  0  0  0  0  0  0  0  0  0  0
    5.8632   -0.8577    0.8825 C   0  0  0  0  0  0  0  0  0  0  0  0
    6.6821    0.2714    0.9015 C   0  0  0  0  0  0  0  0  0  0  0  0
    6.3792   -2.0865    0.4708 C   0  0  0  0  0  0  0  0  0  0  0  0
   -3.0255    0.7359    3.2650 C   0  0  0  0  0  0  0  0  0  0  0  0
    8.0168    0.1716    0.5090 C   0  0  0  0  0  0  0  0  0  0  0  0
    7.7138   -2.1863    0.0782 C   0  0  0  0  0  0  0  0  0  0  0  0
    8.5326   -1.0572    0.0974 C   0  0  0  0  0  0  0  0  0  0  0  0
   10.2457   -0.3528   -1.3943 C   0  0  0  0  0  0  0  0  0  0  0  0
   11.3318    0.6098   -0.9390 C   0  0  0  0  0  0  0  0  0  0  0  0
   10.7260   -1.2591   -2.5177 C   0  0  0  0  0  0  0  0  0  0  0  0
   -7.1063   -2.9584    1.6913 H   0  0  0  0  0  0  0  0  0  0  0  0
   -5.7146   -1.9155    1.3698 H   0  0  0  0  0  0  0  0  0  0  0  0
   -9.0969   -1.5388   -1.1165 H   0  0  0  0  0  0  0  0  0  0  0  0
   -9.1448   -2.7300    0.1855 H   0  0  0  0  0  0  0  0  0  0  0  0
   -5.3314   -4.2225    0.5507 H   0  0  0  0  0  0  0  0  0  0  0  0
   -5.2412   -3.0251   -0.7396 H   0  0  0  0  0  0  0  0  0  0  0  0
   -7.3903   -2.7766   -2.3227 H   0  0  0  0  0  0  0  0  0  0  0  0
   -8.7641   -3.8257   -1.9773 H   0  0  0  0  0  0  0  0  0  0  0  0
   -6.5428   -4.9338   -1.5422 H   0  0  0  0  0  0  0  0  0  0  0  0
   -7.5849   -4.8862   -0.1200 H   0  0  0  0  0  0  0  0  0  0  0  0
   -8.8125   -0.8621    1.5870 H   0  0  0  0  0  0  0  0  0  0  0  0
   -7.1945   -0.2319    1.8077 H   0  0  0  0  0  0  0  0  0  0  0  0
   -9.0770    0.5763   -0.4707 H   0  0  0  0  0  0  0  0  0  0  0  0
   -8.6517    1.5045    0.9626 H   0  0  0  0  0  0  0  0  0  0  0  0
    1.7785   -0.0231   -1.2944 H   0  0  0  0  0  0  0  0  0  0  0  0
    0.3764   -1.0434   -0.9195 H   0  0  0  0  0  0  0  0  0  0  0  0
    0.2117    2.8492    0.7214 H   0  0  0  0  0  0  0  0  0  0  0  0
    1.6584    2.5091   -0.2392 H   0  0  0  0  0  0  0  0  0  0  0  0
    0.9284   -1.0388    1.4817 H   0  0  0  0  0  0  0  0  0  0  0  0
    2.2985   -1.5912    0.5243 H   0  0  0  0  0  0  0  0  0  0  0  0
    2.1962    2.3306    2.1556 H   0  0  0  0  0  0  0  0  0  0  0  0
    0.8647    1.2023    2.4284 H   0  0  0  0  0  0  0  0  0  0  0  0
   -7.3412    2.2365   -0.9919 H   0  0  0  0  0  0  0  0  0  0  0  0
   -6.6940    0.5900   -1.1918 H   0  0  0  0  0  0  0  0  0  0  0  0
   -1.6546    0.9088    1.3516 H   0  0  0  0  0  0  0  0  0  0  0  0
   -5.1700    2.0416   -1.9412 H   0  0  0  0  0  0  0  0  0  0  0  0
    3.9958   -1.6302    1.2409 H   0  0  0  0  0  0  0  0  0  0  0  0
   -1.2442    1.9309   -4.3101 H   0  0  0  0  0  0  0  0  0  0  0  0
    6.3425    1.2576    1.1895 H   0  0  0  0  0  0  0  0  0  0  0  0
    5.7518   -2.9739    0.4505 H   0  0  0  0  0  0  0  0  0  0  0  0
   -2.5464   -0.2140    3.0040 H   0  0  0  0  0  0  0  0  0  0  0  0
   -2.3082    1.5606    3.3368 H   0  0  0  0  0  0  0  0  0  0  0  0
   -3.4613    0.6074    4.2613 H   0  0  0  0  0  0  0  0  0  0  0  0
    8.6416    1.0598    0.5345 H   0  0  0  0  0  0  0  0  0  0  0  0
    8.1101   -3.1458   -0.2427 H   0  0  0  0  0  0  0  0  0  0  0  0
    9.4082    0.2380   -1.7900 H   0  0  0  0  0  0  0  0  0  0  0  0
   10.9678    1.2580   -0.1355 H   0  0  0  0  0  0  0  0  0  0  0  0
   11.6756    1.2406   -1.7645 H   0  0  0  0  0  0  0  0  0  0  0  0
   12.1916    0.0638   -0.5351 H   0  0  0  0  0  0  0  0  0  0  0  0
   11.0520   -0.6795   -3.3867 H   0  0  0  0  0  0  0  0  0  0  0  0
    9.9249   -1.9372   -2.8307 H   0  0  0  0  0  0  0  0  0  0  0  0
   11.5580   -1.8885   -2.1833 H   0  0  0  0  0  0  0  0  0  0  0  0
  1 22  1  0  0  0  0
  1 27  1  0  0  0  0
  2 25  2  0  0  0  0
  3 30  1  0  0  0  0
  3 35  1  0  0  0  0
  4 38  1  0  0  0  0
  4 39  1  0  0  0  0
  5 11  1  0  0  0  0
  5 12  1  0  0  0  0
  5 16  1  0  0  0  0
  6 18  1  0  0  0  0
  6 19  1  0  0  0  0
  6 23  1  0  0  0  0
  7 20  1  0  0  0  0
  7 21  1  0  0  0  0
  7 25  1  0  0  0  0
  8 23  2  0  0  0  0
  8 31  1  0  0  0  0
  9 25  1  0  0  0  0
  9 32  1  0  0  0  0
  9 68  1  0  0  0  0
 10 26  1  0  0  0  0
 10 31  2  0  0  0  0
 11 13  1  0  0  0  0
 11 42  1  0  0  0  0
 11 43  1  0  0  0  0
 12 14  1  0  0  0  0
 12 44  1  0  0  0  0
 12 45  1  0  0  0  0
 13 15  1  0  0  0  0
 13 46  1  0  0  0  0
 13 47  1  0  0  0  0
 14 15  1  0  0  0  0
 14 48  1  0  0  0  0
 14 49  1  0  0  0  0
 15 50  1  0  0  0  0
 15 51  1  0  0  0  0
 16 17  1  0  0  0  0
 16 52  1  0  0  0  0
 16 53  1  0  0  0  0
 17 22  1  0  0  0  0
 17 54  1  0  0  0  0
 17 55  1  0  0  0  0
 18 20  1  0  0  0  0
 18 56  1  0  0  0  0
 18 57  1  0  0  0  0
 19 21  1  0  0  0  0
 19 58  1  0  0  0  0
 19 59  1  0  0  0  0
 20 60  1  0  0  0  0
 20 61  1  0  0  0  0
 21 62  1  0  0  0  0
 21 63  1  0  0  0  0
 22 64  1  0  0  0  0
 22 65  1  0  0  0  0
 23 24  1  0  0  0  0
 24 26  1  0  0  0  0
 24 28  2  0  0  0  0
 26 29  2  0  0  0  0
 27 29  1  0  0  0  0
 27 30  2  0  0  0  0
 28 30  1  0  0  0  0
 28 66  1  0  0  0  0
 29 67  1  0  0  0  0
 31 69  1  0  0  0  0
 32 33  2  0  0  0  0
 32 34  1  0  0  0  0
 33 36  1  0  0  0  0
 33 70  1  0  0  0  0
 34 37  2  0  0  0  0
 34 71  1  0  0  0  0
 35 72  1  0  0  0  0
 35 73  1  0  0  0  0
 35 74  1  0  0  0  0
 36 38  2  0  0  0  0
 36 75  1  0  0  0  0
 37 38  1  0  0  0  0
 37 76  1  0  0  0  0
 39 40  1  0  0  0  0
 39 41  1  0  0  0  0
 39 77  1  0  0  0  0
 40 78  1  0  0  0  0
 40 79  1  0  0  0  0
 40 80  1  0  0  0  0
 41 81  1  0  0  0  0
 41 82  1  0  0  0  0
 41 83  1  0  0  0  0
M  END
> <PUBCHEM_COMPOUND_CID>
3038522

> <PUBCHEM_CONFORMER_RMSD>
1.4

> <PUBCHEM_CONFORMER_DIVERSEORDER>
8
12
19
21
23
9
22
13
14
5
17
18
7
24
1
16
4
11
6
3
20
2
10
15

> <PUBCHEM_MMFF94_PARTIAL_CHARGES>
42
1 -0.36
10 -0.62
11 0.27
12 0.27
16 0.27
18 0.37
19 0.37
2 -0.57
20 0.3
21 0.3
22 0.28
23 0.41
25 0.69
26 0.31
27 0.08
28 -0.15
29 -0.15
3 -0.36
30 0.08
31 0.47
32 0.12
33 -0.15
34 -0.15
35 0.28
36 -0.15
37 -0.15
38 0.08
39 0.28
4 -0.36
5 -0.81
6 -0.84
66 0.15
67 0.15
68 0.37
69 0.15
7 -0.66
70 0.15
71 0.15
75 0.15
76 0.15
8 -0.62
9 -0.55

> <PUBCHEM_EFFECTIVE_ROTOR_COUNT>
14.4

> <PUBCHEM_PHARMACOPHORE_FEATURES>
14
1 1 acceptor
1 2 acceptor
1 3 acceptor
1 4 acceptor
1 5 cation
1 9 donor
3 39 40 41 hydrophobe
3 6 8 23 cation
3 8 10 31 cation
6 24 26 27 28 29 30 rings
6 32 33 34 36 37 38 rings
6 5 11 12 13 14 15 rings
6 6 7 18 19 20 21 rings
6 8 10 23 24 26 31 rings

> <PUBCHEM_HEAVY_ATOM_COUNT>
41

> <PUBCHEM_ATOM_DEF_STEREO_COUNT>
0

> <PUBCHEM_ATOM_UDEF_STEREO_COUNT>
0

> <PUBCHEM_BOND_DEF_STEREO_COUNT>
0

> <PUBCHEM_BOND_UDEF_STEREO_COUNT>
0

> <PUBCHEM_ISOTOPIC_ATOM_COUNT>
0

> <PUBCHEM_COMPONENT_COUNT>
1

> <PUBCHEM_CACTVS_TAUTO_COUNT>
2

> <PUBCHEM_CONFORMER_ID>
002E5D3A00000008

> <PUBCHEM_MMFF94_ENERGY>
142.2452

> <PUBCHEM_FEATURE_SELFOVERLAP>
71.228

> <PUBCHEM_SHAPE_FINGERPRINT>
10372059 70 9511471008583027678
11135609 99 18343299306119304911
11456790 92 13183016349726295202
11621639 183 17058945355773386889
12013929 2 17988918926307748353
13347071 3 18337948017345635643
13383668 251 18262785389195316224
13947947 19 16950574289028532339
14415361 349 17894911819281116011
14856354 85 18343584014689820892
15183329 4 17131538450633572688
15776043 110 16845289402571237674
16989713 51 18113887261566948815
16993089 31 18272370845650610174
17324776 126 17268326738136391271
17686467 74 17168150043816642908
19611394 137 17774718762342255561
20105231 36 17918273139327118390
21223535 225 9295290547621346875
21781055 127 13326581808359272008
21867018 265 18333732433386088195
23389318 12 16805319998717227394
397638 5 8502653710585064590
4339292 15 17967802848028816938
45377200 153 18410573998369553026
4625314 4 18335695053563579485
4756326 101 11963392964510976526
5028188 123 18407759235796093836
5381727 24 13254503267914002157
6058803 2 15144023744889776424
9962374 69 17967252018552180700

> <PUBCHEM_SHAPE_MULTIPOLES>
790.4
37.22
3.36
2.51
73.08
3.66
0.68
26.49
9.26
-8.88
1.08
0.05
-1.36
0.19

> <PUBCHEM_SHAPE_SELFOVERLAP>
1674.492

> <PUBCHEM_SHAPE_VOLUME>
439.3

> <PUBCHEM_COORDINATE_TYPE>
2
5
10

$$$$
