4908365
  -OEChem-10052115113D

 35 37  0     0  0  0  0  0  0999 V2000
   -6.3063    0.3868    0.7346 Cl  0  0  0  0  0  0  0  0  0  0  0  0
    1.3554   -2.5981    0.0186 O   0  0  0  0  0  0  0  0  0  0  0  0
    2.1566   -0.4483   -0.2907 N   0  0  0  0  0  0  0  0  0  0  0  0
    4.5674    1.0566    0.0863 N   0  0  0  0  0  0  0  0  0  0  0  0
   -0.6593    0.2145   -0.7526 N   0  0  0  0  0  0  0  0  0  0  0  0
    3.3943   -0.8381   -0.9659 C   0  0  0  0  0  0  0  0  0  0  0  0
    2.0934    0.9672    0.0940 C   0  0  0  0  0  0  0  0  0  0  0  0
    4.6235   -0.3883   -0.1782 C   0  0  0  0  0  0  0  0  0  0  0  0
    3.3561    1.3915    0.8482 C   0  0  0  0  0  0  0  0  0  0  0  0
    1.1297   -1.3934   -0.1104 C   0  0  0  0  0  0  0  0  0  0  0  0
    5.7635    1.4938    0.8050 C   0  0  0  0  0  0  0  0  0  0  0  0
   -0.2420   -0.8971   -0.0766 C   0  0  0  0  0  0  0  0  0  0  0  0
   -1.3164   -1.4172    0.6013 C   0  0  0  0  0  0  0  0  0  0  0  0
   -2.4392   -0.5869    0.3275 C   0  0  0  0  0  0  0  0  0  0  0  0
   -1.9999    0.4290   -0.5240 C   0  0  0  0  0  0  0  0  0  0  0  0
   -3.7913   -0.6023    0.7237 C   0  0  0  0  0  0  0  0  0  0  0  0
   -2.8485    1.4342   -1.0011 C   0  0  0  0  0  0  0  0  0  0  0  0
   -4.6517    0.3972    0.2547 C   0  0  0  0  0  0  0  0  0  0  0  0
   -4.1854    1.3987   -0.5945 C   0  0  0  0  0  0  0  0  0  0  0  0
    3.3811   -0.3678   -1.9570 H   0  0  0  0  0  0  0  0  0  0  0  0
    3.4210   -1.9216   -1.1223 H   0  0  0  0  0  0  0  0  0  0  0  0
    1.2299    1.1532    0.7387 H   0  0  0  0  0  0  0  0  0  0  0  0
    1.9822    1.5563   -0.8239 H   0  0  0  0  0  0  0  0  0  0  0  0
    4.6843   -0.9520    0.7623 H   0  0  0  0  0  0  0  0  0  0  0  0
    5.5177   -0.6279   -0.7658 H   0  0  0  0  0  0  0  0  0  0  0  0
    3.3076    2.4733    1.0209 H   0  0  0  0  0  0  0  0  0  0  0  0
    3.3741    0.9019    1.8314 H   0  0  0  0  0  0  0  0  0  0  0  0
    5.7409    2.5775    0.9653 H   0  0  0  0  0  0  0  0  0  0  0  0
    6.6637    1.2826    0.2172 H   0  0  0  0  0  0  0  0  0  0  0  0
    5.8649    1.0029    1.7798 H   0  0  0  0  0  0  0  0  0  0  0  0
   -1.3047   -2.2982    1.2291 H   0  0  0  0  0  0  0  0  0  0  0  0
   -0.0876    0.7827   -1.3617 H   0  0  0  0  0  0  0  0  0  0  0  0
   -4.1538   -1.3840    1.3861 H   0  0  0  0  0  0  0  0  0  0  0  0
   -2.4862    2.2144   -1.6621 H   0  0  0  0  0  0  0  0  0  0  0  0
   -4.8595    2.1726   -0.9555 H   0  0  0  0  0  0  0  0  0  0  0  0
  1 18  1  0  0  0  0
  2 10  2  0  0  0  0
  3  6  1  0  0  0  0
  3  7  1  0  0  0  0
  3 10  1  0  0  0  0
  4  8  1  0  0  0  0
  4  9  1  0  0  0  0
  4 11  1  0  0  0  0
  5 12  1  0  0  0  0
  5 15  1  0  0  0  0
  5 32  1  0  0  0  0
  6  8  1  0  0  0  0
  6 20  1  0  0  0  0
  6 21  1  0  0  0  0
  7  9  1  0  0  0  0
  7 22  1  0  0  0  0
  7 23  1  0  0  0  0
  8 24  1  0  0  0  0
  8 25  1  0  0  0  0
  9 26  1  0  0  0  0
  9 27  1  0  0  0  0
 10 12  1  0  0  0  0
 11 28  1  0  0  0  0
 11 29  1  0  0  0  0
 11 30  1  0  0  0  0
 12 13  2  0  0  0  0
 13 14  1  0  0  0  0
 13 31  1  0  0  0  0
 14 15  2  0  0  0  0
 14 16  1  0  0  0  0
 15 17  1  0  0  0  0
 16 18  2  0  0  0  0
 16 33  1  0  0  0  0
 17 19  2  0  0  0  0
 17 34  1  0  0  0  0
 18 19  1  0  0  0  0
 19 35  1  0  0  0  0
M  END
> <PUBCHEM_COMPOUND_CID>
4908365

> <PUBCHEM_CONFORMER_RMSD>
0.6

> <PUBCHEM_CONFORMER_DIVERSEORDER>
1
12
6
8
9
15
7
16
13
2
11
14
4
5
3
10

> <PUBCHEM_MMFF94_PARTIAL_CHARGES>
23
1 -0.18
10 0.71
11 0.27
12 -0.24
13 -0.15
15 -0.15
16 -0.15
17 -0.15
18 0.18
19 -0.15
2 -0.57
3 -0.66
31 0.15
32 0.27
33 0.15
34 0.15
35 0.15
4 -0.81
5 0.03
6 0.3
7 0.3
8 0.27
9 0.27

> <PUBCHEM_EFFECTIVE_ROTOR_COUNT>
3.2

> <PUBCHEM_PHARMACOPHORE_FEATURES>
7
1 2 acceptor
1 4 cation
1 5 cation
1 5 donor
5 5 12 13 14 15 rings
6 14 15 16 17 18 19 rings
6 3 4 6 7 8 9 rings

> <PUBCHEM_HEAVY_ATOM_COUNT>
19

> <PUBCHEM_ATOM_DEF_STEREO_COUNT>
0

> <PUBCHEM_ATOM_UDEF_STEREO_COUNT>
0

> <PUBCHEM_BOND_DEF_STEREO_COUNT>
0

> <PUBCHEM_BOND_UDEF_STEREO_COUNT>
0

> <PUBCHEM_ISOTOPIC_ATOM_COUNT>
0

> <PUBCHEM_COMPONENT_COUNT>
1

> <PUBCHEM_CACTVS_TAUTO_COUNT>
2

> <PUBCHEM_CONFORMER_ID>
004AE54D00000001

> <PUBCHEM_MMFF94_ENERGY>
39.5089

> <PUBCHEM_FEATURE_SELFOVERLAP>
35.612

> <PUBCHEM_SHAPE_FINGERPRINT>
10 15 18114180878142223072
11128504 68 15769771372885759072
11132069 177 18114184142105890679
11595378 159 16878215377391716525
12236239 1 16559033774761448781
12403259 118 17023184899140490477
12403259 415 18334294223523883229
12507560 40 18261110721426923815
12730499 353 18340776965593419111
12916748 109 18334859402713257712
13081056 2 18410576162710491357
13140716 1 17970356034081699153
13214271 11 18334011718261501479
13288520 33 9439407934477312585
13402501 40 18409445890569736912
13914758 101 13984931910672512495
13955234 65 18268149764619429026
14251764 18 18114175346609064906
14341114 176 18187649093763333888
14366163 111 16200426974893489058
15048467 5 18060143120374371497
1813 80 13262673682858511586
18186145 218 18202289117210370502
193927 3 11314302802886843776
19784866 170 18259985972138715213
200 152 17917709093845468567
20645477 56 18410292540244792839
20645477 70 17917437480103529806
21033648 29 18337940238568498737
22079108 93 18412544331859050511
221357 26 18059580144092288652
22224240 67 18408891733474225859
22854114 59 18408605868001513231
23227448 37 18342173427101885975
23402539 116 17822289124143750791
23402655 69 17775565360156605988
23559900 14 17750805345677994559
2916195 48 18270955847358166912
3545911 37 18409172094983475879
4325135 7 18059571438831617111
465052 167 11169920467692287233
474 4 18343021124733858704
5104073 3 18042409019930955617
542803 24 17060621088095970209
59682541 35 18187935027638784929
59682541 52 16486713410984084396
7808743 9 18118406383185358852

> <PUBCHEM_SHAPE_MULTIPOLES>
372.07
12.79
1.81
0.94
0.27
0.43
-0.02
-5.71
2.66
-1.01
0.05
0.12
-0.15
1.32

> <PUBCHEM_SHAPE_SELFOVERLAP>
792.472

> <PUBCHEM_SHAPE_VOLUME>
209.6

> <PUBCHEM_COORDINATE_TYPE>
2
5
10

$$$$
