9809715
  -OEChem-10052115113D

 73 77  0     0  0  0  0  0  0999 V2000
    4.8260    0.1236    0.6243 O   0  0  0  0  0  0  0  0  0  0  0  0
   -3.3424   -3.4648    1.1539 O   0  0  0  0  0  0  0  0  0  0  0  0
   -9.2545    0.8661   -0.0148 O   0  0  0  0  0  0  0  0  0  0  0  0
   -8.3714    2.9588    0.3580 O   0  0  0  0  0  0  0  0  0  0  0  0
    7.4504    0.1488    0.3058 N   0  0  0  0  0  0  0  0  0  0  0  0
    9.5104    2.1645    0.5342 N   0  0  0  0  0  0  0  0  0  0  0  0
    4.4004   -1.6834   -0.8107 N   0  0  0  0  0  0  0  0  0  0  0  0
   -1.1399   -1.9509    0.2615 N   0  0  0  0  0  0  0  0  0  0  0  0
   -5.3194   -2.1765    1.0443 N   0  0  0  0  0  0  0  0  0  0  0  0
    7.3363    1.4375   -0.3880 C   0  0  0  0  0  0  0  0  0  0  0  0
    8.8617   -0.2194    0.4731 C   0  0  0  0  0  0  0  0  0  0  0  0
    8.0992    2.5320    0.3662 C   0  0  0  0  0  0  0  0  0  0  0  0
    9.6256    0.8750    1.2263 C   0  0  0  0  0  0  0  0  0  0  0  0
    6.7236   -0.8948   -0.4143 C   0  0  0  0  0  0  0  0  0  0  0  0
   10.2362    3.2077    1.2560 C   0  0  0  0  0  0  0  0  0  0  0  0
    5.2305   -0.7480   -0.1499 C   0  0  0  0  0  0  0  0  0  0  0  0
    2.9791   -1.7516   -0.5358 C   0  0  0  0  0  0  0  0  0  0  0  0
    4.9413   -2.7018   -1.7245 C   0  0  0  0  0  0  0  0  0  0  0  0
   -3.3807   -1.1571    0.3800 C   0  0  0  0  0  0  0  0  0  0  0  0
   -4.4705   -0.1977    0.2363 C   0  0  0  0  0  0  0  0  0  0  0  0
   -2.0762   -0.9895    0.1077 C   0  0  0  0  0  0  0  0  0  0  0  0
   -5.6244   -0.8680    0.6531 C   0  0  0  0  0  0  0  0  0  0  0  0
    2.0945   -2.1612   -1.5334 C   0  0  0  0  0  0  0  0  0  0  0  0
    2.4959   -1.4078    0.7269 C   0  0  0  0  0  0  0  0  0  0  0  0
    0.2434   -1.8838   -0.0059 C   0  0  0  0  0  0  0  0  0  0  0  0
   -3.9527   -2.4408    0.9081 C   0  0  0  0  0  0  0  0  0  0  0  0
    0.7268   -2.2274   -1.2685 C   0  0  0  0  0  0  0  0  0  0  0  0
    1.1279   -1.4739    0.9918 C   0  0  0  0  0  0  0  0  0  0  0  0
   -1.6129    0.3152   -0.4095 C   0  0  0  0  0  0  0  0  0  0  0  0
   -4.5334    1.1134   -0.1962 C   0  0  0  0  0  0  0  0  0  0  0  0
   -6.8681   -0.2675    0.6556 C   0  0  0  0  0  0  0  0  0  0  0  0
   -6.9396    1.0572    0.2201 C   0  0  0  0  0  0  0  0  0  0  0  0
   -5.7837    1.7411   -0.2016 C   0  0  0  0  0  0  0  0  0  0  0  0
   -1.2073    1.3127    0.4773 C   0  0  0  0  0  0  0  0  0  0  0  0
   -1.5812    0.5493   -1.7842 C   0  0  0  0  0  0  0  0  0  0  0  0
   -8.2242    1.7398    0.2007 C   0  0  0  0  0  0  0  0  0  0  0  0
   -0.7702    2.5442   -0.0105 C   0  0  0  0  0  0  0  0  0  0  0  0
   -1.1440    1.7808   -2.2720 C   0  0  0  0  0  0  0  0  0  0  0  0
   -0.7386    2.7782   -1.3850 C   0  0  0  0  0  0  0  0  0  0  0  0
  -10.5741    1.4199   -0.0568 C   0  0  0  0  0  0  0  0  0  0  0  0
    7.7298    1.3631   -1.4115 H   0  0  0  0  0  0  0  0  0  0  0  0
    6.2928    1.7587   -0.4738 H   0  0  0  0  0  0  0  0  0  0  0  0
    8.9392   -1.1480    1.0517 H   0  0  0  0  0  0  0  0  0  0  0  0
    9.3364   -0.4000   -0.5010 H   0  0  0  0  0  0  0  0  0  0  0  0
    8.0260    3.4625   -0.2099 H   0  0  0  0  0  0  0  0  0  0  0  0
    7.6215    2.7113    1.3390 H   0  0  0  0  0  0  0  0  0  0  0  0
    9.2471    0.9475    2.2551 H   0  0  0  0  0  0  0  0  0  0  0  0
   10.6803    0.5799    1.2868 H   0  0  0  0  0  0  0  0  0  0  0  0
    7.0127   -1.8726   -0.0104 H   0  0  0  0  0  0  0  0  0  0  0  0
    6.9341   -0.8736   -1.4895 H   0  0  0  0  0  0  0  0  0  0  0  0
   10.1854    4.1576    0.7123 H   0  0  0  0  0  0  0  0  0  0  0  0
   11.2978    2.9499    1.3394 H   0  0  0  0  0  0  0  0  0  0  0  0
    9.8398    3.3667    2.2653 H   0  0  0  0  0  0  0  0  0  0  0  0
    4.9081   -2.3018   -2.7425 H   0  0  0  0  0  0  0  0  0  0  0  0
    4.3558   -3.6251   -1.6637 H   0  0  0  0  0  0  0  0  0  0  0  0
    5.9721   -2.9684   -1.4892 H   0  0  0  0  0  0  0  0  0  0  0  0
    2.4375   -2.4172   -2.5319 H   0  0  0  0  0  0  0  0  0  0  0  0
    3.1470   -1.1415    1.5526 H   0  0  0  0  0  0  0  0  0  0  0  0
   -1.4497   -2.8533    0.6055 H   0  0  0  0  0  0  0  0  0  0  0  0
   -6.0112   -2.8356    1.3813 H   0  0  0  0  0  0  0  0  0  0  0  0
    0.0462   -2.5452   -2.0543 H   0  0  0  0  0  0  0  0  0  0  0  0
    0.7633   -1.2172    1.9832 H   0  0  0  0  0  0  0  0  0  0  0  0
   -3.6961    1.6999   -0.5334 H   0  0  0  0  0  0  0  0  0  0  0  0
   -7.7390   -0.8169    0.9970 H   0  0  0  0  0  0  0  0  0  0  0  0
   -5.8489    2.7722   -0.5426 H   0  0  0  0  0  0  0  0  0  0  0  0
   -1.2261    1.1457    1.5516 H   0  0  0  0  0  0  0  0  0  0  0  0
   -1.8945   -0.2176   -2.4884 H   0  0  0  0  0  0  0  0  0  0  0  0
   -0.4547    3.3208    0.6800 H   0  0  0  0  0  0  0  0  0  0  0  0
   -1.1195    1.9632   -3.3423 H   0  0  0  0  0  0  0  0  0  0  0  0
   -0.3984    3.7371   -1.7649 H   0  0  0  0  0  0  0  0  0  0  0  0
  -11.2800    0.6046   -0.2350 H   0  0  0  0  0  0  0  0  0  0  0  0
  -10.6542    2.1413   -0.8752 H   0  0  0  0  0  0  0  0  0  0  0  0
  -10.8150    1.8924    0.9001 H   0  0  0  0  0  0  0  0  0  0  0  0
  1 16  2  0  0  0  0
  2 26  2  0  0  0  0
  3 36  1  0  0  0  0
  3 40  1  0  0  0  0
  4 36  2  0  0  0  0
  5 10  1  0  0  0  0
  5 11  1  0  0  0  0
  5 14  1  0  0  0  0
  6 12  1  0  0  0  0
  6 13  1  0  0  0  0
  6 15  1  0  0  0  0
  7 16  1  0  0  0  0
  7 17  1  0  0  0  0
  7 18  1  0  0  0  0
  8 21  1  0  0  0  0
  8 25  1  0  0  0  0
  8 59  1  0  0  0  0
  9 22  1  0  0  0  0
  9 26  1  0  0  0  0
  9 60  1  0  0  0  0
 10 12  1  0  0  0  0
 10 41  1  0  0  0  0
 10 42  1  0  0  0  0
 11 13  1  0  0  0  0
 11 43  1  0  0  0  0
 11 44  1  0  0  0  0
 12 45  1  0  0  0  0
 12 46  1  0  0  0  0
 13 47  1  0  0  0  0
 13 48  1  0  0  0  0
 14 16  1  0  0  0  0
 14 49  1  0  0  0  0
 14 50  1  0  0  0  0
 15 51  1  0  0  0  0
 15 52  1  0  0  0  0
 15 53  1  0  0  0  0
 17 23  2  0  0  0  0
 17 24  1  0  0  0  0
 18 54  1  0  0  0  0
 18 55  1  0  0  0  0
 18 56  1  0  0  0  0
 19 20  1  0  0  0  0
 19 21  2  0  0  0  0
 19 26  1  0  0  0  0
 20 22  2  0  0  0  0
 20 30  1  0  0  0  0
 21 29  1  0  0  0  0
 22 31  1  0  0  0  0
 23 27  1  0  0  0  0
 23 57  1  0  0  0  0
 24 28  2  0  0  0  0
 24 58  1  0  0  0  0
 25 27  2  0  0  0  0
 25 28  1  0  0  0  0
 27 61  1  0  0  0  0
 28 62  1  0  0  0  0
 29 34  2  0  0  0  0
 29 35  1  0  0  0  0
 30 33  2  0  0  0  0
 30 63  1  0  0  0  0
 31 32  2  0  0  0  0
 31 64  1  0  0  0  0
 32 33  1  0  0  0  0
 32 36  1  0  0  0  0
 33 65  1  0  0  0  0
 34 37  1  0  0  0  0
 34 66  1  0  0  0  0
 35 38  2  0  0  0  0
 35 67  1  0  0  0  0
 37 39  2  0  0  0  0
 37 68  1  0  0  0  0
 38 39  1  0  0  0  0
 38 69  1  0  0  0  0
 39 70  1  0  0  0  0
 40 71  1  0  0  0  0
 40 72  1  0  0  0  0
 40 73  1  0  0  0  0
M  END
> <PUBCHEM_COMPOUND_CID>
9809715

> <PUBCHEM_CONFORMER_RMSD>
1.2

> <PUBCHEM_CONFORMER_DIVERSEORDER>
1
42
64
48
56
78
80
25
23
61
45
50
47
21
72
13
75
51
36
16
11
40
32
9
41
2
19
39
63
43
33
20
22
79
76
52
67
71
38
8
44
34
54
53
26
10
35
73
62
14
74
27
55
28
65
59
15
57
24
46
7
66
68
5
31
81
60
17
12
77
82
49
70
4
58
30
37
69
29
3
18
6

> <PUBCHEM_MMFF94_PARTIAL_CHARGES>
54
1 -0.57
10 0.27
11 0.27
12 0.27
13 0.27
14 0.33
15 0.27
16 0.57
17 0.12
18 0.3
19 -0.01
2 -0.57
20 0.03
21 0.07
22 0.12
23 -0.15
24 -0.15
25 0.1
26 0.62
27 -0.15
28 -0.15
29 0.03
3 -0.43
30 -0.15
31 -0.15
32 0.09
33 -0.15
34 -0.15
35 -0.15
36 0.63
37 -0.15
38 -0.15
39 -0.15
4 -0.57
40 0.28
5 -0.81
57 0.15
58 0.15
59 0.4
6 -0.81
60 0.37
61 0.15
62 0.15
63 0.15
64 0.15
65 0.15
66 0.15
67 0.15
68 0.15
69 0.15
7 -0.48
70 0.15
8 -0.6
9 -0.55

> <PUBCHEM_EFFECTIVE_ROTOR_COUNT>
10.4

> <PUBCHEM_PHARMACOPHORE_FEATURES>
13
1 1 acceptor
1 2 acceptor
1 4 acceptor
1 5 cation
1 6 cation
1 8 cation
1 8 donor
1 9 donor
5 9 19 20 22 26 rings
6 17 23 24 25 27 28 rings
6 20 22 30 31 32 33 rings
6 29 34 35 37 38 39 rings
6 5 6 10 11 12 13 rings

> <PUBCHEM_HEAVY_ATOM_COUNT>
40

> <PUBCHEM_ATOM_DEF_STEREO_COUNT>
0

> <PUBCHEM_ATOM_UDEF_STEREO_COUNT>
0

> <PUBCHEM_BOND_DEF_STEREO_COUNT>
1

> <PUBCHEM_BOND_UDEF_STEREO_COUNT>
0

> <PUBCHEM_ISOTOPIC_ATOM_COUNT>
0

> <PUBCHEM_COMPONENT_COUNT>
1

> <PUBCHEM_CACTVS_TAUTO_COUNT>
7

> <PUBCHEM_CONFORMER_ID>
0095AF3300000001

> <PUBCHEM_MMFF94_ENERGY>
165.1229

> <PUBCHEM_FEATURE_SELFOVERLAP>
66.064

> <PUBCHEM_SHAPE_FINGERPRINT>
10 15 18336264631078449130
10165383 225 17989202629733824670
10369192 42 17989209278759709766
10930396 42 17894343384675159948
11374522 155 18265054803345206500
11409948 8 18335991939198777931
11456790 92 14706929535953895150
11578821 258 18342177799669445200
11621639 148 18408326605413456213
12539745 222 11746930972100661751
12758862 11 18411707556434718739
12838862 33 17894909604021697463
13165054 49 17676207974922974913
13811026 1 18409451397149885334
14394314 77 18040154019965974123
15131766 46 17560221644280764416
15247644 1 8069727591945923273
15840311 113 18411140208941116942
15890870 6 18272652381647886328
18365409 1 17917421052650539591
18393751 57 18409165524501756110
18608769 82 18408882962644546384
19302320 297 18334853966556409060
19315958 150 18272376342982038391
2026 5 8286211543495608224
23576562 1 14835540566285128714
24771293 8 18409730634839044653
25269216 80 15769202981783839620
3383291 50 11241968187896144696
3918712 181 18201435922553366368
4403749 210 18201157753557469478
44280117 145 18196089061009321822
636775 72 18411139108997180177
9953998 17 18113335327424127186

> <PUBCHEM_SHAPE_MULTIPOLES>
774.8
32.95
3.66
1.35
27.11
0.3
-0.57
27.56
10.69
1.67
-0.03
0.8
-0.12
3.6

> <PUBCHEM_SHAPE_SELFOVERLAP>
1686.052

> <PUBCHEM_SHAPE_VOLUME>
423.1

> <PUBCHEM_COORDINATE_TYPE>
2
5
10

$$$$
